MODEL 1
REMARK VINA RESULT:      -3.4      0.000      0.000
REMARK  Name = 45784082
REMARK  4 active torsions:
REMARK  status: ('A' for Active; 'I' for Inactive)
REMARK    1  A    between atoms: N_1  and  C_10
REMARK    2  A    between atoms: C_5  and  C_9
REMARK    3  A    between atoms: C_10  and  C_11
REMARK    4  A    between atoms: C_14  and  C_18
REMARK                            x       y       z     vdW  Elec       q    Type
REMARK                         _______ _______ _______ _____ _____    ______ ____
ROOT
ATOM      1  N   UNL     1      -1.762   1.247  23.762  0.00  0.00    -0.297 NA
ATOM      5  C   UNL     1       0.044  -0.137  23.192  0.00  0.00    +0.070 C 
ATOM      6  C   UNL     1      -0.743  -0.770  24.353  0.00  0.00    +0.028 C 
ATOM      7  C   UNL     1      -0.435   1.321  23.147  0.00  0.00    +0.096 C 
ATOM      8  C   UNL     1      -1.595   0.361  24.915  0.00  0.00    +0.085 C 
ENDROOT
BRANCH   5   9
ATOM      2  N   UNL     1       2.368   0.793  22.998  0.00  0.00    -0.340 N 
ATOM      3  N   UNL     1       2.222  -1.324  23.677  0.00  0.00    -0.213 NA
ATOM      4  N   UNL     1       4.605  -1.722  23.913  0.00  0.00    -0.234 NA
ATOM      9  C   UNL     1       1.546  -0.260  23.301  0.00  0.00    +0.114 A 
ATOM     12  C   UNL     1       3.658   0.379  23.191  0.00  0.00    +0.085 A 
ATOM     13  C   UNL     1       3.539  -0.941  23.612  0.00  0.00    +0.178 A 
ATOM     16  C   UNL     1       4.895   0.998  23.048  0.00  0.00    +0.031 A 
ATOM     21  C   UNL     1       6.000   0.207  23.354  0.00  0.00    +0.022 A 
ATOM     22  C   UNL     1       5.802  -1.105  23.769  0.00  0.00    +0.113 A 
ATOM     23  H   UNL     1       2.076   1.711  22.688  0.00  0.00    +0.167 HD
ENDBRANCH   5   9
BRANCH   1  10
ATOM     10  C   UNL     1      -2.274   2.556  24.140  0.00  0.00    +0.119 C 
BRANCH  10  11
ATOM     11  C   UNL     1      -3.661   2.471  24.717  0.00  0.00    -0.030 A 
ATOM     14  C   UNL     1      -4.092   3.377  25.686  0.00  0.00    -0.046 A 
ATOM     15  C   UNL     1      -4.520   1.467  24.271  0.00  0.00    +0.005 A 
ATOM     17  C   UNL     1      -5.382   3.279  26.208  0.00  0.00    +0.003 A 
ATOM     18  C   UNL     1      -3.191   4.461  26.179  0.00  0.00    +0.044 C 
ATOM     19  C   UNL     1      -5.809   1.369  24.793  0.00  0.00    +0.000 A 
ATOM     20  C   UNL     1      -6.241   2.274  25.761  0.00  0.00    +0.000 A 
ENDBRANCH  10  11
ENDBRANCH   1  10
TORSDOF 3
ENDMDL
MODEL 2
REMARK VINA RESULT:      -3.2      1.357      2.594
REMARK  Name = 45784082
REMARK  4 active torsions:
REMARK  status: ('A' for Active; 'I' for Inactive)
REMARK    1  A    between atoms: N_1  and  C_10
REMARK    2  A    between atoms: C_5  and  C_9
REMARK    3  A    between atoms: C_10  and  C_11
REMARK    4  A    between atoms: C_14  and  C_18
REMARK                            x       y       z     vdW  Elec       q    Type
REMARK                         _______ _______ _______ _____ _____    ______ ____
ROOT
ATOM      1  N   UNL     1      -2.584   0.099  24.522  0.00  0.00    -0.297 NA
ATOM      5  C   UNL     1      -0.626  -0.585  23.427  0.00  0.00    +0.070 C 
ATOM      6  C   UNL     1      -1.084  -1.687  24.399  0.00  0.00    +0.028 C 
ATOM      7  C   UNL     1      -1.406   0.664  23.860  0.00  0.00    +0.096 C 
ATOM      8  C   UNL     1      -2.068  -0.999  25.338  0.00  0.00    +0.085 C 
ENDROOT
BRANCH   5   9
ATOM      2  N   UNL     1       1.745  -1.347  23.742  0.00  0.00    -0.340 N 
ATOM      3  N   UNL     1       1.485   0.741  23.012  0.00  0.00    -0.213 NA
ATOM      4  N   UNL     1       3.843   1.299  22.869  0.00  0.00    -0.234 NA
ATOM      9  C   UNL     1       0.868  -0.360  23.381  0.00  0.00    +0.114 A 
ATOM     12  C   UNL     1       3.011  -0.849  23.597  0.00  0.00    +0.085 A 
ATOM     13  C   UNL     1       2.821   0.452  23.142  0.00  0.00    +0.178 A 
ATOM     16  C   UNL     1       4.280  -1.377  23.806  0.00  0.00    +0.031 A 
ATOM     21  C   UNL     1       5.341  -0.517  23.531  0.00  0.00    +0.022 A 
ATOM     22  C   UNL     1       5.072   0.770  23.079  0.00  0.00    +0.113 A 
ATOM     23  H   UNL     1       1.504  -2.277  24.059  0.00  0.00    +0.167 HD
ENDBRANCH   5   9
BRANCH   1  10
ATOM     10  C   UNL     1      -3.304   1.087  25.313  0.00  0.00    +0.119 C 
BRANCH  10  11
ATOM     11  C   UNL     1      -2.637   2.435  25.269  0.00  0.00    -0.030 A 
ATOM     14  C   UNL     1      -3.374   3.593  25.022  0.00  0.00    -0.046 A 
ATOM     15  C   UNL     1      -1.261   2.517  25.479  0.00  0.00    +0.005 A 
ATOM     17  C   UNL     1      -2.735   4.832  24.985  0.00  0.00    +0.003 A 
ATOM     18  C   UNL     1      -4.849   3.531  24.794  0.00  0.00    +0.044 C 
ATOM     19  C   UNL     1      -0.622   3.756  25.442  0.00  0.00    +0.000 A 
ATOM     20  C   UNL     1      -1.359   4.914  25.195  0.00  0.00    +0.000 A 
ENDBRANCH  10  11
ENDBRANCH   1  10
TORSDOF 3
ENDMDL
MODEL 3
REMARK VINA RESULT:      -2.8      1.448      8.296
REMARK  Name = 45784082
REMARK  4 active torsions:
REMARK  status: ('A' for Active; 'I' for Inactive)
REMARK    1  A    between atoms: N_1  and  C_10
REMARK    2  A    between atoms: C_5  and  C_9
REMARK    3  A    between atoms: C_10  and  C_11
REMARK    4  A    between atoms: C_14  and  C_18
REMARK                            x       y       z     vdW  Elec       q    Type
REMARK                         _______ _______ _______ _____ _____    ______ ____
ROOT
ATOM      1  N   UNL     1       0.792  -0.486  23.785  0.00  0.00    -0.297 NA
ATOM      5  C   UNL     1      -1.030   0.097  25.142  0.00  0.00    +0.070 C 
ATOM      6  C   UNL     1      -1.271  -1.292  24.526  0.00  0.00    +0.028 C 
ATOM      7  C   UNL     1       0.111   0.699  24.309  0.00  0.00    +0.096 C 
ATOM      8  C   UNL     1      -0.284  -1.387  23.369  0.00  0.00    +0.085 C 
ENDROOT
BRANCH   5   9
ATOM      2  N   UNL     1      -3.511   0.468  25.085  0.00  0.00    -0.340 N 
ATOM      3  N   UNL     1      -2.262   2.292  25.363  0.00  0.00    -0.213 NA
ATOM      4  N   UNL     1      -4.090   3.885  25.483  0.00  0.00    -0.234 NA
ATOM      9  C   UNL     1      -2.250   0.987  25.202  0.00  0.00    +0.114 A 
ATOM     12  C   UNL     1      -4.395   1.509  25.177  0.00  0.00    +0.085 A 
ATOM     13  C   UNL     1      -3.592   2.631  25.349  0.00  0.00    +0.178 A 
ATOM     16  C   UNL     1      -5.782   1.596  25.131  0.00  0.00    +0.031 A 
ATOM     21  C   UNL     1      -6.308   2.879  25.267  0.00  0.00    +0.022 A 
ATOM     22  C   UNL     1      -5.442   3.953  25.435  0.00  0.00    +0.113 A 
ATOM     23  H   UNL     1      -3.750  -0.506  24.955  0.00  0.00    +0.167 HD
ENDBRANCH   5   9
BRANCH   1  10
ATOM     10  C   UNL     1       1.700  -0.168  22.693  0.00  0.00    +0.119 C 
BRANCH  10  11
ATOM     11  C   UNL     1       3.141  -0.286  23.109  0.00  0.00    -0.030 A 
ATOM     14  C   UNL     1       4.016   0.794  22.983  0.00  0.00    -0.046 A 
ATOM     15  C   UNL     1       3.599  -1.496  23.628  0.00  0.00    +0.005 A 
ATOM     17  C   UNL     1       5.348   0.662  23.375  0.00  0.00    +0.003 A 
ATOM     18  C   UNL     1       3.549   2.101  22.431  0.00  0.00    +0.044 C 
ATOM     19  C   UNL     1       4.931  -1.628  24.020  0.00  0.00    +0.000 A 
ATOM     20  C   UNL     1       5.805  -0.549  23.894  0.00  0.00    +0.000 A 
ENDBRANCH  10  11
ENDBRANCH   1  10
TORSDOF 3
ENDMDL
MODEL 4
REMARK VINA RESULT:      -2.1      0.802      1.967
REMARK  Name = 45784082
REMARK  4 active torsions:
REMARK  status: ('A' for Active; 'I' for Inactive)
REMARK    1  A    between atoms: N_1  and  C_10
REMARK    2  A    between atoms: C_5  and  C_9
REMARK    3  A    between atoms: C_10  and  C_11
REMARK    4  A    between atoms: C_14  and  C_18
REMARK                            x       y       z     vdW  Elec       q    Type
REMARK                         _______ _______ _______ _____ _____    ______ ____
ROOT
ATOM      1  N   UNL     1      -1.983   0.999  23.722  0.00  0.00    -0.297 NA
ATOM      5  C   UNL     1      -0.045  -0.312  23.551  0.00  0.00    +0.070 C 
ATOM      6  C   UNL     1      -0.631  -0.441  24.968  0.00  0.00    +0.028 C 
ATOM      7  C   UNL     1      -0.737   0.922  22.955  0.00  0.00    +0.096 C 
ATOM      8  C   UNL     1      -1.591   0.734  25.106  0.00  0.00    +0.085 C 
ENDROOT
BRANCH   5   9
ATOM      2  N   UNL     1       2.245  -1.302  23.821  0.00  0.00    -0.340 N 
ATOM      3  N   UNL     1       2.177   0.817  23.138  0.00  0.00    -0.213 NA
ATOM      4  N   UNL     1       4.576   1.152  22.978  0.00  0.00    -0.234 NA
ATOM      9  C   UNL     1       1.462  -0.228  23.491  0.00  0.00    +0.114 A 
ATOM     12  C   UNL     1       3.551  -0.922  23.670  0.00  0.00    +0.085 A 
ATOM     13  C   UNL     1       3.481   0.400  23.245  0.00  0.00    +0.178 A 
ATOM     16  C   UNL     1       4.766  -1.573  23.853  0.00  0.00    +0.031 A 
ATOM     21  C   UNL     1       5.901  -0.812  23.583  0.00  0.00    +0.022 A 
ATOM     22  C   UNL     1       5.752   0.505  23.162  0.00  0.00    +0.113 A 
ATOM     23  H   UNL     1       1.920  -2.212  24.121  0.00  0.00    +0.167 HD
ENDBRANCH   5   9
BRANCH   1  10
ATOM     10  C   UNL     1      -2.650   2.284  23.571  0.00  0.00    +0.119 C 
BRANCH  10  11
ATOM     11  C   UNL     1      -3.894   2.372  24.413  0.00  0.00    -0.030 A 
ATOM     14  C   UNL     1      -4.694   1.250  24.632  0.00  0.00    -0.046 A 
ATOM     15  C   UNL     1      -4.244   3.598  24.977  0.00  0.00    +0.005 A 
ATOM     17  C   UNL     1      -5.843   1.355  25.415  0.00  0.00    +0.003 A 
ATOM     18  C   UNL     1      -4.339  -0.073  24.038  0.00  0.00    +0.044 C 
ATOM     19  C   UNL     1      -5.394   3.703  25.761  0.00  0.00    +0.000 A 
ATOM     20  C   UNL     1      -6.193   2.582  25.980  0.00  0.00    +0.000 A 
ENDBRANCH  10  11
ENDBRANCH   1  10
TORSDOF 3
ENDMDL
MODEL 5
REMARK VINA RESULT:      -2.0      1.348      2.137
REMARK  Name = 45784082
REMARK  4 active torsions:
REMARK  status: ('A' for Active; 'I' for Inactive)
REMARK    1  A    between atoms: N_1  and  C_10
REMARK    2  A    between atoms: C_5  and  C_9
REMARK    3  A    between atoms: C_10  and  C_11
REMARK    4  A    between atoms: C_14  and  C_18
REMARK                            x       y       z     vdW  Elec       q    Type
REMARK                         _______ _______ _______ _____ _____    ______ ____
ROOT
ATOM      1  N   UNL     1      -3.130  -0.845  24.551  0.00  0.00    -0.297 NA
ATOM      5  C   UNL     1      -0.849  -1.382  24.659  0.00  0.00    +0.070 C 
ATOM      6  C   UNL     1      -1.301  -0.782  26.002  0.00  0.00    +0.028 C 
ATOM      7  C   UNL     1      -1.969  -1.018  23.674  0.00  0.00    +0.096 C 
ATOM      8  C   UNL     1      -2.626  -0.093  25.700  0.00  0.00    +0.085 C 
ENDROOT
BRANCH   5   9
ATOM      2  N   UNL     1       0.708   0.313  23.657  0.00  0.00    -0.340 N 
ATOM      3  N   UNL     1       1.628  -1.634  24.228  0.00  0.00    -0.213 NA
ATOM      4  N   UNL     1       3.893  -1.105  23.533  0.00  0.00    -0.234 NA
ATOM      9  C   UNL     1       0.516  -0.934  24.190  0.00  0.00    +0.114 A 
ATOM     12  C   UNL     1       2.033   0.422  23.330  0.00  0.00    +0.085 A 
ATOM     13  C   UNL     1       2.582  -0.803  23.695  0.00  0.00    +0.178 A 
ATOM     16  C   UNL     1       2.801   1.435  22.767  0.00  0.00    +0.031 A 
ATOM     21  C   UNL     1       4.151   1.138  22.594  0.00  0.00    +0.022 A 
ATOM     22  C   UNL     1       4.628  -0.109  22.982  0.00  0.00    +0.113 A 
ATOM     23  H   UNL     1       0.002   1.025  23.528  0.00  0.00    +0.167 HD
ENDBRANCH   5   9
BRANCH   1  10
ATOM     10  C   UNL     1      -4.232  -0.167  23.886  0.00  0.00    +0.119 C 
BRANCH  10  11
ATOM     11  C   UNL     1      -4.404   1.244  24.381  0.00  0.00    -0.030 A 
ATOM     14  C   UNL     1      -3.671   2.294  23.827  0.00  0.00    -0.046 A 
ATOM     15  C   UNL     1      -5.311   1.495  25.410  0.00  0.00    +0.005 A 
ATOM     17  C   UNL     1      -3.846   3.593  24.302  0.00  0.00    +0.003 A 
ATOM     18  C   UNL     1      -2.694   2.050  22.724  0.00  0.00    +0.044 C 
ATOM     19  C   UNL     1      -5.486   2.794  25.885  0.00  0.00    +0.000 A 
ATOM     20  C   UNL     1      -4.753   3.843  25.331  0.00  0.00    +0.000 A 
ENDBRANCH  10  11
ENDBRANCH   1  10
TORSDOF 3
ENDMDL
MODEL 6
REMARK VINA RESULT:      -1.8      2.012      3.272
REMARK  Name = 45784082
REMARK  4 active torsions:
REMARK  status: ('A' for Active; 'I' for Inactive)
REMARK    1  A    between atoms: N_1  and  C_10
REMARK    2  A    between atoms: C_5  and  C_9
REMARK    3  A    between atoms: C_10  and  C_11
REMARK    4  A    between atoms: C_14  and  C_18
REMARK                            x       y       z     vdW  Elec       q    Type
REMARK                         _______ _______ _______ _____ _____    ______ ____
ROOT
ATOM      1  N   UNL     1      -2.999   1.662  24.608  0.00  0.00    -0.297 NA
ATOM      5  C   UNL     1      -0.796   2.041  23.897  0.00  0.00    +0.070 C 
ATOM      6  C   UNL     1      -1.738   2.049  22.681  0.00  0.00    +0.028 C 
ATOM      7  C   UNL     1      -1.619   1.398  25.023  0.00  0.00    +0.096 C 
ATOM      8  C   UNL     1      -3.021   1.389  23.171  0.00  0.00    +0.085 C 
ENDROOT
BRANCH   5   9
ATOM      2  N   UNL     1       1.678   2.073  23.474  0.00  0.00    -0.340 N 
ATOM      3  N   UNL     1       0.745   0.056  23.633  0.00  0.00    -0.213 NA
ATOM      4  N   UNL     1       2.772  -1.234  23.284  0.00  0.00    -0.234 NA
ATOM      9  C   UNL     1       0.530   1.353  23.670  0.00  0.00    +0.114 A 
ATOM     12  C   UNL     1       2.700   1.181  23.298  0.00  0.00    +0.085 A 
ATOM     13  C   UNL     1       2.093  -0.066  23.401  0.00  0.00    +0.178 A 
ATOM     16  C   UNL     1       4.064   1.318  23.065  0.00  0.00    +0.031 A 
ATOM     21  C   UNL     1       4.775   0.127  22.942  0.00  0.00    +0.022 A 
ATOM     22  C   UNL     1       4.099  -1.083  23.057  0.00  0.00    +0.113 A 
ATOM     23  H   UNL     1       1.758   3.082  23.461  0.00  0.00    +0.167 HD
ENDBRANCH   5   9
BRANCH   1  10
ATOM     10  C   UNL     1      -3.963   0.854  25.340  0.00  0.00    +0.119 C 
BRANCH  10  11
ATOM     11  C   UNL     1      -3.882  -0.599  24.958  0.00  0.00    -0.030 A 
ATOM     14  C   UNL     1      -3.089  -1.489  25.683  0.00  0.00    -0.046 A 
ATOM     15  C   UNL     1      -4.615  -1.053  23.862  0.00  0.00    +0.005 A 
ATOM     17  C   UNL     1      -3.028  -2.832  25.311  0.00  0.00    +0.003 A 
ATOM     18  C   UNL     1      -2.295  -1.027  26.860  0.00  0.00    +0.044 C 
ATOM     19  C   UNL     1      -4.555  -2.395  23.490  0.00  0.00    +0.000 A 
ATOM     20  C   UNL     1      -3.762  -3.285  24.214  0.00  0.00    +0.000 A 
ENDBRANCH  10  11
ENDBRANCH   1  10
TORSDOF 3
ENDMDL
MODEL 7
REMARK VINA RESULT:      -1.4      4.164      6.028
REMARK  Name = 45784082
REMARK  4 active torsions:
REMARK  status: ('A' for Active; 'I' for Inactive)
REMARK    1  A    between atoms: N_1  and  C_10
REMARK    2  A    between atoms: C_5  and  C_9
REMARK    3  A    between atoms: C_10  and  C_11
REMARK    4  A    between atoms: C_14  and  C_18
REMARK                            x       y       z     vdW  Elec       q    Type
REMARK                         _______ _______ _______ _____ _____    ______ ____
ROOT
ATOM      1  N   UNL     1      -4.839   3.806  25.345  0.00  0.00    -0.297 NA
ATOM      5  C   UNL     1      -5.141   1.624  24.540  0.00  0.00    +0.070 C 
ATOM      6  C   UNL     1      -5.974   1.820  25.818  0.00  0.00    +0.028 C 
ATOM      7  C   UNL     1      -4.151   2.797  24.536  0.00  0.00    +0.096 C 
ATOM      8  C   UNL     1      -5.395   3.066  26.478  0.00  0.00    +0.085 C 
ENDROOT
BRANCH   5   9
ATOM      2  N   UNL     1      -3.127   0.134  24.694  0.00  0.00    -0.340 N 
ATOM      3  N   UNL     1      -5.023  -0.857  24.073  0.00  0.00    -0.213 NA
ATOM      4  N   UNL     1      -4.119  -3.097  23.829  0.00  0.00    -0.234 NA
ATOM      9  C   UNL     1      -4.461   0.279  24.424  0.00  0.00    +0.114 A 
ATOM     12  C   UNL     1      -2.808  -1.183  24.503  0.00  0.00    +0.085 A 
ATOM     13  C   UNL     1      -4.005  -1.777  24.117  0.00  0.00    +0.178 A 
ATOM     16  C   UNL     1      -1.630  -1.912  24.622  0.00  0.00    +0.031 A 
ATOM     21  C   UNL     1      -1.731  -3.270  24.329  0.00  0.00    +0.022 A 
ATOM     22  C   UNL     1      -2.963  -3.792  23.949  0.00  0.00    +0.113 A 
ATOM     23  H   UNL     1      -2.490   0.865  24.982  0.00  0.00    +0.167 HD
ENDBRANCH   5   9
BRANCH   1  10
ATOM     10  C   UNL     1      -3.951   4.879  25.768  0.00  0.00    +0.119 C 
BRANCH  10  11
ATOM     11  C   UNL     1      -2.503   4.487  25.654  0.00  0.00    -0.030 A 
ATOM     14  C   UNL     1      -1.602   5.268  24.930  0.00  0.00    -0.046 A 
ATOM     15  C   UNL     1      -2.065   3.323  26.285  0.00  0.00    +0.005 A 
ATOM     17  C   UNL     1      -0.264   4.885  24.838  0.00  0.00    +0.003 A 
ATOM     18  C   UNL     1      -2.046   6.519  24.246  0.00  0.00    +0.044 C 
ATOM     19  C   UNL     1      -0.727   2.940  26.193  0.00  0.00    +0.000 A 
ATOM     20  C   UNL     1       0.173   3.721  25.470  0.00  0.00    +0.000 A 
ENDBRANCH  10  11
ENDBRANCH   1  10
TORSDOF 3
ENDMDL
MODEL 8
REMARK VINA RESULT:      -1.3      2.011      3.393
REMARK  Name = 45784082
REMARK  4 active torsions:
REMARK  status: ('A' for Active; 'I' for Inactive)
REMARK    1  A    between atoms: N_1  and  C_10
REMARK    2  A    between atoms: C_5  and  C_9
REMARK    3  A    between atoms: C_10  and  C_11
REMARK    4  A    between atoms: C_14  and  C_18
REMARK                            x       y       z     vdW  Elec       q    Type
REMARK                         _______ _______ _______ _____ _____    ______ ____
ROOT
ATOM      1  N   UNL     1      -2.621   4.402  25.868  0.00  0.00    -0.297 NA
ATOM      5  C   UNL     1      -0.649   3.172  25.555  0.00  0.00    +0.070 C 
ATOM      6  C   UNL     1      -0.381   4.658  25.261  0.00  0.00    +0.028 C 
ATOM      7  C   UNL     1      -2.179   3.044  25.546  0.00  0.00    +0.096 C 
ATOM      8  C   UNL     1      -1.760   5.278  25.074  0.00  0.00    +0.085 C 
ENDROOT
BRANCH   5   9
ATOM      2  N   UNL     1       1.376   2.266  24.382  0.00  0.00    -0.340 N 
ATOM      3  N   UNL     1      -0.548   1.238  23.932  0.00  0.00    -0.213 NA
ATOM      4  N   UNL     1       0.350  -0.402  22.384  0.00  0.00    -0.234 NA
ATOM      9  C   UNL     1       0.028   2.204  24.613  0.00  0.00    +0.114 A 
ATOM     12  C   UNL     1       1.689   1.273  23.494  0.00  0.00    +0.085 A 
ATOM     13  C   UNL     1       0.475   0.649  23.230  0.00  0.00    +0.178 A 
ATOM     16  C   UNL     1       2.876   0.856  22.901  0.00  0.00    +0.031 A 
ATOM     21  C   UNL     1       2.763  -0.225  22.029  0.00  0.00    +0.022 A 
ATOM     22  C   UNL     1       1.514  -0.797  21.814  0.00  0.00    +0.113 A 
ATOM     23  H   UNL     1       2.025   2.924  24.794  0.00  0.00    +0.167 HD
ENDBRANCH   5   9
BRANCH   1  10
ATOM     10  C   UNL     1      -4.034   4.609  25.584  0.00  0.00    +0.119 C 
BRANCH  10  11
ATOM     11  C   UNL     1      -4.770   3.306  25.425  0.00  0.00    -0.030 A 
ATOM     14  C   UNL     1      -4.634   2.542  24.266  0.00  0.00    -0.046 A 
ATOM     15  C   UNL     1      -5.599   2.866  26.457  0.00  0.00    +0.005 A 
ATOM     17  C   UNL     1      -5.327   1.338  24.140  0.00  0.00    +0.003 A 
ATOM     18  C   UNL     1      -3.753   2.992  23.148  0.00  0.00    +0.044 C 
ATOM     19  C   UNL     1      -6.291   1.662  26.330  0.00  0.00    +0.000 A 
ATOM     20  C   UNL     1      -6.155   0.898  25.172  0.00  0.00    +0.000 A 
ENDBRANCH  10  11
ENDBRANCH   1  10
TORSDOF 3
ENDMDL
MODEL 9
REMARK VINA RESULT:      -1.0      3.108      4.851
REMARK  Name = 45784082
REMARK  4 active torsions:
REMARK  status: ('A' for Active; 'I' for Inactive)
REMARK    1  A    between atoms: N_1  and  C_10
REMARK    2  A    between atoms: C_5  and  C_9
REMARK    3  A    between atoms: C_10  and  C_11
REMARK    4  A    between atoms: C_14  and  C_18
REMARK                            x       y       z     vdW  Elec       q    Type
REMARK                         _______ _______ _______ _____ _____    ______ ____
ROOT
ATOM      1  N   UNL     1      -0.434   3.636  25.295  0.00  0.00    -0.297 NA
ATOM      5  C   UNL     1      -0.207   1.303  25.215  0.00  0.00    +0.070 C 
ATOM      6  C   UNL     1       0.552   1.935  24.035  0.00  0.00    +0.028 C 
ATOM      7  C   UNL     1      -1.126   2.421  25.730  0.00  0.00    +0.096 C 
ATOM      8  C   UNL     1       0.005   3.353  23.929  0.00  0.00    +0.085 C 
ENDROOT
BRANCH   5   9
ATOM      2  N   UNL     1      -2.321  -0.018  24.928  0.00  0.00    -0.340 N 
ATOM      3  N   UNL     1      -0.425  -1.119  24.530  0.00  0.00    -0.213 NA
ATOM      4  N   UNL     1      -1.436  -3.252  23.964  0.00  0.00    -0.234 NA
ATOM      9  C   UNL     1      -0.953   0.032  24.883  0.00  0.00    +0.114 A 
ATOM     12  C   UNL     1      -2.698  -1.287  24.581  0.00  0.00    +0.085 A 
ATOM     13  C   UNL     1      -1.501  -1.951  24.339  0.00  0.00    +0.178 A 
ATOM     16  C   UNL     1      -3.930  -1.920  24.452  0.00  0.00    +0.031 A 
ATOM     21  C   UNL     1      -3.880  -3.258  24.067  0.00  0.00    +0.022 A 
ATOM     22  C   UNL     1      -2.644  -3.854  23.843  0.00  0.00    +0.113 A 
ATOM     23  H   UNL     1      -2.941   0.742  25.172  0.00  0.00    +0.167 HD
ENDBRANCH   5   9
BRANCH   1  10
ATOM     10  C   UNL     1      -1.284   4.816  25.370  0.00  0.00    +0.119 C 
BRANCH  10  11
ATOM     11  C   UNL     1      -2.741   4.468  25.221  0.00  0.00    -0.030 A 
ATOM     14  C   UNL     1      -3.548   4.265  26.340  0.00  0.00    -0.046 A 
ATOM     15  C   UNL     1      -3.281   4.349  23.941  0.00  0.00    +0.005 A 
ATOM     17  C   UNL     1      -4.896   3.943  26.179  0.00  0.00    +0.003 A 
ATOM     18  C   UNL     1      -2.993   4.386  27.721  0.00  0.00    +0.044 C 
ATOM     19  C   UNL     1      -4.628   4.027  23.779  0.00  0.00    +0.000 A 
ATOM     20  C   UNL     1      -5.436   3.824  24.898  0.00  0.00    +0.000 A 
ENDBRANCH  10  11
ENDBRANCH   1  10
TORSDOF 3
ENDMDL
MODEL 10
REMARK VINA RESULT:      -0.6      1.880      3.423
REMARK  Name = 45784082
REMARK  4 active torsions:
REMARK  status: ('A' for Active; 'I' for Inactive)
REMARK    1  A    between atoms: N_1  and  C_10
REMARK    2  A    between atoms: C_5  and  C_9
REMARK    3  A    between atoms: C_10  and  C_11
REMARK    4  A    between atoms: C_14  and  C_18
REMARK                            x       y       z     vdW  Elec       q    Type
REMARK                         _______ _______ _______ _____ _____    ______ ____
ROOT
ATOM      1  N   UNL     1      -2.758   3.917  25.824  0.00  0.00    -0.297 NA
ATOM      5  C   UNL     1      -0.539   3.253  25.453  0.00  0.00    +0.070 C 
ATOM      6  C   UNL     1      -0.747   4.680  24.914  0.00  0.00    +0.028 C 
ATOM      7  C   UNL     1      -1.959   2.702  25.651  0.00  0.00    +0.096 C 
ATOM      8  C   UNL     1      -2.258   4.845  24.810  0.00  0.00    +0.085 C 
ENDROOT
BRANCH   5   9
ATOM      2  N   UNL     1      -0.194   1.252  23.978  0.00  0.00    -0.340 N 
ATOM      3  N   UNL     1       1.598   2.532  24.313  0.00  0.00    -0.213 NA
ATOM      4  N   UNL     1       3.142   1.236  22.961  0.00  0.00    -0.234 NA
ATOM      9  C   UNL     1       0.322   2.366  24.585  0.00  0.00    +0.114 A 
ATOM     12  C   UNL     1       0.817   0.662  23.269  0.00  0.00    +0.085 A 
ATOM     13  C   UNL     1       1.920   1.478  23.495  0.00  0.00    +0.178 A 
ATOM     16  C   UNL     1       0.891  -0.473  22.469  0.00  0.00    +0.031 A 
ATOM     21  C   UNL     1       2.142  -0.734  21.913  0.00  0.00    +0.022 A 
ATOM     22  C   UNL     1       3.199   0.128  22.185  0.00  0.00    +0.113 A 
ATOM     23  H   UNL     1      -1.149   0.923  24.040  0.00  0.00    +0.167 HD
ENDBRANCH   5   9
BRANCH   1  10
ATOM     10  C   UNL     1      -4.186   3.666  25.689  0.00  0.00    +0.119 C 
BRANCH  10  11
ATOM     11  C   UNL     1      -4.465   2.290  25.146  0.00  0.00    -0.030 A 
ATOM     14  C   UNL     1      -5.551   1.544  25.604  0.00  0.00    -0.046 A 
ATOM     15  C   UNL     1      -3.618   1.762  24.172  0.00  0.00    +0.005 A 
ATOM     17  C   UNL     1      -5.791   0.271  25.087  0.00  0.00    +0.003 A 
ATOM     18  C   UNL     1      -6.472   2.088  26.646  0.00  0.00    +0.044 C 
ATOM     19  C   UNL     1      -3.857   0.489  23.655  0.00  0.00    +0.000 A 
ATOM     20  C   UNL     1      -4.943  -0.256  24.112  0.00  0.00    +0.000 A 
ENDBRANCH  10  11
ENDBRANCH   1  10
TORSDOF 3
ENDMDL
