MODEL 1
REMARK VINA RESULT:       0.8      0.000      0.000
REMARK  Name = 38030637
REMARK  13 active torsions:
REMARK  status: ('A' for Active; 'I' for Inactive)
REMARK    1  A    between atoms: O_2  and  C_25
REMARK    2  A    between atoms: N_3  and  C_12
REMARK    3  A    between atoms: N_4  and  C_24
REMARK    4  A    between atoms: C_7  and  C_11
REMARK    5  A    between atoms: C_8  and  C_12
REMARK    6  A    between atoms: C_10  and  C_15
REMARK    7  A    between atoms: C_11  and  C_18
REMARK    8  A    between atoms: C_11  and  C_19
REMARK    9  A    between atoms: C_14  and  C_22
REMARK   10  A    between atoms: C_15  and  C_23
REMARK   11  A    between atoms: C_24  and  C_25
REMARK   12  A    between atoms: C_26  and  C_27
REMARK   13  A    between atoms: C_32  and  C_33
REMARK                            x       y       z     vdW  Elec       q    Type
REMARK                         _______ _______ _______ _____ _____    ______ ____
ROOT
ATOM      7  C   UNL     1      -1.374   3.846  24.369  0.00  0.00    +0.000 C 
ATOM      8  C   UNL     1      -0.969   2.906  25.528  0.00  0.00    +0.029 C 
ATOM      9  C   UNL     1      -2.898   4.022  24.327  0.00  0.00    +0.012 C 
ATOM     10  C   UNL     1      -3.488   4.556  25.651  0.00  0.00    +0.024 C 
ATOM     13  C   UNL     1      -1.711   3.208  26.805  0.00  0.00    -0.023 C 
ATOM     14  C   UNL     1      -2.830   3.953  26.882  0.00  0.00    -0.073 C 
ATOM     22  C   UNL     1      -3.442   4.265  28.221  0.00  0.00    +0.039 C 
ENDROOT
BRANCH   7  11
ATOM     11  C   UNL     1      -0.660   5.200  24.471  0.00  0.00    -0.013 C 
ATOM     18  C   UNL     1       0.189   5.450  23.229  0.00  0.00    +0.007 C 
ATOM     19  C   UNL     1      -1.675   6.322  24.667  0.00  0.00    +0.007 C 
ENDBRANCH   7  11
BRANCH   8  12
ATOM     12  C   UNL     1      -1.177   1.432  25.163  0.00  0.00    +0.092 C 
BRANCH  12   3
ATOM      3  N   UNL     1       0.057   0.854  24.633  0.00  0.00    -0.299 NA
ATOM      4  N   UNL     1       1.949   0.326  22.511  0.00  0.00    -0.298 NA
ATOM     16  C   UNL     1      -0.237  -0.121  23.574  0.00  0.00    +0.100 C 
ATOM     17  C   UNL     1       0.951   1.903  24.129  0.00  0.00    +0.100 C 
ATOM     20  C   UNL     1       1.055  -0.725  23.015  0.00  0.00    +0.100 C 
ATOM     21  C   UNL     1       2.243   1.298  23.570  0.00  0.00    +0.100 C 
BRANCH   4  24
ATOM     24  C   UNL     1       3.181  -0.253  21.979  0.00  0.00    +0.112 C 
BRANCH  24  25
ATOM     25  C   UNL     1       4.365   0.096  22.865  0.00  0.00    +0.171 C 
BRANCH  25   2
ATOM      2  O   UNL     1       4.572  -0.963  23.791  0.00  0.00    -0.394 OA
ATOM     34  H   UNL     1       5.533  -1.092  23.868  0.00  0.00    +0.209 HD
ENDBRANCH  25   2
ENDBRANCH  24  25
ENDBRANCH   4  24
ENDBRANCH  12   3
ENDBRANCH   8  12
BRANCH  10  15
ATOM     15  C   UNL     1      -5.008   4.352  25.626  0.00  0.00    +0.105 C 
BRANCH  15  23
ATOM      1  O   UNL     1      -4.474   2.003  25.235  0.00  0.00    -0.420 OA
ATOM      5  N   UNL     1      -6.437   2.339  26.254  0.00  0.00    -0.112 NA
ATOM      6  N   UNL     1      -6.264   0.976  26.097  0.00  0.00    -0.107 NA
ATOM     23  C   UNL     1      -5.368   2.899  25.737  0.00  0.00    +0.218 A 
ATOM     26  C   UNL     1      -5.106   0.827  25.499  0.00  0.00    +0.248 A 
BRANCH  26  27
ATOM     27  C   UNL     1      -4.417  -0.362  25.087  0.00  0.00    +0.038 A 
ATOM     28  C   UNL     1      -4.692  -0.933  23.845  0.00  0.00    +0.013 A 
ATOM     29  C   UNL     1      -3.471  -0.946  25.929  0.00  0.00    +0.013 A 
ATOM     30  C   UNL     1      -4.022  -2.088  23.444  0.00  0.00    +0.004 A 
ATOM     31  C   UNL     1      -2.801  -2.103  25.529  0.00  0.00    +0.004 A 
ATOM     32  C   UNL     1      -3.077  -2.673  24.286  0.00  0.00    -0.050 A 
ATOM     33  C   UNL     1      -2.360  -3.910  23.858  0.00  0.00    +0.044 C 
ENDBRANCH  26  27
ENDBRANCH  15  23
ENDBRANCH  10  15
TORSDOF 9
ENDMDL
MODEL 2
REMARK VINA RESULT:       1.6      2.110      6.127
REMARK  Name = 38030637
REMARK  13 active torsions:
REMARK  status: ('A' for Active; 'I' for Inactive)
REMARK    1  A    between atoms: O_2  and  C_25
REMARK    2  A    between atoms: N_3  and  C_12
REMARK    3  A    between atoms: N_4  and  C_24
REMARK    4  A    between atoms: C_7  and  C_11
REMARK    5  A    between atoms: C_8  and  C_12
REMARK    6  A    between atoms: C_10  and  C_15
REMARK    7  A    between atoms: C_11  and  C_18
REMARK    8  A    between atoms: C_11  and  C_19
REMARK    9  A    between atoms: C_14  and  C_22
REMARK   10  A    between atoms: C_15  and  C_23
REMARK   11  A    between atoms: C_24  and  C_25
REMARK   12  A    between atoms: C_26  and  C_27
REMARK   13  A    between atoms: C_32  and  C_33
REMARK                            x       y       z     vdW  Elec       q    Type
REMARK                         _______ _______ _______ _____ _____    ______ ____
ROOT
ATOM      7  C   UNL     1      -2.644   3.134  25.691  0.00  0.00    +0.000 C 
ATOM      8  C   UNL     1      -4.153   3.196  25.358  0.00  0.00    +0.029 C 
ATOM      9  C   UNL     1      -1.907   2.241  24.683  0.00  0.00    +0.012 C 
ATOM     10  C   UNL     1      -2.092   2.690  23.218  0.00  0.00    +0.024 C 
ATOM     13  C   UNL     1      -4.414   3.376  23.885  0.00  0.00    -0.023 C 
ATOM     14  C   UNL     1      -3.504   3.167  22.915  0.00  0.00    -0.073 C 
ATOM     22  C   UNL     1      -3.845   3.461  21.479  0.00  0.00    +0.039 C 
ENDROOT
BRANCH   7  11
ATOM     11  C   UNL     1      -2.026   4.537  25.745  0.00  0.00    -0.013 C 
ATOM     18  C   UNL     1      -0.699   4.564  24.992  0.00  0.00    +0.007 C 
ATOM     19  C   UNL     1      -2.994   5.567  25.173  0.00  0.00    +0.007 C 
ENDBRANCH   7  11
BRANCH   8  12
ATOM     12  C   UNL     1      -4.894   1.948  25.851  0.00  0.00    +0.092 C 
BRANCH  12   3
ATOM      3  N   UNL     1      -4.237   0.734  25.368  0.00  0.00    -0.299 NA
ATOM      4  N   UNL     1      -4.150  -2.106  24.833  0.00  0.00    -0.298 NA
ATOM     16  C   UNL     1      -4.084  -0.242  26.455  0.00  0.00    +0.100 C 
ATOM     17  C   UNL     1      -4.986   0.145  24.252  0.00  0.00    +0.100 C 
ATOM     20  C   UNL     1      -3.400  -1.517  25.950  0.00  0.00    +0.100 C 
ATOM     21  C   UNL     1      -4.301  -1.130  23.748  0.00  0.00    +0.100 C 
BRANCH   4  24
ATOM     24  C   UNL     1      -3.495  -3.321  24.352  0.00  0.00    +0.112 C 
BRANCH  24  25
ATOM     25  C   UNL     1      -2.016  -3.308  24.700  0.00  0.00    +0.171 C 
BRANCH  25   2
ATOM      2  O   UNL     1      -1.269  -3.083  23.511  0.00  0.00    -0.394 OA
ATOM     34  H   UNL     1      -1.767  -2.439  22.978  0.00  0.00    +0.209 HD
ENDBRANCH  25   2
ENDBRANCH  24  25
ENDBRANCH   4  24
ENDBRANCH  12   3
ENDBRANCH   8  12
BRANCH  10  15
ATOM     15  C   UNL     1      -1.635   1.554  22.296  0.00  0.00    +0.105 C 
BRANCH  15  23
ATOM      1  O   UNL     1       0.673   0.865  22.691  0.00  0.00    -0.420 OA
ATOM      5  N   UNL     1      -0.844  -0.317  23.833  0.00  0.00    -0.112 NA
ATOM      6  N   UNL     1       0.409  -0.810  24.149  0.00  0.00    -0.107 NA
ATOM     23  C   UNL     1      -0.642   0.659  22.979  0.00  0.00    +0.218 A 
ATOM     26  C   UNL     1       1.262  -0.090  23.460  0.00  0.00    +0.248 A 
BRANCH  26  27
ATOM     27  C   UNL     1       2.694  -0.154  23.395  0.00  0.00    +0.038 A 
ATOM     28  C   UNL     1       3.420   0.938  22.919  0.00  0.00    +0.013 A 
ATOM     29  C   UNL     1       3.359  -1.308  23.807  0.00  0.00    +0.013 A 
ATOM     30  C   UNL     1       4.811   0.876  22.855  0.00  0.00    +0.004 A 
ATOM     31  C   UNL     1       4.752  -1.370  23.743  0.00  0.00    +0.004 A 
ATOM     32  C   UNL     1       5.477  -0.278  23.268  0.00  0.00    -0.050 A 
ATOM     33  C   UNL     1       6.966  -0.345  23.199  0.00  0.00    +0.044 C 
ENDBRANCH  26  27
ENDBRANCH  15  23
ENDBRANCH  10  15
TORSDOF 9
ENDMDL
MODEL 3
REMARK VINA RESULT:       3.7      1.326      5.198
REMARK  Name = 38030637
REMARK  13 active torsions:
REMARK  status: ('A' for Active; 'I' for Inactive)
REMARK    1  A    between atoms: O_2  and  C_25
REMARK    2  A    between atoms: N_3  and  C_12
REMARK    3  A    between atoms: N_4  and  C_24
REMARK    4  A    between atoms: C_7  and  C_11
REMARK    5  A    between atoms: C_8  and  C_12
REMARK    6  A    between atoms: C_10  and  C_15
REMARK    7  A    between atoms: C_11  and  C_18
REMARK    8  A    between atoms: C_11  and  C_19
REMARK    9  A    between atoms: C_14  and  C_22
REMARK   10  A    between atoms: C_15  and  C_23
REMARK   11  A    between atoms: C_24  and  C_25
REMARK   12  A    between atoms: C_26  and  C_27
REMARK   13  A    between atoms: C_32  and  C_33
REMARK                            x       y       z     vdW  Elec       q    Type
REMARK                         _______ _______ _______ _____ _____    ______ ____
ROOT
ATOM      7  C   UNL     1      -1.408  -0.430  25.437  0.00  0.00    +0.000 C 
ATOM      8  C   UNL     1      -1.279  -0.735  23.927  0.00  0.00    +0.029 C 
ATOM      9  C   UNL     1      -2.835   0.024  25.774  0.00  0.00    +0.012 C 
ATOM     10  C   UNL     1      -3.916  -0.999  25.363  0.00  0.00    +0.024 C 
ATOM     13  C   UNL     1      -2.448  -1.522  23.393  0.00  0.00    -0.023 C 
ATOM     14  C   UNL     1      -3.629  -1.662  24.025  0.00  0.00    -0.073 C 
ATOM     22  C   UNL     1      -4.700  -2.543  23.442  0.00  0.00    +0.039 C 
ENDROOT
BRANCH   7  11
ATOM     11  C   UNL     1      -0.994  -1.637  26.289  0.00  0.00    -0.013 C 
ATOM     18  C   UNL     1       0.136  -2.405  25.609  0.00  0.00    +0.007 C 
ATOM     19  C   UNL     1      -0.577  -1.185  27.685  0.00  0.00    +0.007 C 
ENDBRANCH   7  11
BRANCH   8  12
ATOM     12  C   UNL     1      -1.117   0.546  23.101  0.00  0.00    +0.092 C 
BRANCH  12   3
ATOM      3  N   UNL     1       0.283   0.742  22.726  0.00  0.00    -0.299 NA
ATOM      4  N   UNL     1       3.118   0.256  23.014  0.00  0.00    -0.298 NA
ATOM     16  C   UNL     1       1.046   1.319  23.841  0.00  0.00    +0.100 C 
ATOM     17  C   UNL     1       0.889  -0.522  22.290  0.00  0.00    +0.100 C 
ATOM     20  C   UNL     1       2.513   1.521  23.450  0.00  0.00    +0.100 C 
ATOM     21  C   UNL     1       2.356  -0.318  21.900  0.00  0.00    +0.100 C 
BRANCH   4  24
ATOM     24  C   UNL     1       4.518   0.452  22.642  0.00  0.00    +0.112 C 
BRANCH  24  25
ATOM     25  C   UNL     1       5.440   0.029  23.773  0.00  0.00    +0.171 C 
BRANCH  25   2
ATOM      2  O   UNL     1       5.019  -1.240  24.256  0.00  0.00    -0.394 OA
ATOM     34  H   UNL     1       4.082  -1.155  24.502  0.00  0.00    +0.209 HD
ENDBRANCH  25   2
ENDBRANCH  24  25
ENDBRANCH   4  24
ENDBRANCH  12   3
ENDBRANCH   8  12
BRANCH  10  15
ATOM     15  C   UNL     1      -5.284  -0.309  25.407  0.00  0.00    +0.105 C 
BRANCH  15  23
ATOM      1  O   UNL     1      -3.893   1.688  25.227  0.00  0.00    -0.420 OA
ATOM      5  N   UNL     1      -6.063   2.110  25.573  0.00  0.00    -0.112 NA
ATOM      6  N   UNL     1      -5.398   3.321  25.493  0.00  0.00    -0.107 NA
ATOM     23  C   UNL     1      -5.145   1.186  25.413  0.00  0.00    +0.218 A 
ATOM     26  C   UNL     1      -4.136   3.025  25.290  0.00  0.00    +0.248 A 
BRANCH  26  27
ATOM     27  C   UNL     1      -2.995   3.879  25.128  0.00  0.00    +0.038 A 
ATOM     28  C   UNL     1      -1.711   3.333  25.123  0.00  0.00    +0.013 A 
ATOM     29  C   UNL     1      -3.169   5.254  24.975  0.00  0.00    +0.013 A 
ATOM     30  C   UNL     1      -0.602   4.163  24.964  0.00  0.00    +0.004 A 
ATOM     31  C   UNL     1      -2.059   6.084  24.817  0.00  0.00    +0.004 A 
ATOM     32  C   UNL     1      -0.775   5.538  24.812  0.00  0.00    -0.050 A 
ATOM     33  C   UNL     1       0.412   6.426  24.643  0.00  0.00    +0.044 C 
ENDBRANCH  26  27
ENDBRANCH  15  23
ENDBRANCH  10  15
TORSDOF 9
ENDMDL
MODEL 4
REMARK VINA RESULT:       4.2      1.940      7.586
REMARK  Name = 38030637
REMARK  13 active torsions:
REMARK  status: ('A' for Active; 'I' for Inactive)
REMARK    1  A    between atoms: O_2  and  C_25
REMARK    2  A    between atoms: N_3  and  C_12
REMARK    3  A    between atoms: N_4  and  C_24
REMARK    4  A    between atoms: C_7  and  C_11
REMARK    5  A    between atoms: C_8  and  C_12
REMARK    6  A    between atoms: C_10  and  C_15
REMARK    7  A    between atoms: C_11  and  C_18
REMARK    8  A    between atoms: C_11  and  C_19
REMARK    9  A    between atoms: C_14  and  C_22
REMARK   10  A    between atoms: C_15  and  C_23
REMARK   11  A    between atoms: C_24  and  C_25
REMARK   12  A    between atoms: C_26  and  C_27
REMARK   13  A    between atoms: C_32  and  C_33
REMARK                            x       y       z     vdW  Elec       q    Type
REMARK                         _______ _______ _______ _____ _____    ______ ____
ROOT
ATOM      7  C   UNL     1      -4.284  -1.046  23.774  0.00  0.00    +0.000 C 
ATOM      8  C   UNL     1      -4.626  -0.698  25.241  0.00  0.00    +0.029 C 
ATOM      9  C   UNL     1      -3.092  -0.212  23.286  0.00  0.00    +0.012 C 
ATOM     10  C   UNL     1      -1.830  -0.379  24.161  0.00  0.00    +0.024 C 
ATOM     13  C   UNL     1      -3.400  -0.587  26.110  0.00  0.00    -0.023 C 
ATOM     14  C   UNL     1      -2.142  -0.456  25.648  0.00  0.00    -0.073 C 
ATOM     22  C   UNL     1      -0.981  -0.441  26.603  0.00  0.00    +0.039 C 
ENDROOT
BRANCH   7  11
ATOM     11  C   UNL     1      -4.018  -2.548  23.603  0.00  0.00    -0.013 C 
ATOM     18  C   UNL     1      -3.518  -3.152  24.912  0.00  0.00    +0.007 C 
ATOM     19  C   UNL     1      -5.280  -3.260  23.126  0.00  0.00    +0.007 C 
ENDBRANCH   7  11
BRANCH   8  12
ATOM     12  C   UNL     1      -5.433   0.600  25.342  0.00  0.00    +0.092 C 
BRANCH  12   3
ATOM      3  N   UNL     1      -4.545   1.762  25.327  0.00  0.00    -0.299 NA
ATOM      4  N   UNL     1      -3.907   4.506  24.675  0.00  0.00    -0.298 NA
ATOM     16  C   UNL     1      -4.240   2.167  23.949  0.00  0.00    +0.100 C 
ATOM     17  C   UNL     1      -5.138   2.881  26.070  0.00  0.00    +0.100 C 
ATOM     20  C   UNL     1      -3.314   3.387  23.931  0.00  0.00    +0.100 C 
ATOM     21  C   UNL     1      -4.210   4.100  26.053  0.00  0.00    +0.100 C 
BRANCH   4  24
ATOM     24  C   UNL     1      -3.021   5.668  24.658  0.00  0.00    +0.112 C 
BRANCH  24  25
ATOM     25  C   UNL     1      -1.710   5.355  25.362  0.00  0.00    +0.171 C 
BRANCH  25   2
ATOM      2  O   UNL     1      -0.668   5.325  24.395  0.00  0.00    -0.394 OA
ATOM     34  H   UNL     1      -0.959   5.871  23.645  0.00  0.00    +0.209 HD
ENDBRANCH  25   2
ENDBRANCH  24  25
ENDBRANCH   4  24
ENDBRANCH  12   3
ENDBRANCH   8  12
BRANCH  10  15
ATOM     15  C   UNL     1      -0.844   0.743  23.816  0.00  0.00    +0.105 C 
BRANCH  15  23
ATOM      1  O   UNL     1       1.562   0.352  23.677  0.00  0.00    -0.420 OA
ATOM      5  N   UNL     1       0.412  -0.376  21.902  0.00  0.00    -0.112 NA
ATOM      6  N   UNL     1       1.749  -0.659  21.691  0.00  0.00    -0.107 NA
ATOM     23  C   UNL     1       0.349   0.214  23.073  0.00  0.00    +0.218 A 
ATOM     26  C   UNL     1       2.382  -0.217  22.753  0.00  0.00    +0.248 A 
BRANCH  26  27
ATOM     27  C   UNL     1       3.777  -0.241  23.081  0.00  0.00    +0.038 A 
ATOM     28  C   UNL     1       4.344  -1.388  23.637  0.00  0.00    +0.013 A 
ATOM     29  C   UNL     1       4.569   0.883  22.845  0.00  0.00    +0.013 A 
ATOM     30  C   UNL     1       5.701  -1.412  23.955  0.00  0.00    +0.004 A 
ATOM     31  C   UNL     1       5.927   0.860  23.164  0.00  0.00    +0.004 A 
ATOM     32  C   UNL     1       6.492  -0.288  23.719  0.00  0.00    -0.050 A 
ATOM     33  C   UNL     1       7.944  -0.313  24.061  0.00  0.00    +0.044 C 
ENDBRANCH  26  27
ENDBRANCH  15  23
ENDBRANCH  10  15
TORSDOF 9
ENDMDL
MODEL 5
REMARK VINA RESULT:       4.4      2.540      5.394
REMARK  Name = 38030637
REMARK  13 active torsions:
REMARK  status: ('A' for Active; 'I' for Inactive)
REMARK    1  A    between atoms: O_2  and  C_25
REMARK    2  A    between atoms: N_3  and  C_12
REMARK    3  A    between atoms: N_4  and  C_24
REMARK    4  A    between atoms: C_7  and  C_11
REMARK    5  A    between atoms: C_8  and  C_12
REMARK    6  A    between atoms: C_10  and  C_15
REMARK    7  A    between atoms: C_11  and  C_18
REMARK    8  A    between atoms: C_11  and  C_19
REMARK    9  A    between atoms: C_14  and  C_22
REMARK   10  A    between atoms: C_15  and  C_23
REMARK   11  A    between atoms: C_24  and  C_25
REMARK   12  A    between atoms: C_26  and  C_27
REMARK   13  A    between atoms: C_32  and  C_33
REMARK                            x       y       z     vdW  Elec       q    Type
REMARK                         _______ _______ _______ _____ _____    ______ ____
ROOT
ATOM      7  C   UNL     1      -4.694   1.977  26.035  0.00  0.00    +0.000 C 
ATOM      8  C   UNL     1      -4.226   0.843  25.094  0.00  0.00    +0.029 C 
ATOM      9  C   UNL     1      -3.776   3.200  25.902  0.00  0.00    +0.012 C 
ATOM     10  C   UNL     1      -3.678   3.738  24.459  0.00  0.00    +0.024 C 
ATOM     13  C   UNL     1      -3.860   1.344  23.720  0.00  0.00    -0.023 C 
ATOM     14  C   UNL     1      -3.623   2.634  23.414  0.00  0.00    -0.073 C 
ATOM     22  C   UNL     1      -3.350   3.037  21.990  0.00  0.00    +0.039 C 
ENDROOT
BRANCH   7  11
ATOM     11  C   UNL     1      -6.158   2.351  25.773  0.00  0.00    -0.013 C 
ATOM     18  C   UNL     1      -6.291   3.853  25.539  0.00  0.00    +0.007 C 
ATOM     19  C   UNL     1      -6.703   1.568  24.583  0.00  0.00    +0.007 C 
ENDBRANCH   7  11
BRANCH   8  12
ATOM     12  C   UNL     1      -3.038   0.073  25.681  0.00  0.00    +0.092 C 
BRANCH  12   3
ATOM      3  N   UNL     1      -2.085  -0.283  24.631  0.00  0.00    -0.299 NA
ATOM      4  N   UNL     1       0.523  -0.196  23.385  0.00  0.00    -0.298 NA
ATOM     16  C   UNL     1      -1.617   0.917  23.923  0.00  0.00    +0.100 C 
ATOM     17  C   UNL     1      -0.947  -1.024  25.189  0.00  0.00    +0.100 C 
ATOM     20  C   UNL     1      -0.614   0.546  22.826  0.00  0.00    +0.100 C 
ATOM     21  C   UNL     1       0.055  -1.394  24.090  0.00  0.00    +0.100 C 
BRANCH   4  24
ATOM     24  C   UNL     1       1.478  -0.548  22.336  0.00  0.00    +0.112 C 
BRANCH  24  25
ATOM     25  C   UNL     1       2.788   0.197  22.529  0.00  0.00    +0.171 C 
BRANCH  25   2
ATOM      2  O   UNL     1       2.558   1.313  23.378  0.00  0.00    -0.394 OA
ATOM     34  H   UNL     1       2.832   2.107  22.887  0.00  0.00    +0.209 HD
ENDBRANCH  25   2
ENDBRANCH  24  25
ENDBRANCH   4  24
ENDBRANCH  12   3
ENDBRANCH   8  12
BRANCH  10  15
ATOM     15  C   UNL     1      -2.487   4.699  24.374  0.00  0.00    +0.105 C 
BRANCH  15  23
ATOM      1  O   UNL     1      -0.988   3.836  26.095  0.00  0.00    -0.420 OA
ATOM      5  N   UNL     1      -0.236   3.565  24.006  0.00  0.00    -0.112 NA
ATOM      6  N   UNL     1       0.704   3.035  24.871  0.00  0.00    -0.107 NA
ATOM     23  C   UNL     1      -1.206   4.020  24.764  0.00  0.00    +0.218 A 
ATOM     26  C   UNL     1       0.223   3.215  26.079  0.00  0.00    +0.248 A 
BRANCH  26  27
ATOM     27  C   UNL     1       0.767   2.866  27.359  0.00  0.00    +0.038 A 
ATOM     28  C   UNL     1      -0.056   2.313  28.339  0.00  0.00    +0.013 A 
ATOM     29  C   UNL     1       2.120   3.078  27.623  0.00  0.00    +0.013 A 
ATOM     30  C   UNL     1       0.473   1.972  29.583  0.00  0.00    +0.004 A 
ATOM     31  C   UNL     1       2.650   2.738  28.868  0.00  0.00    +0.004 A 
ATOM     32  C   UNL     1       1.825   2.184  29.847  0.00  0.00    -0.050 A 
ATOM     33  C   UNL     1       2.392   1.821  31.179  0.00  0.00    +0.044 C 
ENDBRANCH  26  27
ENDBRANCH  15  23
ENDBRANCH  10  15
TORSDOF 9
ENDMDL
