MODEL 1
REMARK VINA RESULT:       4.4      0.000      0.000
REMARK  Name = 11911834
REMARK  9 active torsions:
REMARK  status: ('A' for Active; 'I' for Inactive)
REMARK    1  A    between atoms: O_4  and  C_18
REMARK    2  A    between atoms: O_4  and  C_23
REMARK    3  A    between atoms: N_5  and  C_12
REMARK    4  A    between atoms: N_6  and  C_13
REMARK    5  A    between atoms: N_9  and  C_30
REMARK    6  A    between atoms: N_9  and  C_34
REMARK    7  A    between atoms: N_9  and  C_35
REMARK    8  A    between atoms: C_16  and  C_18
REMARK    9  A    between atoms: C_19  and  C_22
REMARK                            x       y       z     vdW  Elec       q    Type
REMARK                         _______ _______ _______ _____ _____    ______ ____
ROOT
ATOM      1  O   UNL     1      -3.553   3.033  23.491  0.00  0.00    -0.370 OA
ATOM      2  O   UNL     1      -5.416   2.611  25.959  0.00  0.00    -0.370 OA
ATOM     10  C   UNL     1      -4.002   2.452  25.754  0.00  0.00    +0.171 C 
ATOM     11  C   UNL     1      -3.807   1.910  24.352  0.00  0.00    +0.171 C 
ATOM     12  C   UNL     1      -3.319   3.802  25.725  0.00  0.00    +0.130 C 
ATOM     13  C   UNL     1      -5.138   1.280  24.012  0.00  0.00    +0.130 C 
ATOM     14  C   UNL     1      -3.511   4.231  24.281  0.00  0.00    +0.185 C 
ATOM     15  C   UNL     1      -6.118   2.123  24.806  0.00  0.00    +0.185 C 
ENDROOT
BRANCH  13   6
ATOM      6  N   UNL     1      -5.169  -0.091  24.472  0.00  0.00    -0.306 N 
ATOM      7  N   UNL     1      -2.871  -0.325  24.222  0.00  0.00    -0.214 NA
ATOM      8  N   UNL     1      -4.234  -2.144  25.024  0.00  0.00    -0.223 NA
ATOM     17  C   UNL     1      -4.042  -0.888  24.578  0.00  0.00    +0.216 A 
ATOM     19  C   UNL     1      -1.795  -1.130  24.338  0.00  0.00    +0.076 A 
ATOM     20  C   UNL     1      -3.115  -2.893  25.115  0.00  0.00    +0.116 A 
ATOM     21  C   UNL     1      -1.857  -2.435  24.782  0.00  0.00    +0.048 A 
ATOM     37  H   UNL     1      -6.045  -0.491  24.787  0.00  0.00    +0.149 HD
BRANCH  19  22
ATOM     22  C   UNL     1      -0.538  -0.531  23.959  0.00  0.00    +0.001 A 
ATOM     24  C   UNL     1      -0.256   0.787  24.320  0.00  0.00    +0.012 A 
ATOM     25  C   UNL     1       0.396  -1.269  23.233  0.00  0.00    +0.012 A 
ATOM     26  C   UNL     1       0.958   1.366  23.956  0.00  0.00    +0.024 A 
ATOM     27  C   UNL     1       1.612  -0.691  22.868  0.00  0.00    +0.024 A 
ATOM     30  C   UNL     1       1.894   0.627  23.230  0.00  0.00    +0.029 A 
BRANCH  30   9
ATOM      9  N   UNL     1       3.122   1.213  22.860  0.00  0.00    -0.336 N 
ATOM     34  C   UNL     1       4.344   0.432  22.881  0.00  0.00    +0.129 C 
ATOM     35  C   UNL     1       3.181   2.607  22.469  0.00  0.00    +0.129 C 
ENDBRANCH  30   9
ENDBRANCH  19  22
ENDBRANCH  13   6
BRANCH  12   5
ATOM      3  O   UNL     1      -1.091   5.103  24.407  0.00  0.00    -0.272 OA
ATOM      5  N   UNL     1      -1.920   3.686  26.055  0.00  0.00    -0.305 N 
ATOM     16  C   UNL     1      -0.918   4.351  25.362  0.00  0.00    +0.251 C 
ATOM     36  H   UNL     1      -1.666   3.129  26.867  0.00  0.00    +0.149 HD
BRANCH  16  18
ATOM     18  C   UNL     1       0.452   4.045  25.925  0.00  0.00    +0.324 C 
BRANCH  18   4
ATOM      4  O   UNL     1       0.465   2.775  26.542  0.00  0.00    -0.483 OA
BRANCH   4  23
ATOM     23  C   UNL     1       1.055   2.684  27.781  0.00  0.00    +0.121 A 
ATOM     28  C   UNL     1       0.277   2.405  28.905  0.00  0.00    +0.045 A 
ATOM     29  C   UNL     1       2.430   2.873  27.915  0.00  0.00    +0.045 A 
ATOM     31  C   UNL     1       0.876   2.314  30.162  0.00  0.00    +0.004 A 
ATOM     32  C   UNL     1       3.029   2.782  29.171  0.00  0.00    +0.004 A 
ATOM     33  C   UNL     1       2.251   2.502  30.295  0.00  0.00    +0.000 A 
ENDBRANCH   4  23
ENDBRANCH  18   4
ENDBRANCH  16  18
ENDBRANCH  12   5
TORSDOF 7
ENDMDL
MODEL 2
REMARK VINA RESULT:       5.2      2.213      5.541
REMARK  Name = 11911834
REMARK  9 active torsions:
REMARK  status: ('A' for Active; 'I' for Inactive)
REMARK    1  A    between atoms: O_4  and  C_18
REMARK    2  A    between atoms: O_4  and  C_23
REMARK    3  A    between atoms: N_5  and  C_12
REMARK    4  A    between atoms: N_6  and  C_13
REMARK    5  A    between atoms: N_9  and  C_30
REMARK    6  A    between atoms: N_9  and  C_34
REMARK    7  A    between atoms: N_9  and  C_35
REMARK    8  A    between atoms: C_16  and  C_18
REMARK    9  A    between atoms: C_19  and  C_22
REMARK                            x       y       z     vdW  Elec       q    Type
REMARK                         _______ _______ _______ _____ _____    ______ ____
ROOT
ATOM      1  O   UNL     1      -2.729  -1.384  25.986  0.00  0.00    -0.370 OA
ATOM      2  O   UNL     1      -3.890  -1.323  23.090  0.00  0.00    -0.370 OA
ATOM     10  C   UNL     1      -2.742  -0.712  23.704  0.00  0.00    +0.171 C 
ATOM     11  C   UNL     1      -3.140  -0.319  25.113  0.00  0.00    +0.171 C 
ATOM     12  C   UNL     1      -1.646  -1.735  23.903  0.00  0.00    +0.130 C 
ATOM     13  C   UNL     1      -4.648  -0.236  25.061  0.00  0.00    +0.130 C 
ATOM     14  C   UNL     1      -2.042  -2.383  25.217  0.00  0.00    +0.185 C 
ATOM     15  C   UNL     1      -5.001  -1.258  23.997  0.00  0.00    +0.185 C 
ENDROOT
BRANCH  13   6
ATOM      6  N   UNL     1      -5.057   1.086  24.642  0.00  0.00    -0.306 N 
ATOM      7  N   UNL     1      -3.221   2.080  25.660  0.00  0.00    -0.214 NA
ATOM      8  N   UNL     1      -4.857   3.394  24.475  0.00  0.00    -0.223 NA
ATOM     17  C   UNL     1      -4.347   2.237  24.938  0.00  0.00    +0.216 A 
ATOM     19  C   UNL     1      -2.555   3.221  25.931  0.00  0.00    +0.076 A 
ATOM     20  C   UNL     1      -4.140   4.495  24.782  0.00  0.00    +0.116 A 
ATOM     21  C   UNL     1      -2.971   4.470  25.514  0.00  0.00    +0.048 A 
ATOM     37  H   UNL     1      -5.876   1.191  24.055  0.00  0.00    +0.149 HD
BRANCH  19  22
ATOM     22  C   UNL     1      -1.347   3.058  26.703  0.00  0.00    +0.001 A 
ATOM     24  C   UNL     1      -0.127   2.856  26.056  0.00  0.00    +0.012 A 
ATOM     25  C   UNL     1      -1.398   3.101  28.096  0.00  0.00    +0.012 A 
ATOM     26  C   UNL     1       1.040   2.699  26.801  0.00  0.00    +0.024 A 
ATOM     27  C   UNL     1      -0.230   2.944  28.842  0.00  0.00    +0.024 A 
ATOM     30  C   UNL     1       0.989   2.744  28.195  0.00  0.00    +0.029 A 
BRANCH  30   9
ATOM      9  N   UNL     1       2.171   2.584  28.950  0.00  0.00    -0.336 N 
ATOM     34  C   UNL     1       2.137   1.909  30.233  0.00  0.00    +0.129 C 
ATOM     35  C   UNL     1       3.431   3.105  28.458  0.00  0.00    +0.129 C 
ENDBRANCH  30   9
ENDBRANCH  19  22
ENDBRANCH  13   6
BRANCH  12   5
ATOM      3  O   UNL     1      -0.927   0.930  23.025  0.00  0.00    -0.272 OA
ATOM      5  N   UNL     1      -0.353  -1.102  24.000  0.00  0.00    -0.305 N 
ATOM     16  C   UNL     1      -0.103   0.186  23.549  0.00  0.00    +0.251 C 
ATOM     36  H   UNL     1       0.392  -1.610  24.470  0.00  0.00    +0.149 HD
BRANCH  16  18
ATOM     18  C   UNL     1       1.337   0.591  23.779  0.00  0.00    +0.324 C 
BRANCH  18   4
ATOM      4  O   UNL     1       2.183  -0.009  22.821  0.00  0.00    -0.483 OA
BRANCH   4  23
ATOM     23  C   UNL     1       3.497  -0.199  23.175  0.00  0.00    +0.121 A 
ATOM     28  C   UNL     1       3.913  -1.431  23.679  0.00  0.00    +0.045 A 
ATOM     29  C   UNL     1       4.416   0.841  23.031  0.00  0.00    +0.045 A 
ATOM     31  C   UNL     1       5.247  -1.623  24.039  0.00  0.00    +0.004 A 
ATOM     32  C   UNL     1       5.750   0.649  23.391  0.00  0.00    +0.004 A 
ATOM     33  C   UNL     1       6.165  -0.583  23.895  0.00  0.00    +0.000 A 
ENDBRANCH   4  23
ENDBRANCH  18   4
ENDBRANCH  16  18
ENDBRANCH  12   5
TORSDOF 7
ENDMDL
MODEL 3
REMARK VINA RESULT:       6.3      2.510      5.043
REMARK  Name = 11911834
REMARK  9 active torsions:
REMARK  status: ('A' for Active; 'I' for Inactive)
REMARK    1  A    between atoms: O_4  and  C_18
REMARK    2  A    between atoms: O_4  and  C_23
REMARK    3  A    between atoms: N_5  and  C_12
REMARK    4  A    between atoms: N_6  and  C_13
REMARK    5  A    between atoms: N_9  and  C_30
REMARK    6  A    between atoms: N_9  and  C_34
REMARK    7  A    between atoms: N_9  and  C_35
REMARK    8  A    between atoms: C_16  and  C_18
REMARK    9  A    between atoms: C_19  and  C_22
REMARK                            x       y       z     vdW  Elec       q    Type
REMARK                         _______ _______ _______ _____ _____    ______ ____
ROOT
ATOM      1  O   UNL     1      -1.175   4.500  24.547  0.00  0.00    -0.370 OA
ATOM      2  O   UNL     1      -2.462   3.516  27.214  0.00  0.00    -0.370 OA
ATOM     10  C   UNL     1      -2.251   2.895  25.934  0.00  0.00    +0.171 C 
ATOM     11  C   UNL     1      -2.465   3.959  24.876  0.00  0.00    +0.171 C 
ATOM     12  C   UNL     1      -0.799   2.503  25.773  0.00  0.00    +0.130 C 
ATOM     13  C   UNL     1      -3.310   5.003  25.568  0.00  0.00    +0.130 C 
ATOM     14  C   UNL     1      -0.167   3.794  25.286  0.00  0.00    +0.185 C 
ATOM     15  C   UNL     1      -2.877   4.875  27.016  0.00  0.00    +0.185 C 
ENDROOT
BRANCH  13   6
ATOM      6  N   UNL     1      -4.713   4.674  25.433  0.00  0.00    -0.306 N 
ATOM      7  N   UNL     1      -4.251   2.414  25.158  0.00  0.00    -0.214 NA
ATOM      8  N   UNL     1      -6.515   3.242  25.127  0.00  0.00    -0.223 NA
ATOM     17  C   UNL     1      -5.180   3.387  25.231  0.00  0.00    +0.216 A 
ATOM     19  C   UNL     1      -4.743   1.173  24.960  0.00  0.00    +0.076 A 
ATOM     20  C   UNL     1      -6.936   1.975  24.931  0.00  0.00    +0.116 A 
ATOM     21  C   UNL     1      -6.088   0.890  24.838  0.00  0.00    +0.048 A 
ATOM     37  H   UNL     1      -5.408   5.403  25.542  0.00  0.00    +0.149 HD
BRANCH  19  22
ATOM     22  C   UNL     1      -3.751   0.127  24.882  0.00  0.00    +0.001 A 
ATOM     24  C   UNL     1      -3.218  -0.418  26.051  0.00  0.00    +0.012 A 
ATOM     25  C   UNL     1      -3.326  -0.340  23.639  0.00  0.00    +0.012 A 
ATOM     26  C   UNL     1      -2.261  -1.429  25.976  0.00  0.00    +0.024 A 
ATOM     27  C   UNL     1      -2.369  -1.352  23.563  0.00  0.00    +0.024 A 
ATOM     30  C   UNL     1      -1.837  -1.897  24.732  0.00  0.00    +0.029 A 
BRANCH  30   9
ATOM      9  N   UNL     1      -0.868  -2.920  24.656  0.00  0.00    -0.336 N 
ATOM     34  C   UNL     1       0.310  -2.880  25.500  0.00  0.00    +0.129 C 
ATOM     35  C   UNL     1      -1.032  -4.017  23.722  0.00  0.00    +0.129 C 
ENDBRANCH  30   9
ENDBRANCH  19  22
ENDBRANCH  13   6
BRANCH  12   5
ATOM      3  O   UNL     1       1.510   1.963  24.110  0.00  0.00    -0.272 OA
ATOM      5  N   UNL     1      -0.649   1.446  24.802  0.00  0.00    -0.305 N 
ATOM     16  C   UNL     1       0.501   1.266  24.048  0.00  0.00    +0.251 C 
ATOM     36  H   UNL     1      -1.406   0.775  24.708  0.00  0.00    +0.149 HD
BRANCH  16  18
ATOM     18  C   UNL     1       0.379   0.084  23.112  0.00  0.00    +0.324 C 
BRANCH  18   4
ATOM      4  O   UNL     1       1.457   0.056  22.200  0.00  0.00    -0.483 OA
BRANCH   4  23
ATOM     23  C   UNL     1       2.718  -0.103  22.723  0.00  0.00    +0.121 A 
ATOM     28  C   UNL     1       3.658   0.920  22.600  0.00  0.00    +0.045 A 
ATOM     29  C   UNL     1       3.059  -1.289  23.375  0.00  0.00    +0.045 A 
ATOM     31  C   UNL     1       4.939   0.757  23.130  0.00  0.00    +0.004 A 
ATOM     32  C   UNL     1       4.339  -1.451  23.905  0.00  0.00    +0.004 A 
ATOM     33  C   UNL     1       5.278  -0.427  23.782  0.00  0.00    +0.000 A 
ENDBRANCH   4  23
ENDBRANCH  18   4
ENDBRANCH  16  18
ENDBRANCH  12   5
TORSDOF 7
ENDMDL
MODEL 4
REMARK VINA RESULT:       6.7      1.064      1.669
REMARK  Name = 11911834
REMARK  9 active torsions:
REMARK  status: ('A' for Active; 'I' for Inactive)
REMARK    1  A    between atoms: O_4  and  C_18
REMARK    2  A    between atoms: O_4  and  C_23
REMARK    3  A    between atoms: N_5  and  C_12
REMARK    4  A    between atoms: N_6  and  C_13
REMARK    5  A    between atoms: N_9  and  C_30
REMARK    6  A    between atoms: N_9  and  C_34
REMARK    7  A    between atoms: N_9  and  C_35
REMARK    8  A    between atoms: C_16  and  C_18
REMARK    9  A    between atoms: C_19  and  C_22
REMARK                            x       y       z     vdW  Elec       q    Type
REMARK                         _______ _______ _______ _____ _____    ______ ____
ROOT
ATOM      1  O   UNL     1      -2.762   3.718  23.516  0.00  0.00    -0.370 OA
ATOM      2  O   UNL     1      -4.444   3.560  26.140  0.00  0.00    -0.370 OA
ATOM     10  C   UNL     1      -3.135   3.087  25.779  0.00  0.00    +0.171 C 
ATOM     11  C   UNL     1      -3.204   2.624  24.337  0.00  0.00    +0.171 C 
ATOM     12  C   UNL     1      -2.150   4.235  25.750  0.00  0.00    +0.130 C 
ATOM     13  C   UNL     1      -4.673   2.356  24.106  0.00  0.00    +0.130 C 
ATOM     14  C   UNL     1      -2.360   4.807  24.360  0.00  0.00    +0.185 C 
ATOM     15  C   UNL     1      -5.343   3.343  25.043  0.00  0.00    +0.185 C 
ENDROOT
BRANCH  13   6
ATOM      6  N   UNL     1      -4.996   1.000  24.493  0.00  0.00    -0.306 N 
ATOM      7  N   UNL     1      -2.798   0.300  24.221  0.00  0.00    -0.214 NA
ATOM      8  N   UNL     1      -4.519  -1.230  24.930  0.00  0.00    -0.223 NA
ATOM     17  C   UNL     1      -4.064  -0.021  24.551  0.00  0.00    +0.216 A 
ATOM     19  C   UNL     1      -1.916  -0.719  24.288  0.00  0.00    +0.076 A 
ATOM     20  C   UNL     1      -3.584  -2.202  24.976  0.00  0.00    +0.116 A 
ATOM     21  C   UNL     1      -2.255  -2.003  24.663  0.00  0.00    +0.048 A 
ATOM     37  H   UNL     1      -5.939   0.778  24.790  0.00  0.00    +0.149 HD
BRANCH  19  22
ATOM     22  C   UNL     1      -0.558  -0.379  23.936  0.00  0.00    +0.001 A 
ATOM     24  C   UNL     1       0.447  -1.343  24.021  0.00  0.00    +0.012 A 
ATOM     25  C   UNL     1      -0.251   0.913  23.512  0.00  0.00    +0.012 A 
ATOM     26  C   UNL     1       1.758  -1.015  23.680  0.00  0.00    +0.024 A 
ATOM     27  C   UNL     1       1.061   1.242  23.171  0.00  0.00    +0.024 A 
ATOM     30  C   UNL     1       2.066   0.278  23.254  0.00  0.00    +0.029 A 
BRANCH  30   9
ATOM      9  N   UNL     1       3.393   0.610  22.911  0.00  0.00    -0.336 N 
ATOM     34  C   UNL     1       4.451  -0.374  23.031  0.00  0.00    +0.129 C 
ATOM     35  C   UNL     1       3.718   1.944  22.446  0.00  0.00    +0.129 C 
ENDBRANCH  30   9
ENDBRANCH  19  22
ENDBRANCH  13   6
BRANCH  12   5
ATOM      3  O   UNL     1      -1.304   1.625  26.683  0.00  0.00    -0.272 OA
ATOM      5  N   UNL     1      -0.797   3.765  25.924  0.00  0.00    -0.305 N 
ATOM     16  C   UNL     1      -0.488   2.491  26.380  0.00  0.00    +0.251 C 
ATOM     36  H   UNL     1      -0.039   4.384  25.650  0.00  0.00    +0.149 HD
BRANCH  16  18
ATOM     18  C   UNL     1       1.007   2.274  26.465  0.00  0.00    +0.324 C 
BRANCH  18   4
ATOM      4  O   UNL     1       1.586   3.151  27.407  0.00  0.00    -0.483 OA
BRANCH   4  23
ATOM     23  C   UNL     1       1.600   2.742  28.720  0.00  0.00    +0.121 A 
ATOM     28  C   UNL     1       2.730   2.115  29.244  0.00  0.00    +0.045 A 
ATOM     29  C   UNL     1       0.483   2.954  29.528  0.00  0.00    +0.045 A 
ATOM     31  C   UNL     1       2.743   1.699  30.575  0.00  0.00    +0.004 A 
ATOM     32  C   UNL     1       0.496   2.539  30.860  0.00  0.00    +0.004 A 
ATOM     33  C   UNL     1       1.627   1.912  31.383  0.00  0.00    +0.000 A 
ENDBRANCH   4  23
ENDBRANCH  18   4
ENDBRANCH  16  18
ENDBRANCH  12   5
TORSDOF 7
ENDMDL
MODEL 5
REMARK VINA RESULT:       8.4      2.664      5.602
REMARK  Name = 11911834
REMARK  9 active torsions:
REMARK  status: ('A' for Active; 'I' for Inactive)
REMARK    1  A    between atoms: O_4  and  C_18
REMARK    2  A    between atoms: O_4  and  C_23
REMARK    3  A    between atoms: N_5  and  C_12
REMARK    4  A    between atoms: N_6  and  C_13
REMARK    5  A    between atoms: N_9  and  C_30
REMARK    6  A    between atoms: N_9  and  C_34
REMARK    7  A    between atoms: N_9  and  C_35
REMARK    8  A    between atoms: C_16  and  C_18
REMARK    9  A    between atoms: C_19  and  C_22
REMARK                            x       y       z     vdW  Elec       q    Type
REMARK                         _______ _______ _______ _____ _____    ______ ____
ROOT
ATOM      1  O   UNL     1      -1.398   3.181  23.287  0.00  0.00    -0.370 OA
ATOM      2  O   UNL     1      -1.197   5.142  25.707  0.00  0.00    -0.370 OA
ATOM     10  C   UNL     1      -1.354   3.717  25.604  0.00  0.00    +0.171 C 
ATOM     11  C   UNL     1      -2.252   3.446  24.413  0.00  0.00    +0.171 C 
ATOM     12  C   UNL     1      -0.041   3.067  25.231  0.00  0.00    +0.130 C 
ATOM     13  C   UNL     1      -2.998   4.744  24.211  0.00  0.00    +0.130 C 
ATOM     14  C   UNL     1      -0.030   3.205  23.719  0.00  0.00    +0.185 C 
ATOM     15  C   UNL     1      -2.006   5.779  24.707  0.00  0.00    +0.185 C 
ENDROOT
BRANCH  13   6
ATOM      6  N   UNL     1      -4.192   4.761  25.028  0.00  0.00    -0.306 N 
ATOM      7  N   UNL     1      -4.341   2.443  25.025  0.00  0.00    -0.214 NA
ATOM      8  N   UNL     1      -5.954   3.799  26.194  0.00  0.00    -0.223 NA
ATOM     17  C   UNL     1      -4.858   3.618  25.433  0.00  0.00    +0.216 A 
ATOM     19  C   UNL     1      -5.016   1.351  25.438  0.00  0.00    +0.076 A 
ATOM     20  C   UNL     1      -6.579   2.664  26.571  0.00  0.00    +0.116 A 
ATOM     21  C   UNL     1      -6.152   1.400  26.220  0.00  0.00    +0.048 A 
ATOM     37  H   UNL     1      -4.544   5.645  25.376  0.00  0.00    +0.149 HD
BRANCH  19  22
ATOM     22  C   UNL     1      -4.464   0.089  25.003  0.00  0.00    +0.001 A 
ATOM     24  C   UNL     1      -4.448  -0.235  23.646  0.00  0.00    +0.012 A 
ATOM     25  C   UNL     1      -3.948  -0.805  25.940  0.00  0.00    +0.012 A 
ATOM     26  C   UNL     1      -3.915  -1.452  23.227  0.00  0.00    +0.024 A 
ATOM     27  C   UNL     1      -3.413  -2.024  25.520  0.00  0.00    +0.024 A 
ATOM     30  C   UNL     1      -3.396  -2.347  24.163  0.00  0.00    +0.029 A 
BRANCH  30   9
ATOM      9  N   UNL     1      -2.858  -3.580  23.739  0.00  0.00    -0.336 N 
ATOM     34  C   UNL     1      -1.425  -3.742  23.588  0.00  0.00    +0.129 C 
ATOM     35  C   UNL     1      -3.731  -4.696  23.435  0.00  0.00    +0.129 C 
ENDBRANCH  30   9
ENDBRANCH  19  22
ENDBRANCH  13   6
BRANCH  12   5
ATOM      3  O   UNL     1      -1.362   0.838  23.935  0.00  0.00    -0.272 OA
ATOM      5  N   UNL     1      -0.011   1.681  25.631  0.00  0.00    -0.305 N 
ATOM     16  C   UNL     1      -0.680   0.679  24.944  0.00  0.00    +0.251 C 
ATOM     36  H   UNL     1       0.571   1.427  26.424  0.00  0.00    +0.149 HD
BRANCH  16  18
ATOM     18  C   UNL     1      -0.473  -0.676  25.586  0.00  0.00    +0.324 C 
BRANCH  18   4
ATOM      4  O   UNL     1       0.148  -1.566  24.683  0.00  0.00    -0.483 OA
BRANCH   4  23
ATOM     23  C   UNL     1       0.977  -1.020  23.732  0.00  0.00    +0.121 A 
ATOM     28  C   UNL     1       2.298  -0.707  24.055  0.00  0.00    +0.045 A 
ATOM     29  C   UNL     1       0.497  -0.776  22.445  0.00  0.00    +0.045 A 
ATOM     31  C   UNL     1       3.139  -0.152  23.090  0.00  0.00    +0.004 A 
ATOM     32  C   UNL     1       1.338  -0.222  21.480  0.00  0.00    +0.004 A 
ATOM     33  C   UNL     1       2.659   0.090  21.803  0.00  0.00    +0.000 A 
ENDBRANCH   4  23
ENDBRANCH  18   4
ENDBRANCH  16  18
ENDBRANCH  12   5
TORSDOF 7
ENDMDL
