MODEL 1
REMARK VINA RESULT:       0.0      0.000      0.000
REMARK  Name = 45361600
REMARK  11 active torsions:
REMARK  status: ('A' for Active; 'I' for Inactive)
REMARK    1  A    between atoms: O_1  and  C_12
REMARK    2  A    between atoms: N_5  and  C_16
REMARK    3  A    between atoms: N_6  and  C_26
REMARK    4  A    between atoms: N_8  and  C_27
REMARK    5  A    between atoms: C_9  and  C_19
REMARK    6  A    between atoms: C_11  and  C_21
REMARK    7  A    between atoms: C_15  and  C_20
REMARK    8  A    between atoms: C_20  and  C_22
REMARK    9  A    between atoms: C_20  and  C_23
REMARK   10  A    between atoms: C_24  and  C_25
REMARK   11  A    between atoms: C_26  and  C_27
REMARK                            x       y       z     vdW  Elec       q    Type
REMARK                         _______ _______ _______ _____ _____    ______ ____
ROOT
ATOM      9  C   UNL     1      -3.023  -1.360  24.848  0.00  0.00    -0.027 C 
ATOM     10  C   UNL     1      -2.654  -0.029  24.111  0.00  0.00    +0.028 C 
ATOM     11  C   UNL     1      -1.111   0.251  24.203  0.00  0.00    +0.012 C 
ATOM     12  C   UNL     1      -3.574   1.140  24.567  0.00  0.00    +0.122 C 
ATOM     13  C   UNL     1      -4.526  -1.664  24.642  0.00  0.00    +0.007 C 
ATOM     14  C   UNL     1      -2.217  -2.522  24.223  0.00  0.00    +0.009 C 
ATOM     15  C   UNL     1      -5.077   0.791  24.456  0.00  0.00    +0.029 C 
ATOM     16  C   UNL     1      -0.310  -0.956  23.640  0.00  0.00    +0.076 C 
ATOM     17  C   UNL     1      -5.431  -0.538  25.122  0.00  0.00    +0.007 C 
ATOM     18  C   UNL     1      -0.713  -2.294  24.258  0.00  0.00    +0.023 C 
ATOM     19  C   UNL     1      -2.731  -1.298  26.369  0.00  0.00    +0.011 C 
ATOM     21  C   UNL     1      -0.673   1.533  23.475  0.00  0.00    +0.010 C 
ENDROOT
BRANCH  16   5
ATOM      3  O   UNL     1       1.596  -0.268  21.605  0.00  0.00    -0.269 OA
ATOM      5  N   UNL     1       1.117  -0.781  23.815  0.00  0.00    -0.307 N 
ATOM     24  C   UNL     1       1.956  -0.448  22.766  0.00  0.00    +0.263 C 
ATOM     36  H   UNL     1       1.517  -0.967  24.730  0.00  0.00    +0.149 HD
BRANCH  24  25
ATOM      7  N   UNL     1       3.956  -1.423  23.674  0.00  0.00    -0.250 NA
ATOM     25  C   UNL     1       3.398  -0.332  23.105  0.00  0.00    +0.125 A 
ATOM     28  C   UNL     1       4.085   0.841  22.836  0.00  0.00    +0.033 A 
ATOM     29  C   UNL     1       5.433   0.897  23.172  0.00  0.00    +0.004 A 
ATOM     32  C   UNL     1       5.269  -1.332  23.986  0.00  0.00    +0.111 A 
ATOM     33  C   UNL     1       6.044  -0.206  23.759  0.00  0.00    +0.020 A 
ENDBRANCH  24  25
ENDBRANCH  16   5
BRANCH  12   1
ATOM      1  O   UNL     1      -3.355   2.274  23.725  0.00  0.00    -0.391 OA
ATOM     37  H   UNL     1      -3.750   3.051  24.156  0.00  0.00    +0.210 HD
ENDBRANCH  12   1
BRANCH  15  20
ATOM     20  C   UNL     1      -5.962   1.904  25.030  0.00  0.00    +0.077 C 
ATOM     22  C   UNL     1      -7.196   2.097  24.156  0.00  0.00    +0.017 C 
BRANCH  20  23
ATOM      2  O   UNL     1      -5.010   3.975  24.213  0.00  0.00    -0.276 OA
ATOM      6  N   UNL     1      -4.630   3.376  26.421  0.00  0.00    -0.314 N 
ATOM     23  C   UNL     1      -5.159   3.196  25.152  0.00  0.00    +0.216 C 
ATOM     38  H   UNL     1      -4.787   2.669  27.133  0.00  0.00    +0.149 HD
BRANCH   6  26
ATOM     26  C   UNL     1      -3.830   4.524  26.779  0.00  0.00    +0.119 C 
BRANCH  26  27
ATOM     27  C   UNL     1      -2.922   4.942  25.632  0.00  0.00    +0.103 C 
BRANCH  27   8
ATOM      4  O   UNL     1       0.773   2.990  26.022  0.00  0.00    -0.377 OA
ATOM      8  N   UNL     1      -1.838   3.976  25.465  0.00  0.00    -0.297 NA
ATOM     30  C   UNL     1      -1.520   3.321  26.741  0.00  0.00    +0.112 C 
ATOM     31  C   UNL     1      -0.639   4.625  24.919  0.00  0.00    +0.112 C 
ATOM     34  C   UNL     1      -0.380   2.327  26.544  0.00  0.00    +0.175 C 
ATOM     35  C   UNL     1       0.481   3.601  24.763  0.00  0.00    +0.175 C 
ENDBRANCH  27   8
ENDBRANCH  26  27
ENDBRANCH   6  26
ENDBRANCH  20  23
ENDBRANCH  15  20
TORSDOF 8
ENDMDL
