MODEL 1
REMARK VINA RESULT:      15.1      0.000      0.000
REMARK  Name = 51136632
REMARK  13 active torsions:
REMARK  status: ('A' for Active; 'I' for Inactive)
REMARK    1  A    between atoms: O_1  and  C_19
REMARK    2  A    between atoms: O_4  and  C_25
REMARK    3  A    between atoms: O_4  and  C_34
REMARK    4  A    between atoms: O_5  and  C_27
REMARK    5  A    between atoms: O_5  and  C_35
REMARK    6  A    between atoms: N_8  and  C_26
REMARK    7  A    between atoms: C_9  and  C_14
REMARK    8  A    between atoms: C_10  and  C_15
REMARK    9  A    between atoms: C_14  and  C_16
REMARK   10  A    between atoms: C_15  and  C_19
REMARK   11  A    between atoms: C_30  and  C_33
REMARK   12  A    between atoms: C_33  and  C_36
REMARK   13  A    between atoms: C_33  and  C_37
REMARK                            x       y       z     vdW  Elec       q    Type
REMARK                         _______ _______ _______ _____ _____    ______ ____
ROOT
ATOM      2  O   UNL     1      -0.952  -2.407  23.060  0.00  0.00    -0.252 OA
ATOM      6  N   UNL     1      -2.526  -0.722  23.226  0.00  0.00    -0.285 N 
ATOM      8  N   UNL     1      -0.272  -0.209  22.763  0.00  0.00    -0.269 N 
ATOM      9  C   UNL     1      -3.583   1.124  24.499  0.00  0.00    +0.016 C 
ATOM     10  C   UNL     1      -4.729   0.152  24.887  0.00  0.00    +0.006 C 
ATOM     11  C   UNL     1      -4.269  -1.317  24.854  0.00  0.00    +0.023 C 
ATOM     12  C   UNL     1      -2.964   0.681  23.163  0.00  0.00    +0.113 C 
ATOM     13  C   UNL     1      -3.603  -1.667  23.524  0.00  0.00    +0.109 C 
ATOM     17  C   UNL     1      -1.219  -1.203  23.007  0.00  0.00    +0.306 C 
ATOM     38  H   UNL     1      -0.576   0.653  22.325  0.00  0.00    +0.156 HD
ENDROOT
BRANCH   8  26
ATOM     26  C   UNL     1       1.110  -0.242  23.076  0.00  0.00    +0.035 A 
ATOM     28  C   UNL     1       1.906   0.878  22.838  0.00  0.00    +0.023 A 
ATOM     29  C   UNL     1       1.673  -1.395  23.623  0.00  0.00    +0.023 A 
ATOM     30  C   UNL     1       3.830  -0.308  23.694  0.00  0.00    -0.045 A 
ATOM     31  C   UNL     1       3.267   0.845  23.147  0.00  0.00    +0.006 A 
ATOM     32  C   UNL     1       3.033  -1.428  23.932  0.00  0.00    +0.006 A 
BRANCH  30  33
ATOM     33  C   UNL     1       5.284  -0.343  24.025  0.00  0.00    +0.013 C 
ATOM     36  C   UNL     1       6.167  -0.557  22.781  0.00  0.00    +0.012 C 
ATOM     37  C   UNL     1       5.745   0.917  24.783  0.00  0.00    +0.012 C 
ENDBRANCH  30  33
ENDBRANCH   8  26
BRANCH   9  14
ATOM     14  C   UNL     1      -2.498   1.270  25.571  0.00  0.00    +0.061 C 
BRANCH  14  16
ATOM      7  N   UNL     1      -2.255   3.423  24.536  0.00  0.00    -0.287 NA
ATOM     16  C   UNL     1      -1.783   2.589  25.402  0.00  0.00    +0.044 C 
ATOM     18  C   UNL     1      -0.577   2.859  26.225  0.00  0.00    +0.003 A 
ATOM     20  C   UNL     1       0.270   3.884  25.786  0.00  0.00    -0.033 A 
ATOM     21  C   UNL     1      -0.081   4.620  24.527  0.00  0.00    +0.059 C 
ATOM     22  C   UNL     1      -1.596   4.729  24.414  0.00  0.00    +0.146 C 
ATOM     23  C   UNL     1      -0.271   2.133  27.378  0.00  0.00    +0.059 A 
ATOM     24  C   UNL     1       1.442   4.162  26.494  0.00  0.00    +0.053 A 
ATOM     25  C   UNL     1       0.894   2.427  28.087  0.00  0.00    +0.162 A 
ATOM     27  C   UNL     1       1.750   3.437  27.646  0.00  0.00    +0.162 A 
BRANCH  25   4
ATOM      4  O   UNL     1       1.189   1.717  29.212  0.00  0.00    -0.491 OA
ATOM     34  C   UNL     1       0.938   2.354  30.463  0.00  0.00    +0.277 C 
ENDBRANCH  25   4
BRANCH  27   5
ATOM      5  O   UNL     1       2.893   3.723  28.330  0.00  0.00    -0.491 OA
ATOM     35  C   UNL     1       3.718   2.622  28.704  0.00  0.00    +0.277 C 
ENDBRANCH  27   5
ENDBRANCH  14  16
ENDBRANCH   9  14
BRANCH  10  15
ATOM     15  C   UNL     1      -5.370   0.487  26.233  0.00  0.00    +0.124 C 
BRANCH  15  19
ATOM      3  O   UNL     1      -5.909   2.753  26.953  0.00  0.00    -0.251 OA
ATOM     19  C   UNL     1      -6.082   1.810  26.195  0.00  0.00    +0.305 C 
BRANCH  19   1
ATOM      1  O   UNL     1      -6.974   1.821  25.171  0.00  0.00    -0.481 OA
ATOM     39  H   UNL     1      -7.354   0.932  25.008  0.00  0.00    +0.295 HD
ENDBRANCH  19   1
ENDBRANCH  15  19
ENDBRANCH  10  15
TORSDOF 9
ENDMDL
MODEL 2
REMARK VINA RESULT:      15.7      1.450      1.966
REMARK  Name = 51136632
REMARK  13 active torsions:
REMARK  status: ('A' for Active; 'I' for Inactive)
REMARK    1  A    between atoms: O_1  and  C_19
REMARK    2  A    between atoms: O_4  and  C_25
REMARK    3  A    between atoms: O_4  and  C_34
REMARK    4  A    between atoms: O_5  and  C_27
REMARK    5  A    between atoms: O_5  and  C_35
REMARK    6  A    between atoms: N_8  and  C_26
REMARK    7  A    between atoms: C_9  and  C_14
REMARK    8  A    between atoms: C_10  and  C_15
REMARK    9  A    between atoms: C_14  and  C_16
REMARK   10  A    between atoms: C_15  and  C_19
REMARK   11  A    between atoms: C_30  and  C_33
REMARK   12  A    between atoms: C_33  and  C_36
REMARK   13  A    between atoms: C_33  and  C_37
REMARK                            x       y       z     vdW  Elec       q    Type
REMARK                         _______ _______ _______ _____ _____    ______ ____
ROOT
ATOM      2  O   UNL     1      -0.346  -1.556  25.459  0.00  0.00    -0.252 OA
ATOM      6  N   UNL     1      -2.120  -0.947  24.107  0.00  0.00    -0.285 N 
ATOM      8  N   UNL     1       0.054  -1.137  23.213  0.00  0.00    -0.269 N 
ATOM      9  C   UNL     1      -3.403   0.785  22.883  0.00  0.00    +0.016 C 
ATOM     10  C   UNL     1      -4.419   0.809  24.056  0.00  0.00    +0.006 C 
ATOM     11  C   UNL     1      -3.778   0.348  25.377  0.00  0.00    +0.023 C 
ATOM     12  C   UNL     1      -2.730  -0.596  22.816  0.00  0.00    +0.113 C 
ATOM     13  C   UNL     1      -3.071  -0.997  25.218  0.00  0.00    +0.109 C 
ATOM     17  C   UNL     1      -0.761  -1.248  24.338  0.00  0.00    +0.306 C 
ATOM     38  H   UNL     1      -0.355  -1.303  22.300  0.00  0.00    +0.156 HD
ENDROOT
BRANCH   8  26
ATOM     26  C   UNL     1       1.428  -0.793  23.177  0.00  0.00    +0.035 A 
ATOM     28  C   UNL     1       1.829   0.418  22.614  0.00  0.00    +0.023 A 
ATOM     29  C   UNL     1       2.379  -1.665  23.706  0.00  0.00    +0.023 A 
ATOM     30  C   UNL     1       4.133  -0.115  23.108  0.00  0.00    -0.045 A 
ATOM     31  C   UNL     1       3.182   0.758  22.578  0.00  0.00    +0.006 A 
ATOM     32  C   UNL     1       3.732  -1.326  23.671  0.00  0.00    +0.006 A 
BRANCH  30  33
ATOM     33  C   UNL     1       5.580   0.248  23.072  0.00  0.00    +0.013 C 
ATOM     36  C   UNL     1       6.011   1.076  24.297  0.00  0.00    +0.012 C 
ATOM     37  C   UNL     1       6.492  -0.985  22.927  0.00  0.00    +0.012 C 
ENDBRANCH  30  33
ENDBRANCH   8  26
BRANCH   9  14
ATOM     14  C   UNL     1      -2.348   1.894  22.948  0.00  0.00    +0.061 C 
BRANCH  14  16
ATOM      7  N   UNL     1      -3.604   3.724  23.865  0.00  0.00    -0.287 NA
ATOM     16  C   UNL     1      -2.676   2.849  24.070  0.00  0.00    +0.044 C 
ATOM     18  C   UNL     1      -1.919   2.743  25.344  0.00  0.00    +0.003 A 
ATOM     20  C   UNL     1      -1.963   3.852  26.198  0.00  0.00    -0.033 A 
ATOM     21  C   UNL     1      -2.745   5.059  25.773  0.00  0.00    +0.059 C 
ATOM     22  C   UNL     1      -3.964   4.613  24.976  0.00  0.00    +0.146 C 
ATOM     23  C   UNL     1      -1.179   1.611  25.691  0.00  0.00    +0.059 A 
ATOM     24  C   UNL     1      -1.240   3.831  27.393  0.00  0.00    +0.053 A 
ATOM     25  C   UNL     1      -0.472   1.594  26.894  0.00  0.00    +0.162 A 
ATOM     27  C   UNL     1      -0.499   2.701  27.742  0.00  0.00    +0.162 A 
BRANCH  25   4
ATOM      4  O   UNL     1       0.247   0.486  27.230  0.00  0.00    -0.491 OA
ATOM     34  C   UNL     1      -0.484  -0.638  27.715  0.00  0.00    +0.277 C 
ENDBRANCH  25   4
BRANCH  27   5
ATOM      5  O   UNL     1       0.196   2.693  28.913  0.00  0.00    -0.491 OA
ATOM     35  C   UNL     1       1.619   2.660  28.823  0.00  0.00    +0.277 C 
ENDBRANCH  27   5
ENDBRANCH  14  16
ENDBRANCH   9  14
BRANCH  10  15
ATOM     15  C   UNL     1      -5.100   2.166  24.231  0.00  0.00    +0.124 C 
BRANCH  15  19
ATOM      3  O   UNL     1      -6.003   2.456  26.477  0.00  0.00    -0.251 OA
ATOM     19  C   UNL     1      -6.147   2.126  25.309  0.00  0.00    +0.305 C 
BRANCH  19   1
ATOM      1  O   UNL     1      -7.316   1.661  24.796  0.00  0.00    -0.481 OA
ATOM     39  H   UNL     1      -7.313   1.667  23.815  0.00  0.00    +0.295 HD
ENDBRANCH  19   1
ENDBRANCH  15  19
ENDBRANCH  10  15
TORSDOF 9
ENDMDL
MODEL 3
REMARK VINA RESULT:      16.0      2.534      3.613
REMARK  Name = 51136632
REMARK  13 active torsions:
REMARK  status: ('A' for Active; 'I' for Inactive)
REMARK    1  A    between atoms: O_1  and  C_19
REMARK    2  A    between atoms: O_4  and  C_25
REMARK    3  A    between atoms: O_4  and  C_34
REMARK    4  A    between atoms: O_5  and  C_27
REMARK    5  A    between atoms: O_5  and  C_35
REMARK    6  A    between atoms: N_8  and  C_26
REMARK    7  A    between atoms: C_9  and  C_14
REMARK    8  A    between atoms: C_10  and  C_15
REMARK    9  A    between atoms: C_14  and  C_16
REMARK   10  A    between atoms: C_15  and  C_19
REMARK   11  A    between atoms: C_30  and  C_33
REMARK   12  A    between atoms: C_33  and  C_36
REMARK   13  A    between atoms: C_33  and  C_37
REMARK                            x       y       z     vdW  Elec       q    Type
REMARK                         _______ _______ _______ _____ _____    ______ ____
ROOT
ATOM      2  O   UNL     1      -0.827  -2.939  23.379  0.00  0.00    -0.252 OA
ATOM      6  N   UNL     1      -2.439  -1.291  23.532  0.00  0.00    -0.285 N 
ATOM      8  N   UNL     1      -0.233  -0.749  22.899  0.00  0.00    -0.269 N 
ATOM      9  C   UNL     1      -3.475   0.608  24.745  0.00  0.00    +0.016 C 
ATOM     10  C   UNL     1      -4.565  -0.367  25.265  0.00  0.00    +0.006 C 
ATOM     11  C   UNL     1      -4.063  -1.822  25.299  0.00  0.00    +0.023 C 
ATOM     12  C   UNL     1      -2.923   0.093  23.405  0.00  0.00    +0.113 C 
ATOM     13  C   UNL     1      -3.467  -2.242  23.956  0.00  0.00    +0.109 C 
ATOM     17  C   UNL     1      -1.133  -1.749  23.264  0.00  0.00    +0.306 C 
ATOM     38  H   UNL     1      -0.589   0.073  22.425  0.00  0.00    +0.156 HD
ENDROOT
BRANCH   8  26
ATOM     26  C   UNL     1       1.165  -0.724  23.128  0.00  0.00    +0.035 A 
ATOM     28  C   UNL     1       1.735  -1.588  24.062  0.00  0.00    +0.023 A 
ATOM     29  C   UNL     1       1.972   0.165  22.417  0.00  0.00    +0.023 A 
ATOM     30  C   UNL     1       3.918  -0.675  23.577  0.00  0.00    -0.045 A 
ATOM     31  C   UNL     1       3.112  -1.563  24.288  0.00  0.00    +0.006 A 
ATOM     32  C   UNL     1       3.348   0.189  22.642  0.00  0.00    +0.006 A 
BRANCH  30  33
ATOM     33  C   UNL     1       5.391  -0.649  23.816  0.00  0.00    +0.013 C 
ATOM     36  C   UNL     1       6.199  -0.578  22.508  0.00  0.00    +0.012 C 
ATOM     37  C   UNL     1       5.813   0.496  24.756  0.00  0.00    +0.012 C 
ENDBRANCH  30  33
ENDBRANCH   8  26
BRANCH   9  14
ATOM     14  C   UNL     1      -2.333   0.853  25.736  0.00  0.00    +0.061 C 
BRANCH  14  16
ATOM      7  N   UNL     1      -0.140   1.463  24.972  0.00  0.00    -0.287 NA
ATOM     16  C   UNL     1      -1.358   1.851  25.159  0.00  0.00    +0.044 C 
ATOM     18  C   UNL     1      -1.838   3.221  24.843  0.00  0.00    +0.003 A 
ATOM     20  C   UNL     1      -0.861   4.211  24.685  0.00  0.00    -0.033 A 
ATOM     21  C   UNL     1       0.581   3.835  24.858  0.00  0.00    +0.059 C 
ATOM     22  C   UNL     1       0.793   2.413  24.355  0.00  0.00    +0.146 C 
ATOM     23  C   UNL     1      -3.193   3.535  24.717  0.00  0.00    +0.059 A 
ATOM     24  C   UNL     1      -1.249   5.528  24.426  0.00  0.00    +0.053 A 
ATOM     25  C   UNL     1      -3.570   4.851  24.444  0.00  0.00    +0.162 A 
ATOM     27  C   UNL     1      -2.602   5.845  24.301  0.00  0.00    +0.162 A 
BRANCH  25   4
ATOM      4  O   UNL     1      -4.893   5.154  24.320  0.00  0.00    -0.491 OA
ATOM     34  C   UNL     1      -5.749   4.763  25.391  0.00  0.00    +0.277 C 
ENDBRANCH  25   4
BRANCH  27   5
ATOM      5  O   UNL     1      -2.966   7.132  24.042  0.00  0.00    -0.491 OA
ATOM     35  C   UNL     1      -2.971   7.542  22.676  0.00  0.00    +0.277 C 
ENDBRANCH  27   5
ENDBRANCH  14  16
ENDBRANCH   9  14
BRANCH  10  15
ATOM     15  C   UNL     1      -5.134   0.039  26.623  0.00  0.00    +0.124 C 
BRANCH  15  19
ATOM      3  O   UNL     1      -6.517   1.880  27.424  0.00  0.00    -0.251 OA
ATOM     19  C   UNL     1      -6.069   1.211  26.505  0.00  0.00    +0.305 C 
BRANCH  19   1
ATOM      1  O   UNL     1      -6.360   1.435  25.198  0.00  0.00    -0.481 OA
ATOM     39  H   UNL     1      -6.564   2.379  25.025  0.00  0.00    +0.295 HD
ENDBRANCH  19   1
ENDBRANCH  15  19
ENDBRANCH  10  15
TORSDOF 9
ENDMDL
MODEL 4
REMARK VINA RESULT:      16.2      2.494      7.504
REMARK  Name = 51136632
REMARK  13 active torsions:
REMARK  status: ('A' for Active; 'I' for Inactive)
REMARK    1  A    between atoms: O_1  and  C_19
REMARK    2  A    between atoms: O_4  and  C_25
REMARK    3  A    between atoms: O_4  and  C_34
REMARK    4  A    between atoms: O_5  and  C_27
REMARK    5  A    between atoms: O_5  and  C_35
REMARK    6  A    between atoms: N_8  and  C_26
REMARK    7  A    between atoms: C_9  and  C_14
REMARK    8  A    between atoms: C_10  and  C_15
REMARK    9  A    between atoms: C_14  and  C_16
REMARK   10  A    between atoms: C_15  and  C_19
REMARK   11  A    between atoms: C_30  and  C_33
REMARK   12  A    between atoms: C_33  and  C_36
REMARK   13  A    between atoms: C_33  and  C_37
REMARK                            x       y       z     vdW  Elec       q    Type
REMARK                         _______ _______ _______ _____ _____    ______ ____
ROOT
ATOM      2  O   UNL     1      -2.161  -2.434  23.235  0.00  0.00    -0.252 OA
ATOM      6  N   UNL     1      -0.042  -1.690  23.780  0.00  0.00    -0.285 N 
ATOM      8  N   UNL     1      -1.910  -1.001  25.042  0.00  0.00    -0.269 N 
ATOM      9  C   UNL     1       1.690   0.084  23.772  0.00  0.00    +0.016 C 
ATOM     10  C   UNL     1       2.358  -0.624  22.563  0.00  0.00    +0.006 C 
ATOM     11  C   UNL     1       1.348  -1.468  21.765  0.00  0.00    +0.023 C 
ATOM     12  C   UNL     1       0.920  -0.950  24.611  0.00  0.00    +0.113 C 
ATOM     13  C   UNL     1       0.573  -2.422  22.672  0.00  0.00    +0.109 C 
ATOM     17  C   UNL     1      -1.436  -1.764  23.976  0.00  0.00    +0.306 C 
ATOM     38  H   UNL     1      -1.295  -0.835  25.831  0.00  0.00    +0.156 HD
ENDROOT
BRANCH   8  26
ATOM     26  C   UNL     1      -3.184  -0.391  25.164  0.00  0.00    +0.035 A 
ATOM     28  C   UNL     1      -3.774  -0.252  26.420  0.00  0.00    +0.023 A 
ATOM     29  C   UNL     1      -3.846   0.072  24.027  0.00  0.00    +0.023 A 
ATOM     30  C   UNL     1      -5.690   0.812  25.402  0.00  0.00    -0.045 A 
ATOM     31  C   UNL     1      -5.028   0.349  26.539  0.00  0.00    +0.006 A 
ATOM     32  C   UNL     1      -5.099   0.673  24.146  0.00  0.00    +0.006 A 
BRANCH  30  33
ATOM     33  C   UNL     1      -7.030   1.456  25.530  0.00  0.00    +0.013 C 
ATOM     36  C   UNL     1      -7.160   2.295  26.814  0.00  0.00    +0.012 C 
ATOM     37  C   UNL     1      -7.387   2.317  24.303  0.00  0.00    +0.012 C 
ENDBRANCH  30  33
ENDBRANCH   8  26
BRANCH   9  14
ATOM     14  C   UNL     1       0.775   1.250  23.384  0.00  0.00    +0.061 C 
BRANCH  14  16
ATOM      7  N   UNL     1       1.094   2.008  25.641  0.00  0.00    -0.287 NA
ATOM     16  C   UNL     1       0.295   1.960  24.627  0.00  0.00    +0.044 C 
ATOM     18  C   UNL     1      -1.064   2.560  24.628  0.00  0.00    +0.003 A 
ATOM     20  C   UNL     1      -1.621   2.858  25.878  0.00  0.00    -0.033 A 
ATOM     21  C   UNL     1      -0.830   2.544  27.113  0.00  0.00    +0.059 C 
ATOM     22  C   UNL     1       0.651   2.750  26.827  0.00  0.00    +0.146 C 
ATOM     23  C   UNL     1      -1.780   2.812  23.456  0.00  0.00    +0.059 A 
ATOM     24  C   UNL     1      -2.913   3.387  25.949  0.00  0.00    +0.053 A 
ATOM     25  C   UNL     1      -3.063   3.354  23.536  0.00  0.00    +0.162 A 
ATOM     27  C   UNL     1      -3.630   3.639  24.779  0.00  0.00    +0.162 A 
BRANCH  25   4
ATOM      4  O   UNL     1      -3.757   3.600  22.390  0.00  0.00    -0.491 OA
ATOM     34  C   UNL     1      -3.396   2.841  21.239  0.00  0.00    +0.277 C 
ENDBRANCH  25   4
BRANCH  27   5
ATOM      5  O   UNL     1      -4.885   4.161  24.864  0.00  0.00    -0.491 OA
ATOM     35  C   UNL     1      -5.219   4.855  26.064  0.00  0.00    +0.277 C 
ENDBRANCH  27   5
ENDBRANCH  14  16
ENDBRANCH   9  14
BRANCH  10  15
ATOM     15  C   UNL     1       3.105   0.339  21.642  0.00  0.00    +0.124 C 
BRANCH  15  19
ATOM      3  O   UNL     1       5.246   0.422  22.802  0.00  0.00    -0.251 OA
ATOM     19  C   UNL     1       4.267   0.988  22.341  0.00  0.00    +0.305 C 
BRANCH  19   1
ATOM      1  O   UNL     1       4.078   2.331  22.392  0.00  0.00    -0.481 OA
ATOM     39  H   UNL     1       4.088   2.668  23.314  0.00  0.00    +0.295 HD
ENDBRANCH  19   1
ENDBRANCH  15  19
ENDBRANCH  10  15
TORSDOF 9
ENDMDL
MODEL 5
REMARK VINA RESULT:      16.6      2.642      5.678
REMARK  Name = 51136632
REMARK  13 active torsions:
REMARK  status: ('A' for Active; 'I' for Inactive)
REMARK    1  A    between atoms: O_1  and  C_19
REMARK    2  A    between atoms: O_4  and  C_25
REMARK    3  A    between atoms: O_4  and  C_34
REMARK    4  A    between atoms: O_5  and  C_27
REMARK    5  A    between atoms: O_5  and  C_35
REMARK    6  A    between atoms: N_8  and  C_26
REMARK    7  A    between atoms: C_9  and  C_14
REMARK    8  A    between atoms: C_10  and  C_15
REMARK    9  A    between atoms: C_14  and  C_16
REMARK   10  A    between atoms: C_15  and  C_19
REMARK   11  A    between atoms: C_30  and  C_33
REMARK   12  A    between atoms: C_33  and  C_36
REMARK   13  A    between atoms: C_33  and  C_37
REMARK                            x       y       z     vdW  Elec       q    Type
REMARK                         _______ _______ _______ _____ _____    ______ ____
ROOT
ATOM      2  O   UNL     1      -0.297   4.709  23.624  0.00  0.00    -0.252 OA
ATOM      6  N   UNL     1      -1.958   4.261  25.167  0.00  0.00    -0.285 N 
ATOM      8  N   UNL     1      -0.069   2.860  25.005  0.00  0.00    -0.269 N 
ATOM      9  C   UNL     1      -3.938   2.954  25.887  0.00  0.00    +0.016 C 
ATOM     10  C   UNL     1      -4.839   4.122  25.405  0.00  0.00    +0.006 C 
ATOM     11  C   UNL     1      -4.154   4.959  24.310  0.00  0.00    +0.023 C 
ATOM     12  C   UNL     1      -2.554   3.500  26.276  0.00  0.00    +0.113 C 
ATOM     13  C   UNL     1      -2.758   5.410  24.740  0.00  0.00    +0.109 C 
ATOM     17  C   UNL     1      -0.726   3.996  24.535  0.00  0.00    +0.306 C 
ATOM     38  H   UNL     1      -0.217   2.577  25.968  0.00  0.00    +0.156 HD
ENDROOT
BRANCH   8  26
ATOM     26  C   UNL     1       0.799   2.005  24.279  0.00  0.00    +0.035 A 
ATOM     28  C   UNL     1       2.123   2.381  24.058  0.00  0.00    +0.023 A 
ATOM     29  C   UNL     1       0.327   0.789  23.787  0.00  0.00    +0.023 A 
ATOM     30  C   UNL     1       2.505   0.323  22.852  0.00  0.00    -0.045 A 
ATOM     31  C   UNL     1       2.977   1.540  23.344  0.00  0.00    +0.006 A 
ATOM     32  C   UNL     1       1.180  -0.052  23.073  0.00  0.00    +0.006 A 
BRANCH  30  33
ATOM     33  C   UNL     1       3.419  -0.577  22.089  0.00  0.00    +0.013 C 
ATOM     36  C   UNL     1       4.371   0.200  21.160  0.00  0.00    +0.012 C 
ATOM     37  C   UNL     1       4.230  -1.508  23.010  0.00  0.00    +0.012 C 
ENDBRANCH  30  33
ENDBRANCH   8  26
BRANCH   9  14
ATOM     14  C   UNL     1      -3.799   1.813  24.873  0.00  0.00    +0.061 C 
BRANCH  14  16
ATOM      7  N   UNL     1      -2.058   1.087  26.358  0.00  0.00    -0.287 NA
ATOM     16  C   UNL     1      -2.880   0.749  25.421  0.00  0.00    +0.044 C 
ATOM     18  C   UNL     1      -2.958  -0.624  24.857  0.00  0.00    +0.003 A 
ATOM     20  C   UNL     1      -1.865  -1.466  25.094  0.00  0.00    -0.033 A 
ATOM     21  C   UNL     1      -0.700  -0.934  25.874  0.00  0.00    +0.059 C 
ATOM     22  C   UNL     1      -1.206   0.038  26.932  0.00  0.00    +0.146 C 
ATOM     23  C   UNL     1      -4.050  -1.073  24.112  0.00  0.00    +0.059 A 
ATOM     24  C   UNL     1      -1.859  -2.756  24.557  0.00  0.00    +0.053 A 
ATOM     25  C   UNL     1      -4.042  -2.367  23.592  0.00  0.00    +0.162 A 
ATOM     27  C   UNL     1      -2.949  -3.207  23.811  0.00  0.00    +0.162 A 
BRANCH  25   4
ATOM      4  O   UNL     1      -5.110  -2.802  22.866  0.00  0.00    -0.491 OA
ATOM     34  C   UNL     1      -6.045  -3.647  23.534  0.00  0.00    +0.277 C 
ENDBRANCH  25   4
BRANCH  27   5
ATOM      5  O   UNL     1      -2.933  -4.469  23.299  0.00  0.00    -0.491 OA
ATOM     35  C   UNL     1      -1.828  -4.816  22.466  0.00  0.00    +0.277 C 
ENDBRANCH  27   5
ENDBRANCH  14  16
ENDBRANCH   9  14
BRANCH  10  15
ATOM     15  C   UNL     1      -6.222   3.663  24.947  0.00  0.00    +0.124 C 
BRANCH  15  19
ATOM      3  O   UNL     1      -6.744   1.291  24.739  0.00  0.00    -0.251 OA
ATOM     19  C   UNL     1      -6.535   2.274  25.432  0.00  0.00    +0.305 C 
BRANCH  19   1
ATOM      1  O   UNL     1      -6.555   2.257  26.790  0.00  0.00    -0.481 OA
ATOM     39  H   UNL     1      -7.144   1.555  27.139  0.00  0.00    +0.295 HD
ENDBRANCH  19   1
ENDBRANCH  15  19
ENDBRANCH  10  15
TORSDOF 9
ENDMDL
MODEL 6
REMARK VINA RESULT:      17.0      2.908      4.825
REMARK  Name = 51136632
REMARK  13 active torsions:
REMARK  status: ('A' for Active; 'I' for Inactive)
REMARK    1  A    between atoms: O_1  and  C_19
REMARK    2  A    between atoms: O_4  and  C_25
REMARK    3  A    between atoms: O_4  and  C_34
REMARK    4  A    between atoms: O_5  and  C_27
REMARK    5  A    between atoms: O_5  and  C_35
REMARK    6  A    between atoms: N_8  and  C_26
REMARK    7  A    between atoms: C_9  and  C_14
REMARK    8  A    between atoms: C_10  and  C_15
REMARK    9  A    between atoms: C_14  and  C_16
REMARK   10  A    between atoms: C_15  and  C_19
REMARK   11  A    between atoms: C_30  and  C_33
REMARK   12  A    between atoms: C_33  and  C_36
REMARK   13  A    between atoms: C_33  and  C_37
REMARK                            x       y       z     vdW  Elec       q    Type
REMARK                         _______ _______ _______ _____ _____    ______ ____
ROOT
ATOM      2  O   UNL     1      -0.023  -2.932  24.992  0.00  0.00    -0.252 OA
ATOM      6  N   UNL     1      -1.980  -1.807  24.495  0.00  0.00    -0.285 N 
ATOM      8  N   UNL     1       0.032  -1.243  23.403  0.00  0.00    -0.269 N 
ATOM      9  C   UNL     1      -3.431   0.193  24.706  0.00  0.00    +0.016 C 
ATOM     10  C   UNL     1      -4.257  -0.565  25.780  0.00  0.00    +0.006 C 
ATOM     11  C   UNL     1      -3.424  -1.654  26.479  0.00  0.00    +0.023 C 
ATOM     12  C   UNL     1      -2.778  -0.821  23.751  0.00  0.00    +0.113 C 
ATOM     13  C   UNL     1      -2.751  -2.582  25.468  0.00  0.00    +0.109 C 
ATOM     17  C   UNL     1      -0.603  -2.065  24.333  0.00  0.00    +0.306 C 
ATOM     38  H   UNL     1      -0.510  -0.878  22.628  0.00  0.00    +0.156 HD
ENDROOT
BRANCH   8  26
ATOM     26  C   UNL     1       1.386  -0.823  23.409  0.00  0.00    +0.035 A 
ATOM     28  C   UNL     1       2.390  -1.709  23.800  0.00  0.00    +0.023 A 
ATOM     29  C   UNL     1       1.714   0.476  23.022  0.00  0.00    +0.023 A 
ATOM     30  C   UNL     1       4.050   0.004  23.419  0.00  0.00    -0.045 A 
ATOM     31  C   UNL     1       3.722  -1.296  23.806  0.00  0.00    +0.006 A 
ATOM     32  C   UNL     1       3.046   0.889  23.027  0.00  0.00    +0.006 A 
BRANCH  30  33
ATOM     33  C   UNL     1       5.475   0.446  23.424  0.00  0.00    +0.013 C 
ATOM     36  C   UNL     1       5.919   0.988  24.795  0.00  0.00    +0.012 C 
ATOM     37  C   UNL     1       6.437  -0.667  22.965  0.00  0.00    +0.012 C 
ENDBRANCH  30  33
ENDBRANCH   8  26
BRANCH   9  14
ATOM     14  C   UNL     1      -2.376   1.141  25.285  0.00  0.00    +0.061 C 
BRANCH  14  16
ATOM      7  N   UNL     1      -2.851   3.331  26.149  0.00  0.00    -0.287 NA
ATOM     16  C   UNL     1      -2.818   2.573  25.103  0.00  0.00    +0.044 C 
ATOM     18  C   UNL     1      -3.197   3.038  23.744  0.00  0.00    +0.003 A 
ATOM     20  C   UNL     1      -3.954   4.213  23.667  0.00  0.00    -0.033 A 
ATOM     21  C   UNL     1      -4.340   4.907  24.940  0.00  0.00    +0.059 C 
ATOM     22  C   UNL     1      -3.223   4.738  25.962  0.00  0.00    +0.146 C 
ATOM     23  C   UNL     1      -2.841   2.348  22.583  0.00  0.00    +0.059 A 
ATOM     24  C   UNL     1      -4.377   4.682  22.420  0.00  0.00    +0.053 A 
ATOM     25  C   UNL     1      -3.255   2.832  21.341  0.00  0.00    +0.162 A 
ATOM     27  C   UNL     1      -4.023   3.994  21.259  0.00  0.00    +0.162 A 
BRANCH  25   4
ATOM      4  O   UNL     1      -2.904   2.156  20.211  0.00  0.00    -0.491 OA
ATOM     34  C   UNL     1      -2.000   1.065  20.363  0.00  0.00    +0.277 C 
ENDBRANCH  25   4
BRANCH  27   5
ATOM      5  O   UNL     1      -4.436   4.466  20.050  0.00  0.00    -0.491 OA
ATOM     35  C   UNL     1      -5.545   3.808  19.442  0.00  0.00    +0.277 C 
ENDBRANCH  27   5
ENDBRANCH  14  16
ENDBRANCH   9  14
BRANCH  10  15
ATOM     15  C   UNL     1      -4.901   0.365  26.807  0.00  0.00    +0.124 C 
BRANCH  15  19
ATOM      3  O   UNL     1      -6.063   1.462  24.967  0.00  0.00    -0.251 OA
ATOM     19  C   UNL     1      -5.876   1.311  26.165  0.00  0.00    +0.305 C 
BRANCH  19   1
ATOM      1  O   UNL     1      -6.546   2.000  27.125  0.00  0.00    -0.481 OA
ATOM     39  H   UNL     1      -5.935   2.441  27.752  0.00  0.00    +0.295 HD
ENDBRANCH  19   1
ENDBRANCH  15  19
ENDBRANCH  10  15
TORSDOF 9
ENDMDL
MODEL 7
REMARK VINA RESULT:      17.0      1.605      2.428
REMARK  Name = 51136632
REMARK  13 active torsions:
REMARK  status: ('A' for Active; 'I' for Inactive)
REMARK    1  A    between atoms: O_1  and  C_19
REMARK    2  A    between atoms: O_4  and  C_25
REMARK    3  A    between atoms: O_4  and  C_34
REMARK    4  A    between atoms: O_5  and  C_27
REMARK    5  A    between atoms: O_5  and  C_35
REMARK    6  A    between atoms: N_8  and  C_26
REMARK    7  A    between atoms: C_9  and  C_14
REMARK    8  A    between atoms: C_10  and  C_15
REMARK    9  A    between atoms: C_14  and  C_16
REMARK   10  A    between atoms: C_15  and  C_19
REMARK   11  A    between atoms: C_30  and  C_33
REMARK   12  A    between atoms: C_33  and  C_36
REMARK   13  A    between atoms: C_33  and  C_37
REMARK                            x       y       z     vdW  Elec       q    Type
REMARK                         _______ _______ _______ _____ _____    ______ ____
ROOT
ATOM      2  O   UNL     1      -0.839  -1.409  26.081  0.00  0.00    -0.252 OA
ATOM      6  N   UNL     1      -2.840  -1.315  24.928  0.00  0.00    -0.285 N 
ATOM      8  N   UNL     1      -0.807  -1.604  23.769  0.00  0.00    -0.269 N 
ATOM      9  C   UNL     1      -4.461  -0.076  23.519  0.00  0.00    +0.016 C 
ATOM     10  C   UNL     1      -5.299   0.207  24.796  0.00  0.00    +0.006 C 
ATOM     11  C   UNL     1      -4.432   0.172  26.068  0.00  0.00    +0.023 C 
ATOM     12  C   UNL     1      -3.660  -1.375  23.708  0.00  0.00    +0.113 C 
ATOM     13  C   UNL     1      -3.614  -1.116  26.154  0.00  0.00    +0.109 C 
ATOM     17  C   UNL     1      -1.438  -1.451  25.003  0.00  0.00    +0.306 C 
ATOM     38  H   UNL     1      -1.320  -2.042  23.013  0.00  0.00    +0.156 HD
ENDROOT
BRANCH   8  26
ATOM     26  C   UNL     1       0.504  -1.194  23.418  0.00  0.00    +0.035 A 
ATOM     28  C   UNL     1       0.697  -0.297  22.368  0.00  0.00    +0.023 A 
ATOM     29  C   UNL     1       1.601  -1.689  24.124  0.00  0.00    +0.023 A 
ATOM     30  C   UNL     1       3.084  -0.388  22.728  0.00  0.00    -0.045 A 
ATOM     31  C   UNL     1       1.987   0.106  22.023  0.00  0.00    +0.006 A 
ATOM     32  C   UNL     1       2.891  -1.286  23.779  0.00  0.00    +0.006 A 
BRANCH  30  33
ATOM     33  C   UNL     1       4.464   0.044  22.360  0.00  0.00    +0.013 C 
ATOM     36  C   UNL     1       4.567   1.565  22.142  0.00  0.00    +0.012 C 
ATOM     37  C   UNL     1       5.516  -0.410  23.390  0.00  0.00    +0.012 C 
ENDBRANCH  30  33
ENDBRANCH   8  26
BRANCH   9  14
ATOM     14  C   UNL     1      -3.533   1.074  23.115  0.00  0.00    +0.061 C 
BRANCH  14  16
ATOM      7  N   UNL     1      -4.691   2.722  24.422  0.00  0.00    -0.287 NA
ATOM     16  C   UNL     1      -3.560   2.151  24.173  0.00  0.00    +0.044 C 
ATOM     18  C   UNL     1      -2.294   2.506  24.866  0.00  0.00    +0.003 A 
ATOM     20  C   UNL     1      -2.265   3.735  25.536  0.00  0.00    -0.033 A 
ATOM     21  C   UNL     1      -3.486   4.606  25.499  0.00  0.00    +0.059 C 
ATOM     22  C   UNL     1      -4.730   3.727  25.491  0.00  0.00    +0.146 C 
ATOM     23  C   UNL     1      -1.169   1.679  24.854  0.00  0.00    +0.059 A 
ATOM     24  C   UNL     1      -1.091   4.145  26.174  0.00  0.00    +0.053 A 
ATOM     25  C   UNL     1      -0.007   2.090  25.506  0.00  0.00    +0.162 A 
ATOM     27  C   UNL     1       0.034   3.320  26.162  0.00  0.00    +0.162 A 
BRANCH  25   4
ATOM      4  O   UNL     1       1.089   1.279  25.493  0.00  0.00    -0.491 OA
ATOM     34  C   UNL     1       2.137   1.621  24.589  0.00  0.00    +0.277 C 
ENDBRANCH  25   4
BRANCH  27   5
ATOM      5  O   UNL     1       1.169   3.730  26.794  0.00  0.00    -0.491 OA
ATOM     35  C   UNL     1       1.551   3.018  27.969  0.00  0.00    +0.277 C 
ENDBRANCH  27   5
ENDBRANCH  14  16
ENDBRANCH   9  14
BRANCH  10  15
ATOM     15  C   UNL     1      -6.090   1.512  24.717  0.00  0.00    +0.124 C 
BRANCH  15  19
ATOM      3  O   UNL     1      -6.967   1.137  26.960  0.00  0.00    -0.251 OA
ATOM     19  C   UNL     1      -6.660   1.896  26.054  0.00  0.00    +0.305 C 
BRANCH  19   1
ATOM      1  O   UNL     1      -6.793   3.246  26.124  0.00  0.00    -0.481 OA
ATOM     39  H   UNL     1      -7.658   3.547  25.771  0.00  0.00    +0.295 HD
ENDBRANCH  19   1
ENDBRANCH  15  19
ENDBRANCH  10  15
TORSDOF 9
ENDMDL
MODEL 8
REMARK VINA RESULT:      17.1      2.419      3.015
REMARK  Name = 51136632
REMARK  13 active torsions:
REMARK  status: ('A' for Active; 'I' for Inactive)
REMARK    1  A    between atoms: O_1  and  C_19
REMARK    2  A    between atoms: O_4  and  C_25
REMARK    3  A    between atoms: O_4  and  C_34
REMARK    4  A    between atoms: O_5  and  C_27
REMARK    5  A    between atoms: O_5  and  C_35
REMARK    6  A    between atoms: N_8  and  C_26
REMARK    7  A    between atoms: C_9  and  C_14
REMARK    8  A    between atoms: C_10  and  C_15
REMARK    9  A    between atoms: C_14  and  C_16
REMARK   10  A    between atoms: C_15  and  C_19
REMARK   11  A    between atoms: C_30  and  C_33
REMARK   12  A    between atoms: C_33  and  C_36
REMARK   13  A    between atoms: C_33  and  C_37
REMARK                            x       y       z     vdW  Elec       q    Type
REMARK                         _______ _______ _______ _____ _____    ______ ____
ROOT
ATOM      2  O   UNL     1      -0.996  -2.992  23.744  0.00  0.00    -0.252 OA
ATOM      6  N   UNL     1      -2.678  -1.412  23.612  0.00  0.00    -0.285 N 
ATOM      8  N   UNL     1      -0.529  -0.942  22.765  0.00  0.00    -0.269 N 
ATOM      9  C   UNL     1      -3.753   0.667  24.429  0.00  0.00    +0.016 C 
ATOM     10  C   UNL     1      -4.773  -0.208  25.206  0.00  0.00    +0.006 C 
ATOM     11  C   UNL     1      -4.200  -1.599  25.534  0.00  0.00    +0.023 C 
ATOM     12  C   UNL     1      -3.233  -0.111  23.209  0.00  0.00    +0.113 C 
ATOM     13  C   UNL     1      -3.641  -2.284  24.287  0.00  0.00    +0.109 C 
ATOM     17  C   UNL     1      -1.363  -1.869  23.386  0.00  0.00    +0.306 C 
ATOM     38  H   UNL     1      -0.943  -0.259  22.140  0.00  0.00    +0.156 HD
ENDROOT
BRANCH   8  26
ATOM     26  C   UNL     1       0.875  -0.814  22.911  0.00  0.00    +0.035 A 
ATOM     28  C   UNL     1       1.621  -0.150  21.938  0.00  0.00    +0.023 A 
ATOM     29  C   UNL     1       1.511  -1.352  24.031  0.00  0.00    +0.023 A 
ATOM     30  C   UNL     1       3.638  -0.562  23.201  0.00  0.00    -0.045 A 
ATOM     31  C   UNL     1       3.003  -0.024  22.082  0.00  0.00    +0.006 A 
ATOM     32  C   UNL     1       2.892  -1.226  24.175  0.00  0.00    +0.006 A 
BRANCH  30  33
ATOM     33  C   UNL     1       5.116  -0.426  23.357  0.00  0.00    +0.013 C 
ATOM     36  C   UNL     1       5.528   0.958  23.893  0.00  0.00    +0.012 C 
ATOM     37  C   UNL     1       5.718  -1.532  24.245  0.00  0.00    +0.012 C 
ENDBRANCH  30  33
ENDBRANCH   8  26
BRANCH   9  14
ATOM     14  C   UNL     1      -2.584   1.169  25.284  0.00  0.00    +0.061 C 
BRANCH  14  16
ATOM      7  N   UNL     1      -3.632   3.136  26.180  0.00  0.00    -0.287 NA
ATOM     16  C   UNL     1      -2.676   2.667  25.448  0.00  0.00    +0.044 C 
ATOM     18  C   UNL     1      -1.676   3.525  24.762  0.00  0.00    +0.003 A 
ATOM     20  C   UNL     1      -2.003   4.878  24.611  0.00  0.00    -0.033 A 
ATOM     21  C   UNL     1      -3.325   5.363  25.129  0.00  0.00    +0.059 C 
ATOM     22  C   UNL     1      -3.685   4.587  26.389  0.00  0.00    +0.146 C 
ATOM     23  C   UNL     1      -0.467   3.030  24.269  0.00  0.00    +0.059 A 
ATOM     24  C   UNL     1      -1.123   5.730  23.939  0.00  0.00    +0.053 A 
ATOM     25  C   UNL     1       0.412   3.891  23.612  0.00  0.00    +0.162 A 
ATOM     27  C   UNL     1       0.085   5.237  23.444  0.00  0.00    +0.162 A 
BRANCH  25   4
ATOM      4  O   UNL     1       1.592   3.404  23.134  0.00  0.00    -0.491 OA
ATOM     34  C   UNL     1       2.054   2.172  23.684  0.00  0.00    +0.277 C 
ENDBRANCH  25   4
BRANCH  27   5
ATOM      5  O   UNL     1       0.937   6.080  22.797  0.00  0.00    -0.491 OA
ATOM     35  C   UNL     1       1.210   5.799  21.426  0.00  0.00    +0.277 C 
ENDBRANCH  27   5
ENDBRANCH  14  16
ENDBRANCH   9  14
BRANCH  10  15
ATOM     15  C   UNL     1      -5.304   0.468  26.469  0.00  0.00    +0.124 C 
BRANCH  15  19
ATOM      3  O   UNL     1      -6.665   1.896  25.038  0.00  0.00    -0.251 OA
ATOM     19  C   UNL     1      -6.228   1.607  26.141  0.00  0.00    +0.305 C 
BRANCH  19   1
ATOM      1  O   UNL     1      -6.524   2.297  27.273  0.00  0.00    -0.481 OA
ATOM     39  H   UNL     1      -5.969   3.100  27.369  0.00  0.00    +0.295 HD
ENDBRANCH  19   1
ENDBRANCH  15  19
ENDBRANCH  10  15
TORSDOF 9
ENDMDL
MODEL 9
REMARK VINA RESULT:      17.7      2.312      4.076
REMARK  Name = 51136632
REMARK  13 active torsions:
REMARK  status: ('A' for Active; 'I' for Inactive)
REMARK    1  A    between atoms: O_1  and  C_19
REMARK    2  A    between atoms: O_4  and  C_25
REMARK    3  A    between atoms: O_4  and  C_34
REMARK    4  A    between atoms: O_5  and  C_27
REMARK    5  A    between atoms: O_5  and  C_35
REMARK    6  A    between atoms: N_8  and  C_26
REMARK    7  A    between atoms: C_9  and  C_14
REMARK    8  A    between atoms: C_10  and  C_15
REMARK    9  A    between atoms: C_14  and  C_16
REMARK   10  A    between atoms: C_15  and  C_19
REMARK   11  A    between atoms: C_30  and  C_33
REMARK   12  A    between atoms: C_33  and  C_36
REMARK   13  A    between atoms: C_33  and  C_37
REMARK                            x       y       z     vdW  Elec       q    Type
REMARK                         _______ _______ _______ _____ _____    ______ ____
ROOT
ATOM      2  O   UNL     1       0.171  -1.304  26.058  0.00  0.00    -0.252 OA
ATOM      6  N   UNL     1      -1.664  -1.322  24.653  0.00  0.00    -0.285 N 
ATOM      8  N   UNL     1       0.513  -1.557  23.778  0.00  0.00    -0.269 N 
ATOM      9  C   UNL     1      -3.132  -0.187  23.008  0.00  0.00    +0.016 C 
ATOM     10  C   UNL     1      -4.139   0.094  24.155  0.00  0.00    +0.006 C 
ATOM     11  C   UNL     1      -3.446   0.127  25.529  0.00  0.00    +0.023 C 
ATOM     12  C   UNL     1      -2.314  -1.447  23.340  0.00  0.00    +0.113 C 
ATOM     13  C   UNL     1      -2.599  -1.123  25.761  0.00  0.00    +0.109 C 
ATOM     17  C   UNL     1      -0.280  -1.399  24.914  0.00  0.00    +0.306 C 
ATOM     38  H   UNL     1       0.121  -2.035  22.975  0.00  0.00    +0.156 HD
ENDROOT
BRANCH   8  26
ATOM     26  C   UNL     1       1.843  -1.103  23.588  0.00  0.00    +0.035 A 
ATOM     28  C   UNL     1       2.081   0.091  22.910  0.00  0.00    +0.023 A 
ATOM     29  C   UNL     1       2.911  -1.852  24.080  0.00  0.00    +0.023 A 
ATOM     30  C   UNL     1       4.459  -0.211  23.214  0.00  0.00    -0.045 A 
ATOM     31  C   UNL     1       3.390   0.538  22.722  0.00  0.00    +0.006 A 
ATOM     32  C   UNL     1       4.219  -1.406  23.893  0.00  0.00    +0.006 A 
BRANCH  30  33
ATOM     33  C   UNL     1       5.858   0.267  23.015  0.00  0.00    +0.013 C 
ATOM     36  C   UNL     1       6.356   1.137  24.185  0.00  0.00    +0.012 C 
ATOM     37  C   UNL     1       6.845  -0.890  22.768  0.00  0.00    +0.012 C 
ENDBRANCH  30  33
ENDBRANCH   8  26
BRANCH   9  14
ATOM     14  C   UNL     1      -2.201   0.988  22.692  0.00  0.00    +0.061 C 
BRANCH  14  16
ATOM      7  N   UNL     1      -0.628   1.151  24.499  0.00  0.00    -0.287 NA
ATOM     16  C   UNL     1      -1.714   1.616  23.976  0.00  0.00    +0.044 C 
ATOM     18  C   UNL     1      -2.501   2.723  24.576  0.00  0.00    +0.003 A 
ATOM     20  C   UNL     1      -2.257   3.014  25.923  0.00  0.00    -0.033 A 
ATOM     21  C   UNL     1      -1.244   2.193  26.665  0.00  0.00    +0.059 C 
ATOM     22  C   UNL     1      -0.121   1.800  25.714  0.00  0.00    +0.146 C 
ATOM     23  C   UNL     1      -3.456   3.446  23.857  0.00  0.00    +0.059 A 
ATOM     24  C   UNL     1      -2.993   4.018  26.557  0.00  0.00    +0.053 A 
ATOM     25  C   UNL     1      -4.176   4.457  24.495  0.00  0.00    +0.162 A 
ATOM     27  C   UNL     1      -3.948   4.741  25.842  0.00  0.00    +0.162 A 
BRANCH  25   4
ATOM      4  O   UNL     1      -5.106   5.161  23.790  0.00  0.00    -0.491 OA
ATOM     34  C   UNL     1      -4.618   6.091  22.825  0.00  0.00    +0.277 C 
ENDBRANCH  25   4
BRANCH  27   5
ATOM      5  O   UNL     1      -4.654   5.722  26.471  0.00  0.00    -0.491 OA
ATOM     35  C   UNL     1      -6.065   5.735  26.271  0.00  0.00    +0.277 C 
ENDBRANCH  27   5
ENDBRANCH  14  16
ENDBRANCH   9  14
BRANCH  10  15
ATOM     15  C   UNL     1      -4.961   1.363  23.934  0.00  0.00    +0.124 C 
BRANCH  15  19
ATOM      3  O   UNL     1      -5.728   1.736  26.217  0.00  0.00    -0.251 OA
ATOM     19  C   UNL     1      -5.968   1.570  25.031  0.00  0.00    +0.305 C 
BRANCH  19   1
ATOM      1  O   UNL     1      -7.222   1.548  24.511  0.00  0.00    -0.481 OA
ATOM     39  H   UNL     1      -7.593   2.451  24.412  0.00  0.00    +0.295 HD
ENDBRANCH  19   1
ENDBRANCH  15  19
ENDBRANCH  10  15
TORSDOF 9
ENDMDL
MODEL 10
REMARK VINA RESULT:      18.7      2.552      7.205
REMARK  Name = 51136632
REMARK  13 active torsions:
REMARK  status: ('A' for Active; 'I' for Inactive)
REMARK    1  A    between atoms: O_1  and  C_19
REMARK    2  A    between atoms: O_4  and  C_25
REMARK    3  A    between atoms: O_4  and  C_34
REMARK    4  A    between atoms: O_5  and  C_27
REMARK    5  A    between atoms: O_5  and  C_35
REMARK    6  A    between atoms: N_8  and  C_26
REMARK    7  A    between atoms: C_9  and  C_14
REMARK    8  A    between atoms: C_10  and  C_15
REMARK    9  A    between atoms: C_14  and  C_16
REMARK   10  A    between atoms: C_15  and  C_19
REMARK   11  A    between atoms: C_30  and  C_33
REMARK   12  A    between atoms: C_33  and  C_36
REMARK   13  A    between atoms: C_33  and  C_37
REMARK                            x       y       z     vdW  Elec       q    Type
REMARK                         _______ _______ _______ _____ _____    ______ ____
ROOT
ATOM      2  O   UNL     1      -1.581   0.472  20.705  0.00  0.00    -0.252 OA
ATOM      6  N   UNL     1       0.170  -0.560  21.805  0.00  0.00    -0.285 N 
ATOM      8  N   UNL     1      -1.895  -0.231  22.893  0.00  0.00    -0.269 N 
ATOM      9  C   UNL     1       2.027  -0.490  23.446  0.00  0.00    +0.016 C 
ATOM     10  C   UNL     1       3.015  -0.293  22.266  0.00  0.00    +0.006 C 
ATOM     11  C   UNL     1       2.327   0.341  21.044  0.00  0.00    +0.023 C 
ATOM     12  C   UNL     1       0.782  -1.246  22.953  0.00  0.00    +0.113 C 
ATOM     13  C   UNL     1       1.062  -0.422  20.653  0.00  0.00    +0.109 C 
ATOM     17  C   UNL     1      -1.151  -0.072  21.726  0.00  0.00    +0.306 C 
ATOM     38  H   UNL     1      -1.677  -1.009  23.505  0.00  0.00    +0.156 HD
ENDROOT
BRANCH   8  26
ATOM     26  C   UNL     1      -2.946   0.596  23.363  0.00  0.00    +0.035 A 
ATOM     28  C   UNL     1      -2.960   1.954  23.046  0.00  0.00    +0.023 A 
ATOM     29  C   UNL     1      -3.968   0.051  24.141  0.00  0.00    +0.023 A 
ATOM     30  C   UNL     1      -5.016   2.223  24.285  0.00  0.00    -0.045 A 
ATOM     31  C   UNL     1      -3.995   2.768  23.507  0.00  0.00    +0.006 A 
ATOM     32  C   UNL     1      -5.002   0.865  24.602  0.00  0.00    +0.006 A 
BRANCH  30  33
ATOM     33  C   UNL     1      -6.124   3.093  24.778  0.00  0.00    +0.013 C 
ATOM     36  C   UNL     1      -6.750   2.567  26.083  0.00  0.00    +0.012 C 
ATOM     37  C   UNL     1      -5.682   4.558  24.963  0.00  0.00    +0.012 C 
ENDBRANCH  30  33
ENDBRANCH   8  26
BRANCH   9  14
ATOM     14  C   UNL     1       1.622   0.812  24.145  0.00  0.00    +0.061 C 
BRANCH  14  16
ATOM      7  N   UNL     1       0.324  -0.654  25.535  0.00  0.00    -0.287 NA
ATOM     16  C   UNL     1       0.479   0.551  25.096  0.00  0.00    +0.044 C 
ATOM     18  C   UNL     1      -0.411   1.679  25.472  0.00  0.00    +0.003 A 
ATOM     20  C   UNL     1      -1.655   1.346  26.021  0.00  0.00    -0.033 A 
ATOM     21  C   UNL     1      -2.009  -0.104  26.178  0.00  0.00    +0.059 C 
ATOM     22  C   UNL     1      -0.750  -0.896  26.505  0.00  0.00    +0.146 C 
ATOM     23  C   UNL     1      -0.055   3.016  25.285  0.00  0.00    +0.059 A 
ATOM     24  C   UNL     1      -2.555   2.360  26.360  0.00  0.00    +0.053 A 
ATOM     25  C   UNL     1      -0.954   4.023  25.640  0.00  0.00    +0.162 A 
ATOM     27  C   UNL     1      -2.201   3.697  26.173  0.00  0.00    +0.162 A 
BRANCH  25   4
ATOM      4  O   UNL     1      -0.602   5.327  25.457  0.00  0.00    -0.491 OA
ATOM     34  C   UNL     1      -1.185   6.006  24.348  0.00  0.00    +0.277 C 
ENDBRANCH  25   4
BRANCH  27   5
ATOM      5  O   UNL     1      -3.085   4.676  26.513  0.00  0.00    -0.491 OA
ATOM     35  C   UNL     1      -3.842   4.479  27.706  0.00  0.00    +0.277 C 
ENDBRANCH  27   5
ENDBRANCH  14  16
ENDBRANCH   9  14
BRANCH  10  15
ATOM     15  C   UNL     1       4.263   0.498  22.654  0.00  0.00    +0.124 C 
BRANCH  15  19
ATOM      3  O   UNL     1       5.306  -1.364  23.831  0.00  0.00    -0.251 OA
ATOM     19  C   UNL     1       5.027  -0.177  23.759  0.00  0.00    +0.305 C 
BRANCH  19   1
ATOM      1  O   UNL     1       5.379   0.738  24.698  0.00  0.00    -0.481 OA
ATOM     39  H   UNL     1       4.595   1.141  25.129  0.00  0.00    +0.295 HD
ENDBRANCH  19   1
ENDBRANCH  15  19
ENDBRANCH  10  15
TORSDOF 9
ENDMDL
