MODEL 1
REMARK VINA RESULT:       6.0      0.000      0.000
REMARK  Name = 25312713
REMARK  7 active torsions:
REMARK  status: ('A' for Active; 'I' for Inactive)
REMARK    1  A    between atoms: O_3  and  C_29
REMARK    2  A    between atoms: N_6  and  C_17
REMARK    3  A    between atoms: C_14  and  C_18
REMARK    4  A    between atoms: C_16  and  C_23
REMARK    5  A    between atoms: C_17  and  C_18
REMARK    6  A    between atoms: C_23  and  C_29
REMARK    7  A    between atoms: C_26  and  C_30
REMARK                            x       y       z     vdW  Elec       q    Type
REMARK                         _______ _______ _______ _____ _____    ______ ____
ROOT
ATOM      4  O   UNL     1       3.059  -2.373  24.191  0.00  0.00    -0.269 OA
ATOM      8  N   UNL     1       1.144  -1.153  23.626  0.00  0.00    -0.297 N 
ATOM     14  C   UNL     1      -0.515   0.617  24.166  0.00  0.00    +0.011 C 
ATOM     16  C   UNL     1      -1.523  -0.499  24.545  0.00  0.00    +0.006 C 
ATOM     20  C   UNL     1       0.503   0.078  23.144  0.00  0.00    +0.112 C 
ATOM     21  C   UNL     1      -0.805  -1.782  24.997  0.00  0.00    +0.023 C 
ATOM     22  C   UNL     1       0.220  -2.235  23.961  0.00  0.00    +0.108 C 
ATOM     26  C   UNL     1       2.519  -1.346  23.783  0.00  0.00    +0.253 C 
ENDROOT
BRANCH  26  30
ATOM      1  S   UNL     1       5.048  -0.296  23.947  0.00  0.00    -0.092 S 
ATOM     30  C   UNL     1       3.414  -0.237  23.438  0.00  0.00    +0.074 A 
ATOM     31  C   UNL     1       3.135   0.909  22.727  0.00  0.00    +0.021 A 
ATOM     32  C   UNL     1       4.277   1.751  22.599  0.00  0.00    +0.008 A 
ATOM     33  C   UNL     1       5.386   1.217  23.216  0.00  0.00    +0.046 A 
ENDBRANCH  26  30
BRANCH  14  18
ATOM     18  C   UNL     1       0.212   1.232  25.368  0.00  0.00    +0.020 C 
BRANCH  18  17
ATOM     17  C   UNL     1      -0.184   2.692  25.569  0.00  0.00    +0.085 C 
BRANCH  17   6
ATOM      2  O   UNL     1      -5.615   0.195  24.101  0.00  0.00    -0.268 OA
ATOM      6  N   UNL     1      -1.510   2.940  25.006  0.00  0.00    -0.301 NA
ATOM      7  N   UNL     1      -4.583   2.263  24.479  0.00  0.00    -0.312 N 
ATOM      9  C   UNL     1      -2.834   3.273  22.903  0.00  0.00    +0.024 C 
ATOM     10  C   UNL     1      -3.477   4.479  24.936  0.00  0.00    +0.050 C 
ATOM     11  C   UNL     1      -3.356   4.608  23.421  0.00  0.00    +0.017 C 
ATOM     12  C   UNL     1      -1.463   2.960  23.539  0.00  0.00    +0.089 C 
ATOM     13  C   UNL     1      -2.086   4.181  25.543  0.00  0.00    +0.094 C 
ATOM     15  C   UNL     1      -3.880   2.187  23.191  0.00  0.00    +0.130 C 
ATOM     19  C   UNL     1      -4.462   3.385  25.307  0.00  0.00    +0.026 A 
ATOM     24  C   UNL     1      -5.200   3.481  26.426  0.00  0.00    +0.022 A 
ATOM     25  C   UNL     1      -5.452   1.201  24.792  0.00  0.00    +0.251 A 
ATOM     27  C   UNL     1      -6.102   2.430  26.803  0.00  0.00    +0.007 A 
ATOM     28  C   UNL     1      -6.234   1.335  26.052  0.00  0.00    +0.070 A 
ENDBRANCH  17   6
ENDBRANCH  18  17
ENDBRANCH  14  18
BRANCH  16  23
ATOM     23  C   UNL     1      -2.544  -0.057  25.592  0.00  0.00    +0.124 C 
BRANCH  23  29
ATOM      5  O   UNL     1      -3.515  -1.559  27.248  0.00  0.00    -0.251 OA
ATOM     29  C   UNL     1      -3.370  -1.212  26.085  0.00  0.00    +0.305 C 
BRANCH  29   3
ATOM      3  O   UNL     1      -3.954  -1.840  25.031  0.00  0.00    -0.481 OA
ATOM     34  H   UNL     1      -3.679  -1.448  24.175  0.00  0.00    +0.295 HD
ENDBRANCH  29   3
ENDBRANCH  23  29
ENDBRANCH  16  23
TORSDOF 7
ENDMDL
MODEL 2
REMARK VINA RESULT:       6.1      2.503      7.104
REMARK  Name = 25312713
REMARK  7 active torsions:
REMARK  status: ('A' for Active; 'I' for Inactive)
REMARK    1  A    between atoms: O_3  and  C_29
REMARK    2  A    between atoms: N_6  and  C_17
REMARK    3  A    between atoms: C_14  and  C_18
REMARK    4  A    between atoms: C_16  and  C_23
REMARK    5  A    between atoms: C_17  and  C_18
REMARK    6  A    between atoms: C_23  and  C_29
REMARK    7  A    between atoms: C_26  and  C_30
REMARK                            x       y       z     vdW  Elec       q    Type
REMARK                         _______ _______ _______ _____ _____    ______ ____
ROOT
ATOM      4  O   UNL     1      -4.335   3.091  23.037  0.00  0.00    -0.269 OA
ATOM      8  N   UNL     1      -3.900   1.724  24.885  0.00  0.00    -0.297 N 
ATOM     14  C   UNL     1      -2.578  -0.089  25.954  0.00  0.00    +0.011 C 
ATOM     16  C   UNL     1      -3.775  -1.046  25.721  0.00  0.00    +0.006 C 
ATOM     20  C   UNL     1      -3.079   1.364  26.050  0.00  0.00    +0.112 C 
ATOM     21  C   UNL     1      -4.630  -0.601  24.523  0.00  0.00    +0.023 C 
ATOM     22  C   UNL     1      -5.055   0.858  24.658  0.00  0.00    +0.108 C 
ATOM     26  C   UNL     1      -3.654   2.790  24.016  0.00  0.00    +0.253 C 
ENDROOT
BRANCH  26  30
ATOM      1  S   UNL     1      -2.621   4.925  25.395  0.00  0.00    -0.092 S 
ATOM     30  C   UNL     1      -2.485   3.636  24.276  0.00  0.00    +0.074 A 
ATOM     31  C   UNL     1      -1.222   3.554  23.733  0.00  0.00    +0.021 A 
ATOM     32  C   UNL     1      -0.354   4.563  24.241  0.00  0.00    +0.008 A 
ATOM     33  C   UNL     1      -0.986   5.377  25.154  0.00  0.00    +0.046 A 
ENDBRANCH  26  30
BRANCH  14  18
ATOM     18  C   UNL     1      -1.474  -0.203  24.895  0.00  0.00    +0.020 C 
BRANCH  18  17
ATOM     17  C   UNL     1      -0.187   0.471  25.360  0.00  0.00    +0.085 C 
BRANCH  17   6
ATOM      2  O   UNL     1       5.692   1.614  23.943  0.00  0.00    -0.268 OA
ATOM      6  N   UNL     1       0.858   0.321  24.349  0.00  0.00    -0.301 NA
ATOM      7  N   UNL     1       3.879   0.267  23.323  0.00  0.00    -0.312 N 
ATOM      9  C   UNL     1       1.775   1.178  22.179  0.00  0.00    +0.024 C 
ATOM     10  C   UNL     1       1.938  -1.210  22.697  0.00  0.00    +0.050 C 
ATOM     11  C   UNL     1       1.685  -0.215  21.568  0.00  0.00    +0.017 C 
ATOM     12  C   UNL     1       0.722   1.334  23.297  0.00  0.00    +0.089 C 
ATOM     13  C   UNL     1       0.859  -1.039  23.790  0.00  0.00    +0.094 C 
ATOM     15  C   UNL     1       3.208   1.407  22.683  0.00  0.00    +0.130 C 
ATOM     19  C   UNL     1       3.324  -1.017  23.284  0.00  0.00    +0.026 A 
ATOM     24  C   UNL     1       4.008  -2.063  23.780  0.00  0.00    +0.022 A 
ATOM     25  C   UNL     1       5.143   0.513  23.890  0.00  0.00    +0.251 A 
ATOM     27  C   UNL     1       5.301  -1.879  24.375  0.00  0.00    +0.007 A 
ATOM     28  C   UNL     1       5.859  -0.668  24.449  0.00  0.00    +0.070 A 
ENDBRANCH  17   6
ENDBRANCH  18  17
ENDBRANCH  14  18
BRANCH  16  23
ATOM     23  C   UNL     1      -3.356  -2.508  25.571  0.00  0.00    +0.124 C 
BRANCH  23  29
ATOM      5  O   UNL     1      -4.309  -3.101  23.408  0.00  0.00    -0.251 OA
ATOM     29  C   UNL     1      -3.338  -2.935  24.129  0.00  0.00    +0.305 C 
BRANCH  29   3
ATOM      3  O   UNL     1      -2.054  -3.116  23.723  0.00  0.00    -0.481 OA
ATOM     34  H   UNL     1      -1.879  -4.048  23.469  0.00  0.00    +0.295 HD
ENDBRANCH  29   3
ENDBRANCH  23  29
ENDBRANCH  16  23
TORSDOF 7
ENDMDL
MODEL 3
REMARK VINA RESULT:       6.4      2.863      7.382
REMARK  Name = 25312713
REMARK  7 active torsions:
REMARK  status: ('A' for Active; 'I' for Inactive)
REMARK    1  A    between atoms: O_3  and  C_29
REMARK    2  A    between atoms: N_6  and  C_17
REMARK    3  A    between atoms: C_14  and  C_18
REMARK    4  A    between atoms: C_16  and  C_23
REMARK    5  A    between atoms: C_17  and  C_18
REMARK    6  A    between atoms: C_23  and  C_29
REMARK    7  A    between atoms: C_26  and  C_30
REMARK                            x       y       z     vdW  Elec       q    Type
REMARK                         _______ _______ _______ _____ _____    ______ ____
ROOT
ATOM      4  O   UNL     1      -6.136   0.289  25.932  0.00  0.00    -0.269 OA
ATOM      8  N   UNL     1      -4.627   1.649  24.770  0.00  0.00    -0.297 N 
ATOM     14  C   UNL     1      -2.426   2.796  24.642  0.00  0.00    +0.011 C 
ATOM     16  C   UNL     1      -3.148   4.131  24.960  0.00  0.00    +0.006 C 
ATOM     20  C   UNL     1      -3.407   1.817  23.969  0.00  0.00    +0.112 C 
ATOM     21  C   UNL     1      -4.442   3.898  25.758  0.00  0.00    +0.023 C 
ATOM     22  C   UNL     1      -5.347   2.887  25.060  0.00  0.00    +0.108 C 
ATOM     26  C   UNL     1      -5.118   0.435  25.256  0.00  0.00    +0.253 C 
ENDROOT
BRANCH  26  30
ATOM      1  S   UNL     1      -3.217  -1.368  26.073  0.00  0.00    -0.092 S 
ATOM     30  C   UNL     1      -4.368  -0.787  24.946  0.00  0.00    +0.074 A 
ATOM     31  C   UNL     1      -4.447  -1.588  23.828  0.00  0.00    +0.021 A 
ATOM     32  C   UNL     1      -3.550  -2.693  23.898  0.00  0.00    +0.008 A 
ATOM     33  C   UNL     1      -2.821  -2.695  25.066  0.00  0.00    +0.046 A 
ENDBRANCH  26  30
BRANCH  14  18
ATOM     18  C   UNL     1      -1.770   2.137  25.861  0.00  0.00    +0.020 C 
BRANCH  18  17
ATOM     17  C   UNL     1      -0.249   2.140  25.742  0.00  0.00    +0.085 C 
BRANCH  17   6
ATOM      2  O   UNL     1       3.970   0.851  21.450  0.00  0.00    -0.268 OA
ATOM      6  N   UNL     1       0.183   1.178  24.730  0.00  0.00    -0.301 NA
ATOM      7  N   UNL     1       2.297  -0.153  22.746  0.00  0.00    -0.312 N 
ATOM      9  C   UNL     1      -0.202   0.299  22.414  0.00  0.00    +0.024 C 
ATOM     10  C   UNL     1       0.531  -1.234  24.178  0.00  0.00    +0.050 C 
ATOM     11  C   UNL     1      -0.378  -1.113  22.958  0.00  0.00    +0.017 C 
ATOM     12  C   UNL     1      -0.590   1.334  23.492  0.00  0.00    +0.089 C 
ATOM     13  C   UNL     1       0.106  -0.198  25.243  0.00  0.00    +0.094 C 
ATOM     15  C   UNL     1       1.245   0.467  21.929  0.00  0.00    +0.130 C 
ATOM     19  C   UNL     1       1.984  -1.031  23.789  0.00  0.00    +0.026 A 
ATOM     24  C   UNL     1       2.963  -1.672  24.450  0.00  0.00    +0.022 A 
ATOM     25  C   UNL     1       3.628   0.103  22.367  0.00  0.00    +0.251 A 
ATOM     27  C   UNL     1       4.341  -1.451  24.114  0.00  0.00    +0.007 A 
ATOM     28  C   UNL     1       4.685  -0.608  23.138  0.00  0.00    +0.070 A 
ENDBRANCH  17   6
ENDBRANCH  18  17
ENDBRANCH  14  18
BRANCH  16  23
ATOM     23  C   UNL     1      -2.251   5.144  25.671  0.00  0.00    +0.124 C 
BRANCH  23  29
ATOM      5  O   UNL     1      -0.013   5.346  24.727  0.00  0.00    -0.251 OA
ATOM     29  C   UNL     1      -1.187   5.682  24.755  0.00  0.00    +0.305 C 
BRANCH  29   3
ATOM      3  O   UNL     1      -1.723   6.623  23.934  0.00  0.00    -0.481 OA
ATOM     34  H   UNL     1      -1.563   7.532  24.266  0.00  0.00    +0.295 HD
ENDBRANCH  29   3
ENDBRANCH  23  29
ENDBRANCH  16  23
TORSDOF 7
ENDMDL
MODEL 4
REMARK VINA RESULT:       7.4      2.236      5.275
REMARK  Name = 25312713
REMARK  7 active torsions:
REMARK  status: ('A' for Active; 'I' for Inactive)
REMARK    1  A    between atoms: O_3  and  C_29
REMARK    2  A    between atoms: N_6  and  C_17
REMARK    3  A    between atoms: C_14  and  C_18
REMARK    4  A    between atoms: C_16  and  C_23
REMARK    5  A    between atoms: C_17  and  C_18
REMARK    6  A    between atoms: C_23  and  C_29
REMARK    7  A    between atoms: C_26  and  C_30
REMARK                            x       y       z     vdW  Elec       q    Type
REMARK                         _______ _______ _______ _____ _____    ______ ____
ROOT
ATOM      4  O   UNL     1       1.153   3.737  24.050  0.00  0.00    -0.269 OA
ATOM      8  N   UNL     1      -0.750   2.834  25.069  0.00  0.00    -0.297 N 
ATOM     14  C   UNL     1      -3.115   2.084  24.925  0.00  0.00    +0.011 C 
ATOM     16  C   UNL     1      -3.532   3.389  25.651  0.00  0.00    +0.006 C 
ATOM     20  C   UNL     1      -1.670   1.712  25.304  0.00  0.00    +0.112 C 
ATOM     21  C   UNL     1      -2.515   4.518  25.414  0.00  0.00    +0.023 C 
ATOM     22  C   UNL     1      -1.099   4.070  25.767  0.00  0.00    +0.108 C 
ATOM     26  C   UNL     1       0.384   2.798  24.254  0.00  0.00    +0.253 C 
ENDROOT
BRANCH  26  30
ATOM      1  S   UNL     1       2.335   1.182  23.201  0.00  0.00    -0.092 S 
ATOM     30  C   UNL     1       0.702   1.541  23.570  0.00  0.00    +0.074 A 
ATOM     31  C   UNL     1      -0.153   0.544  23.153  0.00  0.00    +0.021 A 
ATOM     32  C   UNL     1       0.542  -0.528  22.523  0.00  0.00    +0.008 A 
ATOM     33  C   UNL     1       1.902  -0.311  22.481  0.00  0.00    +0.046 A 
ENDBRANCH  26  30
BRANCH  14  18
ATOM     18  C   UNL     1      -3.266   2.145  23.400  0.00  0.00    +0.020 C 
BRANCH  18  17
ATOM     17  C   UNL     1      -3.999   0.918  22.865  0.00  0.00    +0.085 C 
BRANCH  17   6
ATOM      2  O   UNL     1       0.731  -2.420  24.955  0.00  0.00    -0.268 OA
ATOM      6  N   UNL     1      -3.605  -0.274  23.613  0.00  0.00    -0.301 NA
ATOM      7  N   UNL     1      -1.567  -2.088  25.267  0.00  0.00    -0.312 N 
ATOM      9  C   UNL     1      -3.334  -2.766  23.541  0.00  0.00    +0.024 C 
ATOM     10  C   UNL     1      -4.026  -1.688  25.630  0.00  0.00    +0.050 C 
ATOM     11  C   UNL     1      -4.244  -2.919  24.754  0.00  0.00    +0.017 C 
ATOM     12  C   UNL     1      -3.690  -1.475  22.773  0.00  0.00    +0.089 C 
ATOM     13  C   UNL     1      -4.406  -0.416  24.838  0.00  0.00    +0.094 C 
ATOM     15  C   UNL     1      -1.873  -2.788  24.012  0.00  0.00    +0.130 C 
ATOM     19  C   UNL     1      -2.585  -1.610  26.100  0.00  0.00    +0.026 A 
ATOM     24  C   UNL     1      -2.285  -1.072  27.294  0.00  0.00    +0.022 A 
ATOM     25  C   UNL     1      -0.210  -2.007  25.634  0.00  0.00    +0.251 A 
ATOM     27  C   UNL     1      -0.920  -0.957  27.725  0.00  0.00    +0.007 A 
ATOM     28  C   UNL     1       0.083  -1.383  26.954  0.00  0.00    +0.070 A 
ENDBRANCH  17   6
ENDBRANCH  18  17
ENDBRANCH  14  18
BRANCH  16  23
ATOM     23  C   UNL     1      -4.944   3.851  25.293  0.00  0.00    +0.124 C 
BRANCH  23  29
ATOM      5  O   UNL     1      -6.534   2.094  24.722  0.00  0.00    -0.251 OA
ATOM     29  C   UNL     1      -5.963   2.778  25.559  0.00  0.00    +0.305 C 
BRANCH  29   3
ATOM      3  O   UNL     1      -6.171   2.666  26.897  0.00  0.00    -0.481 OA
ATOM     34  H   UNL     1      -5.468   3.115  27.414  0.00  0.00    +0.295 HD
ENDBRANCH  29   3
ENDBRANCH  23  29
ENDBRANCH  16  23
TORSDOF 7
ENDMDL
MODEL 5
REMARK VINA RESULT:       7.7      2.258      3.945
REMARK  Name = 25312713
REMARK  7 active torsions:
REMARK  status: ('A' for Active; 'I' for Inactive)
REMARK    1  A    between atoms: O_3  and  C_29
REMARK    2  A    between atoms: N_6  and  C_17
REMARK    3  A    between atoms: C_14  and  C_18
REMARK    4  A    between atoms: C_16  and  C_23
REMARK    5  A    between atoms: C_17  and  C_18
REMARK    6  A    between atoms: C_23  and  C_29
REMARK    7  A    between atoms: C_26  and  C_30
REMARK                            x       y       z     vdW  Elec       q    Type
REMARK                         _______ _______ _______ _____ _____    ______ ____
ROOT
ATOM      4  O   UNL     1       0.836  -0.476  21.474  0.00  0.00    -0.269 OA
ATOM      8  N   UNL     1       0.656   1.356  22.919  0.00  0.00    -0.297 N 
ATOM     14  C   UNL     1       0.205   2.271  25.185  0.00  0.00    +0.011 C 
ATOM     16  C   UNL     1      -1.189   2.725  24.681  0.00  0.00    +0.006 C 
ATOM     20  C   UNL     1       1.189   2.192  24.004  0.00  0.00    +0.112 C 
ATOM     21  C   UNL     1      -1.682   1.851  23.516  0.00  0.00    +0.023 C 
ATOM     22  C   UNL     1      -0.643   1.779  22.401  0.00  0.00    +0.108 C 
ATOM     26  C   UNL     1       1.281   0.230  22.379  0.00  0.00    +0.253 C 
ENDROOT
BRANCH  26  30
ATOM      1  S   UNL     1       3.916   0.900  22.754  0.00  0.00    -0.092 S 
ATOM     30  C   UNL     1       2.584  -0.164  22.925  0.00  0.00    +0.074 A 
ATOM     31  C   UNL     1       2.928  -1.319  23.592  0.00  0.00    +0.021 A 
ATOM     32  C   UNL     1       4.302  -1.331  23.968  0.00  0.00    +0.008 A 
ATOM     33  C   UNL     1       4.957  -0.186  23.574  0.00  0.00    +0.046 A 
ENDBRANCH  26  30
BRANCH  14  18
ATOM     18  C   UNL     1       0.187   0.943  25.953  0.00  0.00    +0.020 C 
BRANCH  18  17
ATOM     17  C   UNL     1      -0.128  -0.228  25.027  0.00  0.00    +0.085 C 
BRANCH  17   6
ATOM      2  O   UNL     1      -5.615   1.472  27.235  0.00  0.00    -0.268 OA
ATOM      6  N   UNL     1      -1.560  -0.518  25.044  0.00  0.00    -0.301 NA
ATOM      7  N   UNL     1      -4.631   0.191  25.539  0.00  0.00    -0.312 N 
ATOM      9  C   UNL     1      -3.362  -1.990  25.979  0.00  0.00    +0.024 C 
ATOM     10  C   UNL     1      -3.564  -1.143  23.689  0.00  0.00    +0.050 C 
ATOM     11  C   UNL     1      -3.814  -2.362  24.572  0.00  0.00    +0.017 C 
ATOM     12  C   UNL     1      -1.864  -1.615  25.971  0.00  0.00    +0.089 C 
ATOM     13  C   UNL     1      -2.056  -0.804  23.690  0.00  0.00    +0.094 C 
ATOM     15  C   UNL     1      -4.252  -0.853  26.501  0.00  0.00    +0.130 C 
ATOM     19  C   UNL     1      -4.375   0.046  24.171  0.00  0.00    +0.026 A 
ATOM     24  C   UNL     1      -4.830   0.961  23.298  0.00  0.00    +0.022 A 
ATOM     25  C   UNL     1      -5.345   1.292  26.047  0.00  0.00    +0.251 A 
ATOM     27  C   UNL     1      -5.561   2.110  23.753  0.00  0.00    +0.007 A 
ATOM     28  C   UNL     1      -5.811   2.296  25.051  0.00  0.00    +0.070 A 
ENDBRANCH  17   6
ENDBRANCH  18  17
ENDBRANCH  14  18
BRANCH  16  23
ATOM     23  C   UNL     1      -2.238   2.787  25.791  0.00  0.00    +0.124 C 
BRANCH  23  29
ATOM      5  O   UNL     1      -3.642   4.543  26.732  0.00  0.00    -0.251 OA
ATOM     29  C   UNL     1      -2.688   4.198  26.051  0.00  0.00    +0.305 C 
BRANCH  29   3
ATOM      3  O   UNL     1      -1.865   5.067  25.408  0.00  0.00    -0.481 OA
ATOM     34  H   UNL     1      -1.489   4.676  24.590  0.00  0.00    +0.295 HD
ENDBRANCH  29   3
ENDBRANCH  23  29
ENDBRANCH  16  23
TORSDOF 7
ENDMDL
MODEL 6
REMARK VINA RESULT:       8.3      2.696      5.834
REMARK  Name = 25312713
REMARK  7 active torsions:
REMARK  status: ('A' for Active; 'I' for Inactive)
REMARK    1  A    between atoms: O_3  and  C_29
REMARK    2  A    between atoms: N_6  and  C_17
REMARK    3  A    between atoms: C_14  and  C_18
REMARK    4  A    between atoms: C_16  and  C_23
REMARK    5  A    between atoms: C_17  and  C_18
REMARK    6  A    between atoms: C_23  and  C_29
REMARK    7  A    between atoms: C_26  and  C_30
REMARK                            x       y       z     vdW  Elec       q    Type
REMARK                         _______ _______ _______ _____ _____    ______ ____
ROOT
ATOM      4  O   UNL     1      -3.976  -2.074  25.498  0.00  0.00    -0.269 OA
ATOM      8  N   UNL     1      -2.146  -0.651  25.180  0.00  0.00    -0.297 N 
ATOM     14  C   UNL     1      -0.762   0.769  23.682  0.00  0.00    +0.011 C 
ATOM     16  C   UNL     1       0.304  -0.356  23.664  0.00  0.00    +0.006 C 
ATOM     20  C   UNL     1      -1.584   0.692  24.981  0.00  0.00    +0.112 C 
ATOM     21  C   UNL     1      -0.325  -1.735  23.923  0.00  0.00    +0.023 C 
ATOM     22  C   UNL     1      -1.161  -1.731  25.200  0.00  0.00    +0.108 C 
ATOM     26  C   UNL     1      -3.501  -0.950  25.338  0.00  0.00    +0.253 C 
ENDROOT
BRANCH  26  30
ATOM      1  S   UNL     1      -5.808   0.071  24.258  0.00  0.00    -0.092 S 
ATOM     30  C   UNL     1      -4.459   0.159  25.311  0.00  0.00    +0.074 A 
ATOM     31  C   UNL     1      -4.449   1.327  26.041  0.00  0.00    +0.021 A 
ATOM     32  C   UNL     1      -5.561   2.162  25.731  0.00  0.00    +0.008 A 
ATOM     33  C   UNL     1      -6.381   1.600  24.778  0.00  0.00    +0.046 A 
ENDBRANCH  26  30
BRANCH  14  18
ATOM     18  C   UNL     1      -1.692   0.764  22.462  0.00  0.00    +0.020 C 
BRANCH  18  17
ATOM     17  C   UNL     1      -2.699   1.909  22.527  0.00  0.00    +0.085 C 
BRANCH  17   6
ATOM      2  O   UNL     1      -2.651   3.319  28.518  0.00  0.00    -0.268 OA
ATOM      6  N   UNL     1      -2.288   2.891  23.529  0.00  0.00    -0.301 NA
ATOM      7  N   UNL     1      -1.612   3.865  26.491  0.00  0.00    -0.312 N 
ATOM      9  C   UNL     1      -2.801   5.104  24.589  0.00  0.00    +0.024 C 
ATOM     10  C   UNL     1      -0.468   4.411  24.315  0.00  0.00    +0.050 C 
ATOM     11  C   UNL     1      -1.406   5.612  24.248  0.00  0.00    +0.017 C 
ATOM     12  C   UNL     1      -3.228   4.016  23.580  0.00  0.00    +0.089 C 
ATOM     13  C   UNL     1      -0.912   3.349  23.284  0.00  0.00    +0.094 C 
ATOM     15  C   UNL     1      -2.804   4.597  26.039  0.00  0.00    +0.130 C 
ATOM     19  C   UNL     1      -0.450   3.819  25.713  0.00  0.00    +0.026 A 
ATOM     24  C   UNL     1       0.662   3.238  26.195  0.00  0.00    +0.022 A 
ATOM     25  C   UNL     1      -1.666   3.299  27.778  0.00  0.00    +0.251 A 
ATOM     27  C   UNL     1       0.671   2.639  27.499  0.00  0.00    +0.007 A 
ATOM     28  C   UNL     1      -0.421   2.645  28.267  0.00  0.00    +0.070 A 
ENDBRANCH  17   6
ENDBRANCH  18  17
ENDBRANCH  14  18
BRANCH  16  23
ATOM     23  C   UNL     1       1.137  -0.376  22.383  0.00  0.00    +0.124 C 
BRANCH  23  29
ATOM      5  O   UNL     1       3.502   0.069  21.994  0.00  0.00    -0.251 OA
ATOM     29  C   UNL     1       2.453   0.328  22.565  0.00  0.00    +0.305 C 
BRANCH  29   3
ATOM      3  O   UNL     1       2.316   1.324  23.479  0.00  0.00    -0.481 OA
ATOM     34  H   UNL     1       2.627   1.050  24.368  0.00  0.00    +0.295 HD
ENDBRANCH  29   3
ENDBRANCH  23  29
ENDBRANCH  16  23
TORSDOF 7
ENDMDL
MODEL 7
REMARK VINA RESULT:       8.4      2.269      4.911
REMARK  Name = 25312713
REMARK  7 active torsions:
REMARK  status: ('A' for Active; 'I' for Inactive)
REMARK    1  A    between atoms: O_3  and  C_29
REMARK    2  A    between atoms: N_6  and  C_17
REMARK    3  A    between atoms: C_14  and  C_18
REMARK    4  A    between atoms: C_16  and  C_23
REMARK    5  A    between atoms: C_17  and  C_18
REMARK    6  A    between atoms: C_23  and  C_29
REMARK    7  A    between atoms: C_26  and  C_30
REMARK                            x       y       z     vdW  Elec       q    Type
REMARK                         _______ _______ _______ _____ _____    ______ ____
ROOT
ATOM      4  O   UNL     1      -2.066  -0.047  21.651  0.00  0.00    -0.269 OA
ATOM      8  N   UNL     1      -0.041  -0.655  22.655  0.00  0.00    -0.297 N 
ATOM     14  C   UNL     1       1.942  -0.057  24.029  0.00  0.00    +0.011 C 
ATOM     16  C   UNL     1       2.779  -0.005  22.725  0.00  0.00    +0.006 C 
ATOM     20  C   UNL     1       0.745  -1.008  23.845  0.00  0.00    +0.112 C 
ATOM     21  C   UNL     1       1.905   0.322  21.503  0.00  0.00    +0.023 C 
ATOM     22  C   UNL     1       0.715  -0.629  21.405  0.00  0.00    +0.108 C 
ATOM     26  C   UNL     1      -1.405  -0.349  22.644  0.00  0.00    +0.253 C 
ENDROOT
BRANCH  26  30
ATOM      1  S   UNL     1      -1.679  -1.537  25.102  0.00  0.00    -0.092 S 
ATOM     30  C   UNL     1      -2.130  -0.385  23.917  0.00  0.00    +0.074 A 
ATOM     31  C   UNL     1      -3.176   0.406  24.338  0.00  0.00    +0.021 A 
ATOM     32  C   UNL     1      -3.614   0.062  25.649  0.00  0.00    +0.008 A 
ATOM     33  C   UNL     1      -2.885  -0.979  26.182  0.00  0.00    +0.046 A 
ENDBRANCH  26  30
BRANCH  14  18
ATOM     18  C   UNL     1       1.460   1.316  24.514  0.00  0.00    +0.020 C 
BRANCH  18  17
ATOM     17  C   UNL     1       0.229   1.189  25.407  0.00  0.00    +0.085 C 
BRANCH  17   6
ATOM      2  O   UNL     1      -4.916   3.051  22.590  0.00  0.00    -0.268 OA
ATOM      6  N   UNL     1      -0.680   2.311  25.181  0.00  0.00    -0.301 NA
ATOM      7  N   UNL     1      -3.453   3.635  24.323  0.00  0.00    -0.312 N 
ATOM      9  C   UNL     1      -1.056   4.449  23.927  0.00  0.00    +0.024 C 
ATOM     10  C   UNL     1      -1.902   4.229  26.216  0.00  0.00    +0.050 C 
ATOM     11  C   UNL     1      -1.255   5.204  25.236  0.00  0.00    +0.017 C 
ATOM     12  C   UNL     1      -0.151   3.220  24.159  0.00  0.00    +0.089 C 
ATOM     13  C   UNL     1      -0.964   3.020  26.437  0.00  0.00    +0.094 C 
ATOM     15  C   UNL     1      -2.432   4.069  23.360  0.00  0.00    +0.130 C 
ATOM     19  C   UNL     1      -3.253   3.765  25.702  0.00  0.00    +0.026 A 
ATOM     24  C   UNL     1      -4.243   3.465  26.559  0.00  0.00    +0.022 A 
ATOM     25  C   UNL     1      -4.672   3.174  23.791  0.00  0.00    +0.251 A 
ATOM     27  C   UNL     1      -5.509   2.986  26.081  0.00  0.00    +0.007 A 
ATOM     28  C   UNL     1      -5.736   2.830  24.774  0.00  0.00    +0.070 A 
ENDBRANCH  17   6
ENDBRANCH  18  17
ENDBRANCH  14  18
BRANCH  16  23
ATOM     23  C   UNL     1       3.966   0.955  22.811  0.00  0.00    +0.124 C 
BRANCH  23  29
ATOM      5  O   UNL     1       6.013  -0.364  22.913  0.00  0.00    -0.251 OA
ATOM     29  C   UNL     1       5.156   0.309  23.465  0.00  0.00    +0.305 C 
BRANCH  29   3
ATOM      3  O   UNL     1       5.153   0.584  24.795  0.00  0.00    -0.481 OA
ATOM     34  H   UNL     1       5.878   0.121  25.266  0.00  0.00    +0.295 HD
ENDBRANCH  29   3
ENDBRANCH  23  29
ENDBRANCH  16  23
TORSDOF 7
ENDMDL
MODEL 8
REMARK VINA RESULT:       8.8      2.772      5.641
REMARK  Name = 25312713
REMARK  7 active torsions:
REMARK  status: ('A' for Active; 'I' for Inactive)
REMARK    1  A    between atoms: O_3  and  C_29
REMARK    2  A    between atoms: N_6  and  C_17
REMARK    3  A    between atoms: C_14  and  C_18
REMARK    4  A    between atoms: C_16  and  C_23
REMARK    5  A    between atoms: C_17  and  C_18
REMARK    6  A    between atoms: C_23  and  C_29
REMARK    7  A    between atoms: C_26  and  C_30
REMARK                            x       y       z     vdW  Elec       q    Type
REMARK                         _______ _______ _______ _____ _____    ______ ____
ROOT
ATOM      4  O   UNL     1       0.526   5.279  24.800  0.00  0.00    -0.269 OA
ATOM      8  N   UNL     1       0.047   3.221  23.794  0.00  0.00    -0.297 N 
ATOM     14  C   UNL     1      -0.060   0.741  23.917  0.00  0.00    +0.011 C 
ATOM     16  C   UNL     1       1.236   0.682  23.068  0.00  0.00    +0.006 C 
ATOM     20  C   UNL     1      -0.820   2.048  23.623  0.00  0.00    +0.112 C 
ATOM     21  C   UNL     1       2.086   1.951  23.244  0.00  0.00    +0.023 C 
ATOM     22  C   UNL     1       1.263   3.209  22.981  0.00  0.00    +0.108 C 
ATOM     26  C   UNL     1      -0.200   4.297  24.649  0.00  0.00    +0.253 C 
ENDROOT
BRANCH  26  30
ATOM      1  S   UNL     1      -2.514   5.595  25.349  0.00  0.00    -0.092 S 
ATOM     30  C   UNL     1      -1.429   4.274  25.449  0.00  0.00    +0.074 A 
ATOM     31  C   UNL     1      -1.876   3.302  26.317  0.00  0.00    +0.021 A 
ATOM     32  C   UNL     1      -3.126   3.647  26.908  0.00  0.00    +0.008 A 
ATOM     33  C   UNL     1      -3.587   4.868  26.470  0.00  0.00    +0.046 A 
ENDBRANCH  26  30
BRANCH  14  18
ATOM     18  C   UNL     1       0.177   0.591  25.425  0.00  0.00    +0.020 C 
BRANCH  18  17
ATOM     17  C   UNL     1      -0.676  -0.530  26.012  0.00  0.00    +0.085 C 
BRANCH  17   6
ATOM      2  O   UNL     1      -6.189   2.147  26.580  0.00  0.00    -0.268 OA
ATOM      6  N   UNL     1      -2.038  -0.459  25.489  0.00  0.00    -0.301 NA
ATOM      7  N   UNL     1      -4.891   0.908  25.074  0.00  0.00    -0.312 N 
ATOM      9  C   UNL     1      -4.291  -1.557  25.429  0.00  0.00    +0.024 C 
ATOM     10  C   UNL     1      -3.471  -0.381  23.443  0.00  0.00    +0.050 C 
ATOM     11  C   UNL     1      -4.246  -1.611  23.907  0.00  0.00    +0.017 C 
ATOM     12  C   UNL     1      -2.857  -1.563  26.001  0.00  0.00    +0.089 C 
ATOM     13  C   UNL     1      -2.037  -0.426  24.019  0.00  0.00    +0.094 C 
ATOM     15  C   UNL     1      -5.091  -0.318  25.858  0.00  0.00    +0.130 C 
ATOM     19  C   UNL     1      -4.175   0.893  23.872  0.00  0.00    +0.026 A 
ATOM     24  C   UNL     1      -4.099   2.002  23.117  0.00  0.00    +0.022 A 
ATOM     25  C   UNL     1      -5.533   2.071  25.541  0.00  0.00    +0.251 A 
ATOM     27  C   UNL     1      -4.728   3.222  23.539  0.00  0.00    +0.007 A 
ATOM     28  C   UNL     1      -5.405   3.285  24.687  0.00  0.00    +0.070 A 
ENDBRANCH  17   6
ENDBRANCH  18  17
ENDBRANCH  14  18
BRANCH  16  23
ATOM     23  C   UNL     1       2.073  -0.568  23.335  0.00  0.00    +0.124 C 
BRANCH  23  29
ATOM      5  O   UNL     1       4.004   0.473  22.274  0.00  0.00    -0.251 OA
ATOM     29  C   UNL     1       3.533  -0.327  23.068  0.00  0.00    +0.305 C 
BRANCH  29   3
ATOM      3  O   UNL     1       4.282  -1.142  23.854  0.00  0.00    -0.481 OA
ATOM     34  H   UNL     1       3.813  -1.385  24.681  0.00  0.00    +0.295 HD
ENDBRANCH  29   3
ENDBRANCH  23  29
ENDBRANCH  16  23
TORSDOF 7
ENDMDL
