MODEL 1
REMARK VINA RESULT:      -0.3      0.000      0.000
REMARK  Name = 75368669
REMARK  4 active torsions:
REMARK  status: ('A' for Active; 'I' for Inactive)
REMARK    1  A    between atoms: N_4  and  C_10
REMARK    2  A    between atoms: N_5  and  C_16
REMARK    3  A    between atoms: N_6  and  C_25
REMARK    4  A    between atoms: C_16  and  C_19
REMARK                            x       y       z     vdW  Elec       q    Type
REMARK                         _______ _______ _______ _____ _____    ______ ____
ROOT
ATOM      2  O   UNL     1      -7.704  -8.424  11.637  0.00  0.00    -0.252 OA
ATOM      3  N   UNL     1      -5.912  -9.711  10.830  0.00  0.00    -0.278 N 
ATOM      4  N   UNL     1      -7.230  -8.670   9.339  0.00  0.00    -0.280 N 
ATOM      5  N   UNL     1      -3.306 -10.751  10.634  0.00  0.00    -0.295 NA
ATOM      7  C   UNL     1      -5.432 -10.164   9.541  0.00  0.00    +0.109 C 
ATOM      8  C   UNL     1      -6.178  -9.279   8.544  0.00  0.00    +0.133 C 
ATOM      9  C   UNL     1      -3.908 -10.061   9.475  0.00  0.00    +0.109 C 
ATOM     11  C   UNL     1      -5.288 -10.213  12.035  0.00  0.00    +0.125 C 
ATOM     12  C   UNL     1      -7.036  -8.881  10.719  0.00  0.00    +0.305 C 
ATOM     13  C   UNL     1      -3.764 -10.148  11.903  0.00  0.00    +0.104 C 
ENDROOT
BRANCH   4  10
ATOM      1  O   UNL     1     -10.094  -5.640   9.007  0.00  0.00    -0.380 OA
ATOM     10  C   UNL     1      -8.245  -7.832   8.750  0.00  0.00    +0.082 C 
ATOM     14  C   UNL     1      -7.795  -6.372   8.716  0.00  0.00    +0.050 C 
ATOM     15  C   UNL     1      -9.571  -7.961   9.500  0.00  0.00    +0.050 C 
ATOM     17  C   UNL     1      -8.920  -5.474   8.213  0.00  0.00    +0.161 C 
ATOM     18  C   UNL     1     -10.597  -6.976   8.952  0.00  0.00    +0.161 C 
ENDBRANCH   4  10
BRANCH   5  16
ATOM     16  C   UNL     1      -1.846 -10.711  10.549  0.00  0.00    +0.121 C 
BRANCH  16  19
ATOM      6  N   UNL     1      -0.079  -8.212  12.592  0.00  0.00    -0.349 N 
ATOM     19  C   UNL     1      -1.248  -9.820  11.607  0.00  0.00    -0.008 A 
ATOM     20  C   UNL     1      -1.456  -9.915  13.010  0.00  0.00    +0.004 A 
ATOM     21  C   UNL     1      -0.397  -8.763  11.380  0.00  0.00    +0.091 A 
ATOM     22  C   UNL     1      -0.712  -8.895  13.606  0.00  0.00    +0.049 A 
ATOM     23  C   UNL     1      -2.209 -10.775  13.835  0.00  0.00    +0.010 A 
ATOM     24  C   UNL     1      -0.683  -8.689  14.990  0.00  0.00    +0.026 A 
ATOM     25  C   UNL     1       0.798  -7.073  12.765  0.00  0.00    +0.149 C 
ATOM     26  C   UNL     1      -2.189 -10.581  15.222  0.00  0.00    +0.001 A 
ATOM     27  C   UNL     1      -1.437  -9.554  15.787  0.00  0.00    +0.002 A 
ENDBRANCH  16  19
ENDBRANCH   5  16
TORSDOF 3
ENDMDL
MODEL 2
REMARK VINA RESULT:       1.2      0.690      2.074
REMARK  Name = 75368669
REMARK  4 active torsions:
REMARK  status: ('A' for Active; 'I' for Inactive)
REMARK    1  A    between atoms: N_4  and  C_10
REMARK    2  A    between atoms: N_5  and  C_16
REMARK    3  A    between atoms: N_6  and  C_25
REMARK    4  A    between atoms: C_16  and  C_19
REMARK                            x       y       z     vdW  Elec       q    Type
REMARK                         _______ _______ _______ _____ _____    ______ ____
ROOT
ATOM      2  O   UNL     1      -8.043  -8.959  11.523  0.00  0.00    -0.252 OA
ATOM      3  N   UNL     1      -6.108  -9.955  10.638  0.00  0.00    -0.278 N 
ATOM      4  N   UNL     1      -7.393  -8.724   9.268  0.00  0.00    -0.280 N 
ATOM      5  N   UNL     1      -3.424 -10.780  10.464  0.00  0.00    -0.295 NA
ATOM      7  C   UNL     1      -5.507 -10.119   9.331  0.00  0.00    +0.109 C 
ATOM      8  C   UNL     1      -6.245  -9.103   8.462  0.00  0.00    +0.133 C 
ATOM      9  C   UNL     1      -3.994  -9.914   9.412  0.00  0.00    +0.109 C 
ATOM     11  C   UNL     1      -5.534 -10.645  11.774  0.00  0.00    +0.125 C 
ATOM     12  C   UNL     1      -7.280  -9.188  10.594  0.00  0.00    +0.305 C 
ATOM     13  C   UNL     1      -4.013 -10.464  11.782  0.00  0.00    +0.104 C 
ENDROOT
BRANCH   4  10
ATOM      1  O   UNL     1     -10.165  -5.594   9.178  0.00  0.00    -0.380 OA
ATOM     10  C   UNL     1      -8.424  -7.850   8.767  0.00  0.00    +0.082 C 
ATOM     14  C   UNL     1      -7.927  -6.406   8.693  0.00  0.00    +0.050 C 
ATOM     15  C   UNL     1      -9.685  -7.933   9.627  0.00  0.00    +0.050 C 
ATOM     17  C   UNL     1      -9.057  -5.468   8.287  0.00  0.00    +0.161 C 
ATOM     18  C   UNL     1     -10.718  -6.911   9.167  0.00  0.00    +0.161 C 
ENDBRANCH   4  10
BRANCH   5  16
ATOM     16  C   UNL     1      -1.969 -10.637  10.510  0.00  0.00    +0.121 C 
BRANCH  16  19
ATOM      6  N   UNL     1      -1.247  -9.703  13.995  0.00  0.00    -0.349 N 
ATOM     19  C   UNL     1      -1.504 -10.055  11.819  0.00  0.00    -0.008 A 
ATOM     20  C   UNL     1      -0.596  -8.974  11.990  0.00  0.00    +0.004 A 
ATOM     21  C   UNL     1      -1.887 -10.483  13.069  0.00  0.00    +0.091 A 
ATOM     22  C   UNL     1      -0.451  -8.773  13.364  0.00  0.00    +0.049 A 
ATOM     23  C   UNL     1       0.120  -8.144  11.105  0.00  0.00    +0.010 A 
ATOM     24  C   UNL     1       0.376  -7.780  13.900  0.00  0.00    +0.026 A 
ATOM     25  C   UNL     1      -1.396  -9.849  15.427  0.00  0.00    +0.149 C 
ATOM     26  C   UNL     1       0.952  -7.146  11.626  0.00  0.00    +0.001 A 
ATOM     27  C   UNL     1       1.076  -6.969  13.002  0.00  0.00    +0.002 A 
ENDBRANCH  16  19
ENDBRANCH   5  16
TORSDOF 3
ENDMDL
MODEL 3
REMARK VINA RESULT:       2.4     15.094     18.382
REMARK  Name = 75368669
REMARK  4 active torsions:
REMARK  status: ('A' for Active; 'I' for Inactive)
REMARK    1  A    between atoms: N_4  and  C_10
REMARK    2  A    between atoms: N_5  and  C_16
REMARK    3  A    between atoms: N_6  and  C_25
REMARK    4  A    between atoms: C_16  and  C_19
REMARK                            x       y       z     vdW  Elec       q    Type
REMARK                         _______ _______ _______ _____ _____    ______ ____
ROOT
ATOM      2  O   UNL     1       0.492   0.130  21.190  0.00  0.00    -0.252 OA
ATOM      3  N   UNL     1      -0.870  -0.484  23.002  0.00  0.00    -0.278 N 
ATOM      4  N   UNL     1       1.357  -0.667  23.234  0.00  0.00    -0.280 N 
ATOM      5  N   UNL     1      -2.953  -0.343  24.887  0.00  0.00    -0.295 NA
ATOM      7  C   UNL     1      -0.689  -1.107  24.297  0.00  0.00    +0.109 C 
ATOM      8  C   UNL     1       0.816  -1.014  24.538  0.00  0.00    +0.133 C 
ATOM      9  C   UNL     1      -1.551  -0.409  25.349  0.00  0.00    +0.109 C 
ATOM     11  C   UNL     1      -2.210  -0.235  22.517  0.00  0.00    +0.125 C 
ATOM     12  C   UNL     1       0.344  -0.291  22.329  0.00  0.00    +0.305 C 
ATOM     13  C   UNL     1      -3.056   0.409  23.620  0.00  0.00    +0.104 C 
ENDROOT
BRANCH   4  10
ATOM      1  O   UNL     1       5.406   0.102  23.938  0.00  0.00    -0.380 OA
ATOM     10  C   UNL     1       2.775  -0.586  22.992  0.00  0.00    +0.082 C 
ATOM     14  C   UNL     1       3.548  -1.463  23.977  0.00  0.00    +0.050 C 
ATOM     15  C   UNL     1       3.267   0.860  23.072  0.00  0.00    +0.050 C 
ATOM     17  C   UNL     1       5.051  -1.274  23.802  0.00  0.00    +0.161 C 
ATOM     18  C   UNL     1       4.785   0.920  22.946  0.00  0.00    +0.161 C 
ENDBRANCH   4  10
BRANCH   5  16
ATOM     16  C   UNL     1      -3.798   0.270  25.912  0.00  0.00    +0.121 C 
BRANCH  16  19
ATOM      6  N   UNL     1      -4.864   3.758  25.427  0.00  0.00    -0.349 N 
ATOM     19  C   UNL     1      -3.953   1.752  25.698  0.00  0.00    -0.008 A 
ATOM     20  C   UNL     1      -2.904   2.698  25.530  0.00  0.00    +0.004 A 
ATOM     21  C   UNL     1      -5.147   2.434  25.630  0.00  0.00    +0.091 A 
ATOM     22  C   UNL     1      -3.501   3.949  25.362  0.00  0.00    +0.049 A 
ATOM     23  C   UNL     1      -1.498   2.610  25.504  0.00  0.00    +0.010 A 
ATOM     24  C   UNL     1      -2.762   5.120  25.170  0.00  0.00    +0.026 A 
ATOM     25  C   UNL     1      -5.865   4.796  25.303  0.00  0.00    +0.149 C 
ATOM     26  C   UNL     1      -0.744   3.774  25.312  0.00  0.00    +0.001 A 
ATOM     27  C   UNL     1      -1.369   5.009  25.148  0.00  0.00    +0.002 A 
ENDBRANCH  16  19
ENDBRANCH   5  16
TORSDOF 3
ENDMDL
MODEL 4
REMARK VINA RESULT:       3.0     15.337     17.877
REMARK  Name = 75368669
REMARK  4 active torsions:
REMARK  status: ('A' for Active; 'I' for Inactive)
REMARK    1  A    between atoms: N_4  and  C_10
REMARK    2  A    between atoms: N_5  and  C_16
REMARK    3  A    between atoms: N_6  and  C_25
REMARK    4  A    between atoms: C_16  and  C_19
REMARK                            x       y       z     vdW  Elec       q    Type
REMARK                         _______ _______ _______ _____ _____    ______ ____
ROOT
ATOM      2  O   UNL     1      -0.202  -2.592  22.776  0.00  0.00    -0.252 OA
ATOM      3  N   UNL     1      -1.548  -1.626  24.442  0.00  0.00    -0.278 N 
ATOM      4  N   UNL     1       0.352  -0.575  23.867  0.00  0.00    -0.280 N 
ATOM      5  N   UNL     1      -3.874  -0.731  25.745  0.00  0.00    -0.295 NA
ATOM      7  C   UNL     1      -1.451  -0.518  25.368  0.00  0.00    +0.109 C 
ATOM      8  C   UNL     1      -0.291   0.311  24.823  0.00  0.00    +0.133 C 
ATOM      9  C   UNL     1      -2.785   0.224  25.452  0.00  0.00    +0.109 C 
ATOM     11  C   UNL     1      -2.664  -2.542  24.546  0.00  0.00    +0.125 C 
ATOM     12  C   UNL     1      -0.435  -1.713  23.595  0.00  0.00    +0.305 C 
ATOM     13  C   UNL     1      -3.973  -1.759  24.688  0.00  0.00    +0.104 C 
ENDROOT
BRANCH   4  10
ATOM      1  O   UNL     1       4.280   0.758  23.338  0.00  0.00    -0.380 OA
ATOM     10  C   UNL     1       1.574  -0.216  23.193  0.00  0.00    +0.082 C 
ATOM     14  C   UNL     1       2.736  -1.090  23.666  0.00  0.00    +0.050 C 
ATOM     15  C   UNL     1       1.904   1.263  23.401  0.00  0.00    +0.050 C 
ATOM     17  C   UNL     1       4.048  -0.620  23.049  0.00  0.00    +0.161 C 
ATOM     18  C   UNL     1       3.262   1.600  22.796  0.00  0.00    +0.161 C 
ENDBRANCH   4  10
BRANCH   5  16
ATOM     16  C   UNL     1      -5.147  -0.024  25.887  0.00  0.00    +0.121 C 
BRANCH  16  19
ATOM      6  N   UNL     1      -5.326   3.603  25.293  0.00  0.00    -0.349 N 
ATOM     19  C   UNL     1      -5.049   1.405  25.420  0.00  0.00    -0.008 A 
ATOM     20  C   UNL     1      -4.316   1.882  24.299  0.00  0.00    +0.004 A 
ATOM     21  C   UNL     1      -5.660   2.487  26.012  0.00  0.00    +0.091 A 
ATOM     22  C   UNL     1      -4.505   3.264  24.241  0.00  0.00    +0.049 A 
ATOM     23  C   UNL     1      -3.505   1.268  23.324  0.00  0.00    +0.010 A 
ATOM     24  C   UNL     1      -3.923   4.066  23.254  0.00  0.00    +0.026 A 
ATOM     25  C   UNL     1      -5.779   4.942  25.608  0.00  0.00    +0.149 C 
ATOM     26  C   UNL     1      -2.916   2.058  22.329  0.00  0.00    +0.001 A 
ATOM     27  C   UNL     1      -3.124   3.435  22.297  0.00  0.00    +0.002 A 
ENDBRANCH  16  19
ENDBRANCH   5  16
TORSDOF 3
ENDMDL
MODEL 5
REMARK VINA RESULT:       3.5     15.587     18.735
REMARK  Name = 75368669
REMARK  4 active torsions:
REMARK  status: ('A' for Active; 'I' for Inactive)
REMARK    1  A    between atoms: N_4  and  C_10
REMARK    2  A    between atoms: N_5  and  C_16
REMARK    3  A    between atoms: N_6  and  C_25
REMARK    4  A    between atoms: C_16  and  C_19
REMARK                            x       y       z     vdW  Elec       q    Type
REMARK                         _______ _______ _______ _____ _____    ______ ____
ROOT
ATOM      2  O   UNL     1       1.235  -0.785  21.279  0.00  0.00    -0.252 OA
ATOM      3  N   UNL     1       0.138   0.545  22.875  0.00  0.00    -0.278 N 
ATOM      4  N   UNL     1       2.324   0.120  23.165  0.00  0.00    -0.280 N 
ATOM      5  N   UNL     1      -1.545   2.543  23.918  0.00  0.00    -0.295 NA
ATOM      7  C   UNL     1       0.455   1.129  24.162  0.00  0.00    +0.109 C 
ATOM      8  C   UNL     1       1.977   1.035  24.239  0.00  0.00    +0.133 C 
ATOM      9  C   UNL     1      -0.107   2.547  24.255  0.00  0.00    +0.109 C 
ATOM     11  C   UNL     1      -1.219   0.618  22.378  0.00  0.00    +0.125 C 
ATOM     12  C   UNL     1       1.231  -0.128  22.311  0.00  0.00    +0.305 C 
ATOM     13  C   UNL     1      -1.763   2.040  22.546  0.00  0.00    +0.104 C 
ENDROOT
BRANCH   4  10
ATOM      1  O   UNL     1       6.311  -0.819  24.010  0.00  0.00    -0.380 OA
ATOM     10  C   UNL     1       3.677  -0.333  22.955  0.00  0.00    +0.082 C 
ATOM     14  C   UNL     1       3.995  -1.535  23.844  0.00  0.00    +0.050 C 
ATOM     15  C   UNL     1       4.681   0.793  23.206  0.00  0.00    +0.050 C 
ATOM     17  C   UNL     1       5.462  -1.927  23.714  0.00  0.00    +0.161 C 
ATOM     18  C   UNL     1       6.109   0.271  23.109  0.00  0.00    +0.161 C 
ENDBRANCH   4  10
BRANCH   5  16
ATOM     16  C   UNL     1      -2.106   3.886  24.062  0.00  0.00    +0.121 C 
BRANCH  16  19
ATOM      6  N   UNL     1      -5.491   4.500  25.370  0.00  0.00    -0.349 N 
ATOM     19  C   UNL     1      -3.505   3.852  24.620  0.00  0.00    -0.008 A 
ATOM     20  C   UNL     1      -4.244   2.692  24.981  0.00  0.00    +0.004 A 
ATOM     21  C   UNL     1      -4.298   4.949  24.870  0.00  0.00    +0.091 A 
ATOM     22  C   UNL     1      -5.487   3.125  25.449  0.00  0.00    +0.049 A 
ATOM     23  C   UNL     1      -3.975   1.309  24.956  0.00  0.00    +0.010 A 
ATOM     24  C   UNL     1      -6.477   2.243  25.893  0.00  0.00    +0.026 A 
ATOM     25  C   UNL     1      -6.589   5.361  25.754  0.00  0.00    +0.149 C 
ATOM     26  C   UNL     1      -4.957   0.414  25.398  0.00  0.00    +0.001 A 
ATOM     27  C   UNL     1      -6.188   0.876  25.859  0.00  0.00    +0.002 A 
ENDBRANCH  16  19
ENDBRANCH   5  16
TORSDOF 3
ENDMDL
