MODEL 1
REMARK VINA RESULT:       5.3      0.000      0.000
REMARK  Name = 11911754
REMARK  10 active torsions:
REMARK  status: ('A' for Active; 'I' for Inactive)
REMARK    1  A    between atoms: N_4  and  C_11
REMARK    2  A    between atoms: N_5  and  C_12
REMARK    3  A    between atoms: N_8  and  C_29
REMARK    4  A    between atoms: N_8  and  C_30
REMARK    5  A    between atoms: N_8  and  C_31
REMARK    6  A    between atoms: C_16  and  C_17
REMARK    7  A    between atoms: C_18  and  C_19
REMARK    8  A    between atoms: C_18  and  C_22
REMARK    9  A    between atoms: C_18  and  C_23
REMARK   10  A    between atoms: C_18  and  C_24
REMARK                            x       y       z     vdW  Elec       q    Type
REMARK                         _______ _______ _______ _____ _____    ______ ____
ROOT
ATOM      1  O   UNL     1      -5.007  -0.313  23.499  0.00  0.00    -0.370 OA
ATOM      2  O   UNL     1      -3.676  -1.007  26.235  0.00  0.00    -0.370 OA
ATOM      9  C   UNL     1      -3.732   0.192  25.444  0.00  0.00    +0.171 C 
ATOM     10  C   UNL     1      -3.658  -0.226  23.988  0.00  0.00    +0.171 C 
ATOM     11  C   UNL     1      -5.089   0.843  25.573  0.00  0.00    +0.130 C 
ATOM     12  C   UNL     1      -3.025  -1.598  24.032  0.00  0.00    +0.130 C 
ATOM     13  C   UNL     1      -5.912   0.107  24.531  0.00  0.00    +0.185 C 
ATOM     14  C   UNL     1      -3.506  -2.136  25.367  0.00  0.00    +0.185 C 
ENDROOT
BRANCH  11   4
ATOM      4  N   UNL     1      -4.999   2.247  25.238  0.00  0.00    -0.306 N 
ATOM      6  N   UNL     1      -2.693   2.314  25.668  0.00  0.00    -0.219 NA
ATOM      7  N   UNL     1      -3.873   4.285  24.942  0.00  0.00    -0.223 NA
ATOM     15  C   UNL     1      -3.820   2.970  25.284  0.00  0.00    +0.216 A 
ATOM     19  C   UNL     1      -1.562   3.048  25.701  0.00  0.00    +0.052 A 
ATOM     20  C   UNL     1      -1.508   4.388  25.373  0.00  0.00    +0.043 A 
ATOM     21  C   UNL     1      -2.706   4.960  24.997  0.00  0.00    +0.116 A 
ATOM     32  H   UNL     1      -5.822   2.733  24.900  0.00  0.00    +0.149 HD
BRANCH  19  18
ATOM     18  C   UNL     1      -0.316   2.344  26.121  0.00  0.00    +0.005 C 
ATOM     22  C   UNL     1       0.777   2.415  25.010  0.00  0.00    +0.017 C 
ATOM     23  C   UNL     1      -0.590   0.836  26.416  0.00  0.00    +0.017 C 
ATOM     24  C   UNL     1       0.368   2.903  27.413  0.00  0.00    +0.017 C 
ENDBRANCH  19  18
ENDBRANCH  11   4
BRANCH  12   5
ATOM      3  O   UNL     1      -1.469   0.571  22.972  0.00  0.00    -0.270 OA
ATOM      5  N   UNL     1      -1.585  -1.509  23.992  0.00  0.00    -0.304 N 
ATOM     16  C   UNL     1      -0.921  -0.415  23.456  0.00  0.00    +0.244 C 
ATOM     33  H   UNL     1      -1.067  -2.336  24.268  0.00  0.00    +0.149 HD
BRANCH  16  17
ATOM     17  C   UNL     1       0.564  -0.488  23.465  0.00  0.00    +0.037 A 
ATOM     25  C   UNL     1       1.279   0.409  22.700  0.00  0.00    +0.015 A 
ATOM     26  C   UNL     1       1.179  -1.451  24.240  0.00  0.00    +0.015 A 
ATOM     27  C   UNL     1       2.673   0.342  22.709  0.00  0.00    +0.024 A 
ATOM     28  C   UNL     1       2.572  -1.518  24.249  0.00  0.00    +0.024 A 
ATOM     29  C   UNL     1       3.319  -0.623  23.484  0.00  0.00    +0.029 A 
BRANCH  29   8
ATOM      8  N   UNL     1       4.728  -0.691  23.495  0.00  0.00    -0.336 N 
ATOM     30  C   UNL     1       5.401  -1.917  23.874  0.00  0.00    +0.129 C 
ATOM     31  C   UNL     1       5.521   0.470  23.139  0.00  0.00    +0.129 C 
ENDBRANCH  29   8
ENDBRANCH  16  17
ENDBRANCH  12   5
TORSDOF 5
ENDMDL
MODEL 2
REMARK VINA RESULT:       6.2     15.597     19.168
REMARK  Name = 11911754
REMARK  10 active torsions:
REMARK  status: ('A' for Active; 'I' for Inactive)
REMARK    1  A    between atoms: N_4  and  C_11
REMARK    2  A    between atoms: N_5  and  C_12
REMARK    3  A    between atoms: N_8  and  C_29
REMARK    4  A    between atoms: N_8  and  C_30
REMARK    5  A    between atoms: N_8  and  C_31
REMARK    6  A    between atoms: C_16  and  C_17
REMARK    7  A    between atoms: C_18  and  C_19
REMARK    8  A    between atoms: C_18  and  C_22
REMARK    9  A    between atoms: C_18  and  C_23
REMARK   10  A    between atoms: C_18  and  C_24
REMARK                            x       y       z     vdW  Elec       q    Type
REMARK                         _______ _______ _______ _____ _____    ______ ____
ROOT
ATOM      1  O   UNL     1      17.352  -9.608  26.634  0.00  0.00    -0.370 OA
ATOM      2  O   UNL     1      14.316 -10.317  26.527  0.00  0.00    -0.370 OA
ATOM      9  C   UNL     1      15.081  -9.194  26.059  0.00  0.00    +0.171 C 
ATOM     10  C   UNL     1      16.167  -8.931  27.084  0.00  0.00    +0.171 C 
ATOM     11  C   UNL     1      15.838  -9.561  24.805  0.00  0.00    +0.130 C 
ATOM     12  C   UNL     1      15.642  -9.574  28.348  0.00  0.00    +0.130 C 
ATOM     13  C   UNL     1      17.100 -10.203  25.354  0.00  0.00    +0.185 C 
ATOM     14  C   UNL     1      14.815 -10.727  27.808  0.00  0.00    +0.185 C 
ENDROOT
BRANCH  11   4
ATOM      4  N   UNL     1      16.169  -8.367  24.058  0.00  0.00    -0.306 N 
ATOM      6  N   UNL     1      16.407  -7.083  26.008  0.00  0.00    -0.219 NA
ATOM      7  N   UNL     1      16.748  -6.104  23.833  0.00  0.00    -0.223 NA
ATOM     15  C   UNL     1      16.450  -7.148  24.651  0.00  0.00    +0.216 A 
ATOM     19  C   UNL     1      16.687  -5.880  26.552  0.00  0.00    +0.052 A 
ATOM     20  C   UNL     1      17.002  -4.758  25.812  0.00  0.00    +0.043 A 
ATOM     21  C   UNL     1      17.017  -4.931  24.443  0.00  0.00    +0.116 A 
ATOM     32  H   UNL     1      16.255  -8.417  23.050  0.00  0.00    +0.149 HD
BRANCH  19  18
ATOM     18  C   UNL     1      16.644  -5.790  28.040  0.00  0.00    +0.005 C 
ATOM     22  C   UNL     1      15.176  -5.803  28.567  0.00  0.00    +0.017 C 
ATOM     23  C   UNL     1      17.314  -4.474  28.546  0.00  0.00    +0.017 C 
ATOM     24  C   UNL     1      17.371  -6.946  28.804  0.00  0.00    +0.017 C 
ENDBRANCH  19  18
ENDBRANCH  11   4
BRANCH  12   5
ATOM      3  O   UNL     1      13.063 -10.109  29.491  0.00  0.00    -0.270 OA
ATOM      5  N   UNL     1      14.826  -8.653  29.102  0.00  0.00    -0.304 N 
ATOM     16  C   UNL     1      13.586  -9.006  29.616  0.00  0.00    +0.244 C 
ATOM     33  H   UNL     1      15.142  -7.690  29.146  0.00  0.00    +0.149 HD
BRANCH  16  17
ATOM     17  C   UNL     1      12.857  -7.936  30.345  0.00  0.00    +0.037 A 
ATOM     25  C   UNL     1      12.902  -6.647  29.857  0.00  0.00    +0.015 A 
ATOM     26  C   UNL     1      12.157  -8.267  31.488  0.00  0.00    +0.015 A 
ATOM     27  C   UNL     1      12.216  -5.642  30.541  0.00  0.00    +0.024 A 
ATOM     28  C   UNL     1      11.471  -7.262  32.172  0.00  0.00    +0.024 A 
ATOM     29  C   UNL     1      11.501  -5.951  31.698  0.00  0.00    +0.029 A 
BRANCH  29   8
ATOM      8  N   UNL     1      10.806  -4.936  32.390  0.00  0.00    -0.336 N 
ATOM     30  C   UNL     1       9.456  -5.163  32.865  0.00  0.00    +0.129 C 
ATOM     31  C   UNL     1      11.430  -3.648  32.623  0.00  0.00    +0.129 C 
ENDBRANCH  29   8
ENDBRANCH  16  17
ENDBRANCH  12   5
TORSDOF 5
ENDMDL
