MODEL 1
REMARK VINA RESULT:      -3.8      0.000      0.000
REMARK  Name = 51138126
REMARK  11 active torsions:
REMARK  status: ('A' for Active; 'I' for Inactive)
REMARK    1  A    between atoms: O_2  and  C_25
REMARK    2  A    between atoms: O_2  and  C_27
REMARK    3  A    between atoms: N_4  and  C_22
REMARK    4  A    between atoms: N_5  and  C_24
REMARK    5  A    between atoms: C_6  and  C_10
REMARK    6  A    between atoms: C_8  and  C_17
REMARK    7  A    between atoms: C_10  and  C_14
REMARK    8  A    between atoms: C_14  and  C_20
REMARK    9  A    between atoms: C_14  and  C_21
REMARK   10  A    between atoms: C_22  and  C_23
REMARK   11  A    between atoms: C_24  and  C_25
REMARK                            x       y       z     vdW  Elec       q    Type
REMARK                         _______ _______ _______ _____ _____    ______ ____
ROOT
ATOM      3  N   UNL     1      -1.343  -0.722  24.898  0.00  0.00    -0.299 NA
ATOM      4  N   UNL     1      -2.647   4.111  25.553  0.00  0.00    -0.343 N 
ATOM      6  C   UNL     1      -2.782  -0.656  24.609  0.00  0.00    +0.085 C 
ATOM      7  C   UNL     1      -3.464   0.681  24.915  0.00  0.00    -0.021 A 
ATOM      8  C   UNL     1      -0.520   0.173  24.097  0.00  0.00    +0.145 C 
ATOM      9  C   UNL     1      -2.790   1.918  25.120  0.00  0.00    +0.008 A 
ATOM     11  C   UNL     1      -0.210   1.469  24.846  0.00  0.00    +0.065 C 
ATOM     12  C   UNL     1      -1.408   2.320  25.104  0.00  0.00    -0.020 A 
ATOM     13  C   UNL     1      -3.534   3.076  25.380  0.00  0.00    +0.050 A 
ATOM     15  C   UNL     1      -1.368   3.671  25.383  0.00  0.00    +0.090 A 
ATOM     16  C   UNL     1      -4.882   0.732  24.925  0.00  0.00    +0.006 A 
ATOM     18  C   UNL     1      -4.929   3.096  25.431  0.00  0.00    +0.026 A 
ATOM     19  C   UNL     1      -5.594   1.902  25.185  0.00  0.00    +0.002 A 
ATOM     28  H   UNL     1      -1.165  -0.596  25.893  0.00  0.00    +0.123 HD
ENDROOT
BRANCH   8  17
ATOM      1  O   UNL     1       0.940  -1.704  24.303  0.00  0.00    -0.274 OA
ATOM      5  N   UNL     1       1.666   0.167  23.121  0.00  0.00    -0.312 N 
ATOM     17  C   UNL     1       0.757  -0.573  23.859  0.00  0.00    +0.230 C 
ATOM     29  H   UNL     1       1.404   1.090  22.787  0.00  0.00    +0.149 HD
BRANCH   5  24
ATOM     24  C   UNL     1       2.982  -0.317  22.774  0.00  0.00    +0.132 C 
BRANCH  24  25
ATOM     25  C   UNL     1       3.964   0.826  22.586  0.00  0.00    +0.178 C 
BRANCH  25   2
ATOM      2  O   UNL     1       4.888   0.835  23.667  0.00  0.00    -0.381 OA
ATOM     27  C   UNL     1       5.397  -0.465  23.930  0.00  0.00    +0.194 C 
ENDBRANCH  25   2
ENDBRANCH  24  25
ENDBRANCH   5  24
ENDBRANCH   8  17
BRANCH   6  10
ATOM     10  C   UNL     1      -3.392  -1.825  25.402  0.00  0.00    +0.026 C 
BRANCH  10  14
ATOM     14  C   UNL     1      -3.665  -3.059  24.535  0.00  0.00    -0.015 C 
ATOM     20  C   UNL     1      -4.744  -2.811  23.482  0.00  0.00    +0.007 C 
ATOM     21  C   UNL     1      -2.366  -3.495  23.854  0.00  0.00    +0.007 C 
ENDBRANCH  10  14
ENDBRANCH   6  10
BRANCH   4  22
ATOM     22  C   UNL     1      -3.002   5.483  25.850  0.00  0.00    +0.148 C 
BRANCH  22  23
ATOM     23  C   UNL     1      -2.086   6.468  25.187  0.00  0.00    -0.013 C 
ATOM     26  C   UNL     1      -0.950   6.133  24.566  0.00  0.00    +0.005 C 
ENDBRANCH  22  23
ENDBRANCH   4  22
TORSDOF 8
ENDMDL
MODEL 2
REMARK VINA RESULT:      -3.4      1.189      1.484
REMARK  Name = 51138126
REMARK  11 active torsions:
REMARK  status: ('A' for Active; 'I' for Inactive)
REMARK    1  A    between atoms: O_2  and  C_25
REMARK    2  A    between atoms: O_2  and  C_27
REMARK    3  A    between atoms: N_4  and  C_22
REMARK    4  A    between atoms: N_5  and  C_24
REMARK    5  A    between atoms: C_6  and  C_10
REMARK    6  A    between atoms: C_8  and  C_17
REMARK    7  A    between atoms: C_10  and  C_14
REMARK    8  A    between atoms: C_14  and  C_20
REMARK    9  A    between atoms: C_14  and  C_21
REMARK   10  A    between atoms: C_22  and  C_23
REMARK   11  A    between atoms: C_24  and  C_25
REMARK                            x       y       z     vdW  Elec       q    Type
REMARK                         _______ _______ _______ _____ _____    ______ ____
ROOT
ATOM      3  N   UNL     1       0.018  -0.667  23.790  0.00  0.00    -0.299 NA
ATOM      4  N   UNL     1      -2.148   3.553  25.519  0.00  0.00    -0.343 N 
ATOM      6  C   UNL     1      -1.427  -0.857  23.604  0.00  0.00    +0.085 C 
ATOM      7  C   UNL     1      -2.327   0.217  24.222  0.00  0.00    -0.021 A 
ATOM      8  C   UNL     1       0.563   0.521  23.150  0.00  0.00    +0.145 C 
ATOM      9  C   UNL     1      -1.895   1.507  24.644  0.00  0.00    +0.008 A 
ATOM     11  C   UNL     1       0.683   1.683  24.136  0.00  0.00    +0.065 C 
ATOM     12  C   UNL     1      -0.629   2.191  24.634  0.00  0.00    -0.020 A 
ATOM     13  C   UNL     1      -2.825   2.405  25.183  0.00  0.00    +0.050 A 
ATOM     15  C   UNL     1      -0.831   3.439  25.188  0.00  0.00    +0.090 A 
ATOM     16  C   UNL     1      -3.718  -0.041  24.323  0.00  0.00    +0.006 A 
ATOM     18  C   UNL     1      -4.183   2.115  25.316  0.00  0.00    +0.026 A 
ATOM     19  C   UNL     1      -4.619   0.876  24.863  0.00  0.00    +0.002 A 
ATOM     28  H   UNL     1       0.265  -0.701  24.778  0.00  0.00    +0.123 HD
ENDROOT
BRANCH   8  17
ATOM      1  O   UNL     1       2.131  -0.902  22.048  0.00  0.00    -0.274 OA
ATOM      5  N   UNL     1       2.900   1.035  23.085  0.00  0.00    -0.312 N 
ATOM     17  C   UNL     1       1.933   0.128  22.688  0.00  0.00    +0.230 C 
ATOM     29  H   UNL     1       2.623   1.867  23.599  0.00  0.00    +0.149 HD
BRANCH   5  24
ATOM     24  C   UNL     1       4.304   0.875  22.786  0.00  0.00    +0.132 C 
BRANCH  24  25
ATOM     25  C   UNL     1       5.114   0.602  24.041  0.00  0.00    +0.178 C 
BRANCH  25   2
ATOM      2  O   UNL     1       5.749  -0.664  23.927  0.00  0.00    -0.381 OA
ATOM     27  C   UNL     1       4.804  -1.725  23.943  0.00  0.00    +0.194 C 
ENDBRANCH  25   2
ENDBRANCH  24  25
ENDBRANCH   5  24
ENDBRANCH   8  17
BRANCH   6  10
ATOM     10  C   UNL     1      -1.710  -2.261  24.167  0.00  0.00    +0.026 C 
BRANCH  10  14
ATOM     14  C   UNL     1      -3.151  -2.429  24.661  0.00  0.00    -0.015 C 
ATOM     20  C   UNL     1      -3.939  -3.451  23.840  0.00  0.00    +0.007 C 
ATOM     21  C   UNL     1      -3.135  -2.849  26.132  0.00  0.00    +0.007 C 
ENDBRANCH  10  14
ENDBRANCH   6  10
BRANCH   4  22
ATOM     22  C   UNL     1      -2.737   4.732  26.117  0.00  0.00    +0.148 C 
BRANCH  22  23
ATOM     23  C   UNL     1      -2.348   5.993  25.403  0.00  0.00    -0.013 C 
ATOM     26  C   UNL     1      -1.240   6.122  24.664  0.00  0.00    +0.005 C 
ENDBRANCH  22  23
ENDBRANCH   4  22
TORSDOF 8
ENDMDL
MODEL 3
REMARK VINA RESULT:      -2.5      1.488      2.027
REMARK  Name = 51138126
REMARK  11 active torsions:
REMARK  status: ('A' for Active; 'I' for Inactive)
REMARK    1  A    between atoms: O_2  and  C_25
REMARK    2  A    between atoms: O_2  and  C_27
REMARK    3  A    between atoms: N_4  and  C_22
REMARK    4  A    between atoms: N_5  and  C_24
REMARK    5  A    between atoms: C_6  and  C_10
REMARK    6  A    between atoms: C_8  and  C_17
REMARK    7  A    between atoms: C_10  and  C_14
REMARK    8  A    between atoms: C_14  and  C_20
REMARK    9  A    between atoms: C_14  and  C_21
REMARK   10  A    between atoms: C_22  and  C_23
REMARK   11  A    between atoms: C_24  and  C_25
REMARK                            x       y       z     vdW  Elec       q    Type
REMARK                         _______ _______ _______ _____ _____    ______ ____
ROOT
ATOM      3  N   UNL     1      -0.017  -0.238  24.163  0.00  0.00    -0.299 NA
ATOM      4  N   UNL     1      -2.996   3.607  25.519  0.00  0.00    -0.343 N 
ATOM      6  C   UNL     1      -1.376  -0.628  23.765  0.00  0.00    +0.085 C 
ATOM      7  C   UNL     1      -2.502   0.299  24.233  0.00  0.00    -0.021 A 
ATOM      8  C   UNL     1       0.442   1.026  23.603  0.00  0.00    +0.145 C 
ATOM      9  C   UNL     1      -2.325   1.631  24.706  0.00  0.00    +0.008 A 
ATOM     11  C   UNL     1       0.247   2.178  24.588  0.00  0.00    +0.065 C 
ATOM     12  C   UNL     1      -1.183   2.487  24.881  0.00  0.00    -0.020 A 
ATOM     13  C   UNL     1      -3.444   2.379  25.094  0.00  0.00    +0.050 A 
ATOM     15  C   UNL     1      -1.641   3.686  25.390  0.00  0.00    +0.090 A 
ATOM     16  C   UNL     1      -3.842  -0.155  24.127  0.00  0.00    +0.006 A 
ATOM     18  C   UNL     1      -4.752   1.898  25.024  0.00  0.00    +0.026 A 
ATOM     19  C   UNL     1      -4.934   0.617  24.520  0.00  0.00    +0.002 A 
ATOM     28  H   UNL     1       0.083  -0.250  25.177  0.00  0.00    +0.123 HD
ENDROOT
BRANCH   8  17
ATOM      1  O   UNL     1       2.698   1.777  23.388  0.00  0.00    -0.274 OA
ATOM      5  N   UNL     1       2.226  -0.481  23.074  0.00  0.00    -0.312 N 
ATOM     17  C   UNL     1       1.908   0.837  23.355  0.00  0.00    +0.230 C 
ATOM     29  H   UNL     1       1.493  -1.185  23.090  0.00  0.00    +0.149 HD
BRANCH   5  24
ATOM     24  C   UNL     1       3.568  -0.924  22.776  0.00  0.00    +0.132 C 
BRANCH  24  25
ATOM     25  C   UNL     1       4.230  -1.554  23.989  0.00  0.00    +0.178 C 
BRANCH  25   2
ATOM      2  O   UNL     1       5.333  -0.753  24.393  0.00  0.00    -0.381 OA
ATOM     27  C   UNL     1       5.671   0.208  23.403  0.00  0.00    +0.194 C 
ENDBRANCH  25   2
ENDBRANCH  24  25
ENDBRANCH   5  24
ENDBRANCH   8  17
BRANCH   6  10
ATOM     10  C   UNL     1      -1.537  -2.066  24.289  0.00  0.00    +0.026 C 
BRANCH  10  14
ATOM     14  C   UNL     1      -2.975  -2.396  24.700  0.00  0.00    -0.015 C 
ATOM     20  C   UNL     1      -3.551  -3.583  23.927  0.00  0.00    +0.007 C 
ATOM     21  C   UNL     1      -3.017  -2.687  26.202  0.00  0.00    +0.007 C 
ENDBRANCH  10  14
ENDBRANCH   6  10
BRANCH   4  22
ATOM     22  C   UNL     1      -3.829   4.682  26.014  0.00  0.00    +0.148 C 
BRANCH  22  23
ATOM     23  C   UNL     1      -5.291   4.358  25.934  0.00  0.00    -0.013 C 
ATOM     26  C   UNL     1      -6.206   5.165  25.384  0.00  0.00    +0.005 C 
ENDBRANCH  22  23
ENDBRANCH   4  22
TORSDOF 8
ENDMDL
MODEL 4
REMARK VINA RESULT:      -2.1      2.539      6.550
REMARK  Name = 51138126
REMARK  11 active torsions:
REMARK  status: ('A' for Active; 'I' for Inactive)
REMARK    1  A    between atoms: O_2  and  C_25
REMARK    2  A    between atoms: O_2  and  C_27
REMARK    3  A    between atoms: N_4  and  C_22
REMARK    4  A    between atoms: N_5  and  C_24
REMARK    5  A    between atoms: C_6  and  C_10
REMARK    6  A    between atoms: C_8  and  C_17
REMARK    7  A    between atoms: C_10  and  C_14
REMARK    8  A    between atoms: C_14  and  C_20
REMARK    9  A    between atoms: C_14  and  C_21
REMARK   10  A    between atoms: C_22  and  C_23
REMARK   11  A    between atoms: C_24  and  C_25
REMARK                            x       y       z     vdW  Elec       q    Type
REMARK                         _______ _______ _______ _____ _____    ______ ____
ROOT
ATOM      3  N   UNL     1      -2.576   1.521  25.142  0.00  0.00    -0.299 NA
ATOM      4  N   UNL     1       1.911   0.326  23.159  0.00  0.00    -0.343 N 
ATOM      6  C   UNL     1      -2.177   0.263  25.788  0.00  0.00    +0.085 C 
ATOM      7  C   UNL     1      -0.924  -0.412  25.222  0.00  0.00    -0.021 A 
ATOM      8  C   UNL     1      -1.616   2.607  25.282  0.00  0.00    +0.145 C 
ATOM      9  C   UNL     1       0.043   0.221  24.390  0.00  0.00    +0.008 A 
ATOM     11  C   UNL     1      -0.714   2.720  24.054  0.00  0.00    +0.065 C 
ATOM     12  C   UNL     1       0.190   1.549  23.858  0.00  0.00    -0.020 A 
ATOM     13  C   UNL     1       1.155  -0.507  23.949  0.00  0.00    +0.050 A 
ATOM     15  C   UNL     1       1.345   1.565  23.101  0.00  0.00    +0.090 A 
ATOM     16  C   UNL     1      -0.644  -1.749  25.603  0.00  0.00    +0.006 A 
ATOM     18  C   UNL     1       1.391  -1.837  24.298  0.00  0.00    +0.026 A 
ATOM     19  C   UNL     1       0.475  -2.446  25.147  0.00  0.00    +0.002 A 
ATOM     28  H   UNL     1      -2.819   1.368  24.165  0.00  0.00    +0.123 HD
ENDROOT
BRANCH   8  17
ATOM      1  O   UNL     1      -1.939   4.942  25.655  0.00  0.00    -0.274 OA
ATOM      5  N   UNL     1      -3.791   3.603  25.209  0.00  0.00    -0.312 N 
ATOM     17  C   UNL     1      -2.442   3.851  25.399  0.00  0.00    +0.230 C 
ATOM     29  H   UNL     1      -4.098   2.661  24.984  0.00  0.00    +0.149 HD
BRANCH   5  24
ATOM     24  C   UNL     1      -4.803   4.631  25.291  0.00  0.00    +0.132 C 
BRANCH  24  25
ATOM     25  C   UNL     1      -6.149   4.057  25.697  0.00  0.00    +0.178 C 
BRANCH  25   2
ATOM      2  O   UNL     1      -5.965   2.751  26.226  0.00  0.00    -0.381 OA
ATOM     27  C   UNL     1      -6.317   1.750  25.280  0.00  0.00    +0.194 C 
ENDBRANCH  25   2
ENDBRANCH  24  25
ENDBRANCH   5  24
ENDBRANCH   8  17
BRANCH   6  10
ATOM     10  C   UNL     1      -3.425  -0.634  25.694  0.00  0.00    +0.026 C 
BRANCH  10  14
ATOM     14  C   UNL     1      -3.432  -1.522  24.446  0.00  0.00    -0.015 C 
ATOM     20  C   UNL     1      -3.613  -3.003  24.779  0.00  0.00    +0.007 C 
ATOM     21  C   UNL     1      -4.548  -1.063  23.505  0.00  0.00    +0.007 C 
ENDBRANCH  10  14
ENDBRANCH   6  10
BRANCH   4  22
ATOM     22  C   UNL     1       3.145  -0.035  22.492  0.00  0.00    +0.148 C 
BRANCH  22  23
ATOM     23  C   UNL     1       4.339   0.653  23.084  0.00  0.00    -0.013 C 
ATOM     26  C   UNL     1       5.390   0.010  23.605  0.00  0.00    +0.005 C 
ENDBRANCH  22  23
ENDBRANCH   4  22
TORSDOF 8
ENDMDL
MODEL 5
REMARK VINA RESULT:      -0.7      1.662      5.227
REMARK  Name = 51138126
REMARK  11 active torsions:
REMARK  status: ('A' for Active; 'I' for Inactive)
REMARK    1  A    between atoms: O_2  and  C_25
REMARK    2  A    between atoms: O_2  and  C_27
REMARK    3  A    between atoms: N_4  and  C_22
REMARK    4  A    between atoms: N_5  and  C_24
REMARK    5  A    between atoms: C_6  and  C_10
REMARK    6  A    between atoms: C_8  and  C_17
REMARK    7  A    between atoms: C_10  and  C_14
REMARK    8  A    between atoms: C_14  and  C_20
REMARK    9  A    between atoms: C_14  and  C_21
REMARK   10  A    between atoms: C_22  and  C_23
REMARK   11  A    between atoms: C_24  and  C_25
REMARK                            x       y       z     vdW  Elec       q    Type
REMARK                         _______ _______ _______ _____ _____    ______ ____
ROOT
ATOM      3  N   UNL     1      -0.087   1.990  23.414  0.00  0.00    -0.299 NA
ATOM      4  N   UNL     1      -2.631  -2.183  24.681  0.00  0.00    -0.343 N 
ATOM      6  C   UNL     1      -1.162   2.436  24.311  0.00  0.00    +0.085 C 
ATOM      7  C   UNL     1      -2.196   1.374  24.695  0.00  0.00    -0.021 A 
ATOM      8  C   UNL     1       0.789   0.972  23.975  0.00  0.00    +0.145 C 
ATOM      9  C   UNL     1      -2.023  -0.031  24.545  0.00  0.00    +0.008 A 
ATOM     11  C   UNL     1       0.374  -0.431  23.532  0.00  0.00    +0.065 C 
ATOM     12  C   UNL     1      -0.954  -0.862  24.057  0.00  0.00    -0.020 A 
ATOM     13  C   UNL     1      -3.045  -0.900  24.949  0.00  0.00    +0.050 A 
ATOM     15  C   UNL     1      -1.375  -2.173  24.151  0.00  0.00    +0.090 A 
ATOM     16  C   UNL     1      -3.398   1.794  25.321  0.00  0.00    +0.006 A 
ATOM     18  C   UNL     1      -4.241  -0.465  25.522  0.00  0.00    +0.026 A 
ATOM     19  C   UNL     1      -4.396   0.902  25.714  0.00  0.00    +0.002 A 
ATOM     28  H   UNL     1      -0.462   1.699  22.513  0.00  0.00    +0.123 HD
ENDROOT
BRANCH   8  17
ATOM      1  O   UNL     1       2.565   2.428  23.323  0.00  0.00    -0.274 OA
ATOM      5  N   UNL     1       2.830   0.131  23.049  0.00  0.00    -0.312 N 
ATOM     17  C   UNL     1       2.150   1.276  23.426  0.00  0.00    +0.230 C 
ATOM     29  H   UNL     1       2.398  -0.777  23.194  0.00  0.00    +0.149 HD
BRANCH   5  24
ATOM     24  C   UNL     1       4.153   0.153  22.469  0.00  0.00    +0.132 C 
BRANCH  24  25
ATOM     25  C   UNL     1       5.200   0.576  23.484  0.00  0.00    +0.178 C 
BRANCH  25   2
ATOM      2  O   UNL     1       5.424  -0.487  24.402  0.00  0.00    -0.381 OA
ATOM     27  C   UNL     1       4.869  -1.708  23.932  0.00  0.00    +0.194 C 
ENDBRANCH  25   2
ENDBRANCH  24  25
ENDBRANCH   5  24
ENDBRANCH   8  17
BRANCH   6  10
ATOM     10  C   UNL     1      -1.792   3.642  23.591  0.00  0.00    +0.026 C 
BRANCH  10  14
ATOM     14  C   UNL     1      -1.841   4.901  24.463  0.00  0.00    -0.015 C 
ATOM     20  C   UNL     1      -2.624   4.690  25.759  0.00  0.00    +0.007 C 
ATOM     21  C   UNL     1      -0.414   5.347  24.786  0.00  0.00    +0.007 C 
ENDBRANCH  10  14
ENDBRANCH   6  10
BRANCH   4  22
ATOM     22  C   UNL     1      -3.396  -3.385  24.938  0.00  0.00    +0.148 C 
BRANCH  22  23
ATOM     23  C   UNL     1      -4.323  -3.727  23.810  0.00  0.00    -0.013 C 
ATOM     26  C   UNL     1      -4.978  -2.817  23.079  0.00  0.00    +0.005 C 
ENDBRANCH  22  23
ENDBRANCH   4  22
TORSDOF 8
ENDMDL
MODEL 6
REMARK VINA RESULT:      -0.5      1.787      5.347
REMARK  Name = 51138126
REMARK  11 active torsions:
REMARK  status: ('A' for Active; 'I' for Inactive)
REMARK    1  A    between atoms: O_2  and  C_25
REMARK    2  A    between atoms: O_2  and  C_27
REMARK    3  A    between atoms: N_4  and  C_22
REMARK    4  A    between atoms: N_5  and  C_24
REMARK    5  A    between atoms: C_6  and  C_10
REMARK    6  A    between atoms: C_8  and  C_17
REMARK    7  A    between atoms: C_10  and  C_14
REMARK    8  A    between atoms: C_14  and  C_20
REMARK    9  A    between atoms: C_14  and  C_21
REMARK   10  A    between atoms: C_22  and  C_23
REMARK   11  A    between atoms: C_24  and  C_25
REMARK                            x       y       z     vdW  Elec       q    Type
REMARK                         _______ _______ _______ _____ _____    ______ ____
ROOT
ATOM      3  N   UNL     1      -0.095   0.409  24.133  0.00  0.00    -0.299 NA
ATOM      4  N   UNL     1      -3.851   3.640  25.106  0.00  0.00    -0.343 N 
ATOM      6  C   UNL     1       0.554   1.679  24.485  0.00  0.00    +0.085 C 
ATOM      7  C   UNL     1      -0.378   2.883  24.649  0.00  0.00    -0.021 A 
ATOM      8  C   UNL     1      -1.006  -0.109  25.144  0.00  0.00    +0.145 C 
ATOM      9  C   UNL     1      -1.790   2.810  24.823  0.00  0.00    +0.008 A 
ATOM     11  C   UNL     1      -2.455   0.263  24.835  0.00  0.00    +0.065 C 
ATOM     12  C   UNL     1      -2.732   1.727  24.910  0.00  0.00    -0.020 A 
ATOM     13  C   UNL     1      -2.528   3.990  24.975  0.00  0.00    +0.050 A 
ATOM     15  C   UNL     1      -3.985   2.284  25.075  0.00  0.00    +0.090 A 
ATOM     16  C   UNL     1       0.194   4.180  24.712  0.00  0.00    +0.006 A 
ATOM     18  C   UNL     1      -1.952   5.261  24.989  0.00  0.00    +0.026 A 
ATOM     19  C   UNL     1      -0.570   5.336  24.867  0.00  0.00    +0.002 A 
ATOM     28  H   UNL     1      -0.550   0.472  23.224  0.00  0.00    +0.123 HD
ENDROOT
BRANCH   8  17
ATOM      1  O   UNL     1       0.017  -2.191  25.707  0.00  0.00    -0.274 OA
ATOM      5  N   UNL     1      -1.791  -2.182  24.240  0.00  0.00    -0.312 N 
ATOM     17  C   UNL     1      -0.858  -1.599  25.081  0.00  0.00    +0.230 C 
ATOM     29  H   UNL     1      -2.484  -1.597  23.782  0.00  0.00    +0.149 HD
BRANCH   5  24
ATOM     24  C   UNL     1      -1.848  -3.603  23.988  0.00  0.00    +0.132 C 
BRANCH  24  25
ATOM     25  C   UNL     1      -3.281  -4.089  23.857  0.00  0.00    +0.178 C 
BRANCH  25   2
ATOM      2  O   UNL     1      -4.153  -3.165  24.494  0.00  0.00    -0.381 OA
ATOM     27  C   UNL     1      -4.604  -2.165  23.591  0.00  0.00    +0.194 C 
ENDBRANCH  25   2
ENDBRANCH  24  25
ENDBRANCH   5  24
ENDBRANCH   8  17
BRANCH   6  10
ATOM     10  C   UNL     1       1.609   1.894  23.385  0.00  0.00    +0.026 C 
BRANCH  10  14
ATOM     14  C   UNL     1       2.431   0.636  23.089  0.00  0.00    -0.015 C 
ATOM     20  C   UNL     1       1.872  -0.169  21.915  0.00  0.00    +0.007 C 
ATOM     21  C   UNL     1       3.880   1.035  22.800  0.00  0.00    +0.007 C 
ENDBRANCH  10  14
ENDBRANCH   6  10
BRANCH   4  22
ATOM     22  C   UNL     1      -4.954   4.562  25.276  0.00  0.00    +0.148 C 
BRANCH  22  23
ATOM     23  C   UNL     1      -6.205   3.879  25.743  0.00  0.00    -0.013 C 
ATOM     26  C   UNL     1      -6.276   2.581  26.056  0.00  0.00    +0.005 C 
ENDBRANCH  22  23
ENDBRANCH   4  22
TORSDOF 8
ENDMDL
