MODEL 1
REMARK VINA RESULT:       5.2      0.000      0.000
REMARK  Name = 75536919
REMARK  7 active torsions:
REMARK  status: ('A' for Active; 'I' for Inactive)
REMARK    1  A    between atoms: S_1  and  C_22
REMARK    2  A    between atoms: S_1  and  C_28
REMARK    3  A    between atoms: O_3  and  C_8
REMARK    4  A    between atoms: O_3  and  C_14
REMARK    5  A    between atoms: N_6  and  C_11
REMARK    6  A    between atoms: C_11  and  C_13
REMARK    7  A    between atoms: C_17  and  C_25
REMARK                            x       y       z     vdW  Elec       q    Type
REMARK                         _______ _______ _______ _____ _____    ______ ____
ROOT
ATOM      2  O   UNL     1      -6.225   3.867  26.122  0.00  0.00    -0.375 OA
ATOM      6  N   UNL     1      -3.400   4.381  25.924  0.00  0.00    -0.292 NA
ATOM      7  C   UNL     1      -3.492   3.207  25.057  0.00  0.00    +0.131 C 
ATOM      8  C   UNL     1      -4.780   3.240  24.224  0.00  0.00    +0.213 C 
ATOM      9  C   UNL     1      -4.075   4.236  27.219  0.00  0.00    +0.113 C 
ATOM     10  C   UNL     1      -6.072   3.004  25.001  0.00  0.00    +0.205 C 
ATOM     12  C   UNL     1      -5.403   3.481  27.216  0.00  0.00    +0.175 C 
ENDROOT
BRANCH   8   3
ATOM      3  O   UNL     1      -4.673   2.241  23.210  0.00  0.00    -0.485 OA
BRANCH   3  14
ATOM     14  C   UNL     1      -3.994   1.102  23.542  0.00  0.00    +0.121 A 
ATOM     20  C   UNL     1      -2.647   0.969  23.206  0.00  0.00    +0.047 A 
ATOM     21  C   UNL     1      -4.649   0.071  24.216  0.00  0.00    +0.047 A 
ATOM     22  C   UNL     1      -2.610  -1.224  24.218  0.00  0.00    +0.088 A 
ATOM     23  C   UNL     1      -1.955  -0.194  23.544  0.00  0.00    +0.030 A 
ATOM     24  C   UNL     1      -3.958  -1.091  24.554  0.00  0.00    +0.030 A 
BRANCH  22   1
ATOM      1  S   UNL     1      -1.744  -2.680  24.641  0.00  0.00    -0.006 S 
ATOM      4  O   UNL     1      -2.491  -3.391  25.670  0.00  0.00    -0.170 OA
ATOM      5  O   UNL     1      -1.385  -3.363  23.406  0.00  0.00    -0.170 OA
ATOM     28  C   UNL     1      -0.244  -2.098  25.401  0.00  0.00    +0.200 C 
ENDBRANCH  22   1
ENDBRANCH   3  14
ENDBRANCH   8   3
BRANCH   6  11
ATOM     11  C   UNL     1      -2.010   4.790  26.128  0.00  0.00    +0.119 C 
BRANCH  11  13
ATOM     13  C   UNL     1      -1.047   3.879  25.413  0.00  0.00    -0.033 A 
ATOM     15  C   UNL     1      -0.604   2.709  26.031  0.00  0.00    +0.005 A 
ATOM     16  C   UNL     1      -0.597   4.206  24.133  0.00  0.00    +0.005 A 
ATOM     17  C   UNL     1       0.738   2.192  24.091  0.00  0.00    -0.018 A 
ATOM     18  C   UNL     1       0.288   1.867  25.369  0.00  0.00    +0.009 A 
ATOM     19  C   UNL     1       0.296   3.362  23.472  0.00  0.00    +0.009 A 
BRANCH  17  25
ATOM     25  C   UNL     1       1.663   1.318  23.404  0.00  0.00    -0.018 A 
ATOM     26  C   UNL     1       1.194   0.172  22.764  0.00  0.00    +0.008 A 
ATOM     27  C   UNL     1       3.025   1.620  23.383  0.00  0.00    +0.008 A 
ATOM     29  C   UNL     1       2.086  -0.673  22.101  0.00  0.00    +0.001 A 
ATOM     30  C   UNL     1       3.916   0.776  22.721  0.00  0.00    +0.001 A 
ATOM     31  C   UNL     1       3.447  -0.371  22.079  0.00  0.00    +0.000 A 
ENDBRANCH  17  25
ENDBRANCH  11  13
ENDBRANCH   6  11
TORSDOF 6
ENDMDL
MODEL 2
REMARK VINA RESULT:       6.2      2.727      4.166
REMARK  Name = 75536919
REMARK  7 active torsions:
REMARK  status: ('A' for Active; 'I' for Inactive)
REMARK    1  A    between atoms: S_1  and  C_22
REMARK    2  A    between atoms: S_1  and  C_28
REMARK    3  A    between atoms: O_3  and  C_8
REMARK    4  A    between atoms: O_3  and  C_14
REMARK    5  A    between atoms: N_6  and  C_11
REMARK    6  A    between atoms: C_11  and  C_13
REMARK    7  A    between atoms: C_17  and  C_25
REMARK                            x       y       z     vdW  Elec       q    Type
REMARK                         _______ _______ _______ _____ _____    ______ ____
ROOT
ATOM      2  O   UNL     1      -6.809   1.552  24.624  0.00  0.00    -0.375 OA
ATOM      6  N   UNL     1      -4.391   3.112  24.552  0.00  0.00    -0.292 NA
ATOM      7  C   UNL     1      -3.826   1.809  24.900  0.00  0.00    +0.131 C 
ATOM      8  C   UNL     1      -4.550   0.680  24.154  0.00  0.00    +0.213 C 
ATOM      9  C   UNL     1      -5.549   3.510  25.361  0.00  0.00    +0.113 C 
ATOM     10  C   UNL     1      -5.978   0.398  24.614  0.00  0.00    +0.205 C 
ATOM     12  C   UNL     1      -6.536   2.404  25.729  0.00  0.00    +0.175 C 
ENDROOT
BRANCH   8   3
ATOM      3  O   UNL     1      -3.781  -0.512  24.308  0.00  0.00    -0.485 OA
BRANCH   3  14
ATOM     14  C   UNL     1      -2.442  -0.414  24.049  0.00  0.00    +0.121 A 
ATOM     20  C   UNL     1      -1.966   0.588  23.203  0.00  0.00    +0.047 A 
ATOM     21  C   UNL     1      -1.552  -1.316  24.631  0.00  0.00    +0.047 A 
ATOM     22  C   UNL     1       0.290  -0.216  23.521  0.00  0.00    +0.088 A 
ATOM     23  C   UNL     1      -0.600   0.686  22.939  0.00  0.00    +0.030 A 
ATOM     24  C   UNL     1      -0.186  -1.217  24.368  0.00  0.00    +0.030 A 
BRANCH  22   1
ATOM      1  S   UNL     1       2.000  -0.093  23.190  0.00  0.00    -0.006 S 
ATOM      4  O   UNL     1       2.442   1.263  23.486  0.00  0.00    -0.170 OA
ATOM      5  O   UNL     1       2.662  -1.224  23.825  0.00  0.00    -0.170 OA
ATOM     28  C   UNL     1       2.126  -0.305  21.428  0.00  0.00    +0.200 C 
ENDBRANCH  22   1
ENDBRANCH   3  14
ENDBRANCH   8   3
BRANCH   6  11
ATOM     11  C   UNL     1      -3.374   4.164  24.584  0.00  0.00    +0.119 C 
BRANCH  11  13
ATOM     13  C   UNL     1      -2.236   3.816  25.507  0.00  0.00    -0.033 A 
ATOM     15  C   UNL     1      -0.960   3.595  24.988  0.00  0.00    +0.005 A 
ATOM     16  C   UNL     1      -2.458   3.714  26.881  0.00  0.00    +0.005 A 
ATOM     17  C   UNL     1      -0.128   3.170  27.216  0.00  0.00    -0.018 A 
ATOM     18  C   UNL     1       0.093   3.272  25.843  0.00  0.00    +0.009 A 
ATOM     19  C   UNL     1      -1.404   3.391  27.735  0.00  0.00    +0.009 A 
BRANCH  17  25
ATOM     25  C   UNL     1       0.965   2.836  28.103  0.00  0.00    -0.018 A 
ATOM     26  C   UNL     1       0.705   2.219  29.326  0.00  0.00    +0.008 A 
ATOM     27  C   UNL     1       2.278   3.131  27.735  0.00  0.00    +0.008 A 
ATOM     29  C   UNL     1       1.759   1.896  30.182  0.00  0.00    +0.001 A 
ATOM     30  C   UNL     1       3.331   2.809  28.591  0.00  0.00    +0.001 A 
ATOM     31  C   UNL     1       3.072   2.190  29.814  0.00  0.00    +0.000 A 
ENDBRANCH  17  25
ENDBRANCH  11  13
ENDBRANCH   6  11
TORSDOF 6
ENDMDL
MODEL 3
REMARK VINA RESULT:       7.2      2.207      5.014
REMARK  Name = 75536919
REMARK  7 active torsions:
REMARK  status: ('A' for Active; 'I' for Inactive)
REMARK    1  A    between atoms: S_1  and  C_22
REMARK    2  A    between atoms: S_1  and  C_28
REMARK    3  A    between atoms: O_3  and  C_8
REMARK    4  A    between atoms: O_3  and  C_14
REMARK    5  A    between atoms: N_6  and  C_11
REMARK    6  A    between atoms: C_11  and  C_13
REMARK    7  A    between atoms: C_17  and  C_25
REMARK                            x       y       z     vdW  Elec       q    Type
REMARK                         _______ _______ _______ _____ _____    ______ ____
ROOT
ATOM      2  O   UNL     1      -2.804   7.156  23.578  0.00  0.00    -0.375 OA
ATOM      6  N   UNL     1      -4.402   5.160  24.901  0.00  0.00    -0.292 NA
ATOM      7  C   UNL     1      -3.082   4.547  25.046  0.00  0.00    +0.131 C 
ATOM      8  C   UNL     1      -2.012   5.609  25.329  0.00  0.00    +0.213 C 
ATOM      9  C   UNL     1      -4.710   5.629  23.545  0.00  0.00    +0.113 C 
ATOM     10  C   UNL     1      -1.668   6.523  24.156  0.00  0.00    +0.205 C 
ATOM     12  C   UNL     1      -3.561   6.267  22.767  0.00  0.00    +0.175 C 
ENDROOT
BRANCH   8   3
ATOM      3  O   UNL     1      -0.823   4.935  25.741  0.00  0.00    -0.485 OA
BRANCH   3  14
ATOM     14  C   UNL     1      -0.678   3.640  25.328  0.00  0.00    +0.121 A 
ATOM     20  C   UNL     1      -0.819   2.595  26.242  0.00  0.00    +0.047 A 
ATOM     21  C   UNL     1      -0.389   3.362  23.992  0.00  0.00    +0.047 A 
ATOM     22  C   UNL     1      -0.382   0.997  24.484  0.00  0.00    +0.088 A 
ATOM     23  C   UNL     1      -0.671   1.274  25.820  0.00  0.00    +0.030 A 
ATOM     24  C   UNL     1      -0.241   2.042  23.569  0.00  0.00    +0.030 A 
BRANCH  22   1
ATOM      1  S   UNL     1      -0.195  -0.657  23.955  0.00  0.00    -0.006 S 
ATOM      4  O   UNL     1       0.081  -1.495  25.114  0.00  0.00    -0.170 OA
ATOM      5  O   UNL     1      -1.315  -0.977  23.081  0.00  0.00    -0.170 OA
ATOM     28  C   UNL     1       1.283  -0.640  22.965  0.00  0.00    +0.200 C 
ENDBRANCH  22   1
ENDBRANCH   3  14
ENDBRANCH   8   3
BRANCH   6  11
ATOM     11  C   UNL     1      -5.463   4.270  25.375  0.00  0.00    +0.119 C 
BRANCH  11  13
ATOM     13  C   UNL     1      -5.099   2.820  25.198  0.00  0.00    -0.033 A 
ATOM     15  C   UNL     1      -5.619   1.860  26.067  0.00  0.00    +0.005 A 
ATOM     16  C   UNL     1      -4.243   2.436  24.165  0.00  0.00    +0.005 A 
ATOM     17  C   UNL     1      -4.426   0.133  24.871  0.00  0.00    -0.018 A 
ATOM     18  C   UNL     1      -5.282   0.517  25.903  0.00  0.00    +0.009 A 
ATOM     19  C   UNL     1      -3.907   1.093  24.002  0.00  0.00    +0.009 A 
BRANCH  17  25
ATOM     25  C   UNL     1      -4.077  -1.261  24.701  0.00  0.00    -0.018 A 
ATOM     26  C   UNL     1      -4.487  -1.947  23.558  0.00  0.00    +0.008 A 
ATOM     27  C   UNL     1      -3.331  -1.919  25.679  0.00  0.00    +0.008 A 
ATOM     29  C   UNL     1      -4.150  -3.291  23.393  0.00  0.00    +0.001 A 
ATOM     30  C   UNL     1      -2.995  -3.262  25.514  0.00  0.00    +0.001 A 
ATOM     31  C   UNL     1      -3.404  -3.949  24.370  0.00  0.00    +0.000 A 
ENDBRANCH  17  25
ENDBRANCH  11  13
ENDBRANCH   6  11
TORSDOF 6
ENDMDL
MODEL 4
REMARK VINA RESULT:       7.3      3.260      4.804
REMARK  Name = 75536919
REMARK  7 active torsions:
REMARK  status: ('A' for Active; 'I' for Inactive)
REMARK    1  A    between atoms: S_1  and  C_22
REMARK    2  A    between atoms: S_1  and  C_28
REMARK    3  A    between atoms: O_3  and  C_8
REMARK    4  A    between atoms: O_3  and  C_14
REMARK    5  A    between atoms: N_6  and  C_11
REMARK    6  A    between atoms: C_11  and  C_13
REMARK    7  A    between atoms: C_17  and  C_25
REMARK                            x       y       z     vdW  Elec       q    Type
REMARK                         _______ _______ _______ _____ _____    ______ ____
ROOT
ATOM      2  O   UNL     1      -5.958   2.386  25.849  0.00  0.00    -0.375 OA
ATOM      6  N   UNL     1      -4.183   0.288  24.990  0.00  0.00    -0.292 NA
ATOM      7  C   UNL     1      -3.344   1.449  24.696  0.00  0.00    +0.131 C 
ATOM      8  C   UNL     1      -3.496   2.525  25.779  0.00  0.00    +0.213 C 
ATOM      9  C   UNL     1      -5.561   0.392  24.495  0.00  0.00    +0.113 C 
ATOM     10  C   UNL     1      -4.835   3.257  25.794  0.00  0.00    +0.205 C 
ATOM     12  C   UNL     1      -6.220   1.766  24.596  0.00  0.00    +0.175 C 
ENDROOT
BRANCH   8   3
ATOM      3  O   UNL     1      -2.456   3.486  25.593  0.00  0.00    -0.485 OA
BRANCH   3  14
ATOM     14  C   UNL     1      -1.319   3.307  26.332  0.00  0.00    +0.121 A 
ATOM     20  C   UNL     1      -1.398   3.205  27.721  0.00  0.00    +0.047 A 
ATOM     21  C   UNL     1      -0.080   3.229  25.696  0.00  0.00    +0.047 A 
ATOM     22  C   UNL     1       1.001   2.946  27.838  0.00  0.00    +0.088 A 
ATOM     23  C   UNL     1      -0.238   3.024  28.474  0.00  0.00    +0.030 A 
ATOM     24  C   UNL     1       1.079   3.048  26.449  0.00  0.00    +0.030 A 
BRANCH  22   1
ATOM      1  S   UNL     1       2.454   2.720  28.780  0.00  0.00    -0.006 S 
ATOM      4  O   UNL     1       3.357   1.841  28.051  0.00  0.00    -0.170 OA
ATOM      5  O   UNL     1       2.914   4.032  29.215  0.00  0.00    -0.170 OA
ATOM     28  C   UNL     1       1.912   1.826  30.220  0.00  0.00    +0.200 C 
ENDBRANCH  22   1
ENDBRANCH   3  14
ENDBRANCH   8   3
BRANCH   6  11
ATOM     11  C   UNL     1      -3.572  -0.952  24.510  0.00  0.00    +0.119 C 
BRANCH  11  13
ATOM     13  C   UNL     1      -2.099  -0.785  24.244  0.00  0.00    -0.033 A 
ATOM     15  C   UNL     1      -1.182  -1.662  24.824  0.00  0.00    +0.005 A 
ATOM     16  C   UNL     1      -1.652   0.247  23.419  0.00  0.00    +0.005 A 
ATOM     17  C   UNL     1       0.629  -0.475  23.753  0.00  0.00    -0.018 A 
ATOM     18  C   UNL     1       0.182  -1.507  24.578  0.00  0.00    +0.009 A 
ATOM     19  C   UNL     1      -0.288   0.402  23.173  0.00  0.00    +0.009 A 
BRANCH  17  25
ATOM     25  C   UNL     1       2.044  -0.315  23.498  0.00  0.00    -0.018 A 
ATOM     26  C   UNL     1       2.931  -1.340  23.824  0.00  0.00    +0.008 A 
ATOM     27  C   UNL     1       2.521   0.865  22.926  0.00  0.00    +0.008 A 
ATOM     29  C   UNL     1       4.297  -1.186  23.577  0.00  0.00    +0.001 A 
ATOM     30  C   UNL     1       3.885   1.019  22.680  0.00  0.00    +0.001 A 
ATOM     31  C   UNL     1       4.773  -0.007  23.005  0.00  0.00    +0.000 A 
ENDBRANCH  17  25
ENDBRANCH  11  13
ENDBRANCH   6  11
TORSDOF 6
ENDMDL
