MODEL 1
REMARK VINA RESULT:       0.6      0.000      0.000
REMARK  Name = 38031114
REMARK  10 active torsions:
REMARK  status: ('A' for Active; 'I' for Inactive)
REMARK    1  A    between atoms: N_4  and  C_13
REMARK    2  A    between atoms: C_8  and  C_12
REMARK    3  A    between atoms: C_9  and  C_13
REMARK    4  A    between atoms: C_11  and  C_18
REMARK    5  A    between atoms: C_12  and  C_22
REMARK    6  A    between atoms: C_12  and  C_23
REMARK    7  A    between atoms: C_15  and  C_24
REMARK    8  A    between atoms: C_18  and  C_25
REMARK    9  A    between atoms: C_19  and  C_26
REMARK   10  A    between atoms: C_27  and  C_28
REMARK                            x       y       z     vdW  Elec       q    Type
REMARK                         _______ _______ _______ _____ _____    ______ ____
ROOT
ATOM      8  C   UNL     1      -2.464   3.095  25.665  0.00  0.00    +0.000 C 
ATOM      9  C   UNL     1      -3.970   3.185  25.327  0.00  0.00    +0.029 C 
ATOM     10  C   UNL     1      -1.744   2.175  24.667  0.00  0.00    +0.012 C 
ATOM     11  C   UNL     1      -1.915   2.614  23.197  0.00  0.00    +0.024 C 
ATOM     14  C   UNL     1      -4.224   3.354  23.851  0.00  0.00    -0.023 C 
ATOM     15  C   UNL     1      -3.317   3.117  22.886  0.00  0.00    -0.073 C 
ATOM     24  C   UNL     1      -3.648   3.402  21.447  0.00  0.00    +0.039 C 
ENDROOT
BRANCH   8  12
ATOM     12  C   UNL     1      -1.816   4.485  25.706  0.00  0.00    -0.013 C 
ATOM     22  C   UNL     1      -0.581   4.523  24.811  0.00  0.00    +0.007 C 
ATOM     23  C   UNL     1      -2.821   5.553  25.287  0.00  0.00    +0.007 C 
ENDBRANCH   8  12
BRANCH   9  13
ATOM     13  C   UNL     1      -4.738   1.959  25.833  0.00  0.00    +0.092 C 
BRANCH  13   4
ATOM      4  N   UNL     1      -4.114   0.725  25.355  0.00  0.00    -0.302 NA
ATOM     16  C   UNL     1      -3.979  -0.241  26.454  0.00  0.00    +0.085 C 
ATOM     17  C   UNL     1      -4.884   0.157  24.240  0.00  0.00    +0.085 C 
ATOM     19  C   UNL     1      -4.005  -2.143  24.796  0.00  0.00    +0.077 C 
ATOM     20  C   UNL     1      -3.278  -1.517  25.984  0.00  0.00    +0.028 C 
ATOM     21  C   UNL     1      -4.216  -1.105  23.694  0.00  0.00    +0.028 C 
BRANCH  19  26
ATOM      3  O   UNL     1      -3.756  -4.325  23.857  0.00  0.00    -0.276 OA
ATOM      6  N   UNL     1      -1.858  -3.092  24.269  0.00  0.00    -0.329 N 
ATOM     26  C   UNL     1      -3.218  -3.296  24.256  0.00  0.00    +0.214 C 
ATOM     34  H   UNL     1      -1.437  -2.237  24.617  0.00  0.00    +0.145 HD
ATOM     35  H   UNL     1      -1.221  -3.807  23.931  0.00  0.00    +0.145 HD
ENDBRANCH  19  26
ENDBRANCH  13   4
ENDBRANCH   9  13
BRANCH  11  18
ATOM     18  C   UNL     1      -1.481   1.458  22.287  0.00  0.00    +0.105 C 
BRANCH  18  25
ATOM      2  O   UNL     1       0.818   0.770  22.733  0.00  0.00    -0.420 OA
ATOM      5  N   UNL     1      -0.725  -0.442  23.807  0.00  0.00    -0.112 NA
ATOM      7  N   UNL     1       0.521  -0.936  24.149  0.00  0.00    -0.107 NA
ATOM     25  C   UNL     1      -0.502   0.553  22.980  0.00  0.00    +0.218 A 
ATOM     27  C   UNL     1       1.391  -0.199  23.499  0.00  0.00    +0.251 A 
BRANCH  27  28
ATOM      1  F   UNL     1       2.951   2.027  22.819  0.00  0.00    -0.205 F 
ATOM     28  C   UNL     1       2.823  -0.256  23.471  0.00  0.00    +0.074 A 
ATOM     29  C   UNL     1       3.564   0.875  23.127  0.00  0.00    +0.136 A 
ATOM     30  C   UNL     1       3.476  -1.447  23.790  0.00  0.00    +0.016 A 
ATOM     31  C   UNL     1       4.957   0.815  23.102  0.00  0.00    +0.039 A 
ATOM     32  C   UNL     1       4.869  -1.506  23.766  0.00  0.00    +0.001 A 
ATOM     33  C   UNL     1       5.610  -0.376  23.422  0.00  0.00    +0.003 A 
ENDBRANCH  27  28
ENDBRANCH  18  25
ENDBRANCH  11  18
TORSDOF 7
ENDMDL
MODEL 2
REMARK VINA RESULT:       0.9      2.560      6.077
REMARK  Name = 38031114
REMARK  10 active torsions:
REMARK  status: ('A' for Active; 'I' for Inactive)
REMARK    1  A    between atoms: N_4  and  C_13
REMARK    2  A    between atoms: C_8  and  C_12
REMARK    3  A    between atoms: C_9  and  C_13
REMARK    4  A    between atoms: C_11  and  C_18
REMARK    5  A    between atoms: C_12  and  C_22
REMARK    6  A    between atoms: C_12  and  C_23
REMARK    7  A    between atoms: C_15  and  C_24
REMARK    8  A    between atoms: C_18  and  C_25
REMARK    9  A    between atoms: C_19  and  C_26
REMARK   10  A    between atoms: C_27  and  C_28
REMARK                            x       y       z     vdW  Elec       q    Type
REMARK                         _______ _______ _______ _____ _____    ______ ____
ROOT
ATOM      8  C   UNL     1      -1.934   4.032  23.651  0.00  0.00    +0.000 C 
ATOM      9  C   UNL     1      -1.158   3.132  24.641  0.00  0.00    +0.029 C 
ATOM     10  C   UNL     1      -3.447   3.918  23.893  0.00  0.00    +0.012 C 
ATOM     11  C   UNL     1      -3.863   4.268  25.337  0.00  0.00    +0.024 C 
ATOM     14  C   UNL     1      -1.690   3.228  26.048  0.00  0.00    -0.023 C 
ATOM     15  C   UNL     1      -2.888   3.742  26.381  0.00  0.00    -0.073 C 
ATOM     24  C   UNL     1      -3.284   3.869  27.826  0.00  0.00    +0.039 C 
ENDROOT
BRANCH   8  12
ATOM     12  C   UNL     1      -1.467   5.491  23.736  0.00  0.00    -0.013 C 
ATOM     22  C   UNL     1      -2.664   6.427  23.863  0.00  0.00    +0.007 C 
ATOM     23  C   UNL     1      -0.509   5.675  24.909  0.00  0.00    +0.007 C 
ENDBRANCH   8  12
BRANCH   9  13
ATOM     13  C   UNL     1      -1.166   1.665  24.199  0.00  0.00    +0.092 C 
BRANCH  13   4
ATOM      4  N   UNL     1       0.195   1.129  24.166  0.00  0.00    -0.302 NA
ATOM     16  C   UNL     1       0.238  -0.112  23.380  0.00  0.00    +0.085 C 
ATOM     17  C   UNL     1       1.129   2.129  23.632  0.00  0.00    +0.085 C 
ATOM     19  C   UNL     1       2.678   0.286  22.872  0.00  0.00    +0.077 C 
ATOM     20  C   UNL     1       1.644  -0.716  23.380  0.00  0.00    +0.028 C 
ATOM     21  C   UNL     1       2.565   1.603  23.641  0.00  0.00    +0.028 C 
BRANCH  19  26
ATOM      3  O   UNL     1       5.044   0.281  22.545  0.00  0.00    -0.276 OA
ATOM      6  N   UNL     1       4.106  -1.444  23.744  0.00  0.00    -0.329 N 
ATOM     26  C   UNL     1       4.059  -0.270  23.030  0.00  0.00    +0.214 C 
ATOM     34  H   UNL     1       3.274  -1.886  24.122  0.00  0.00    +0.145 HD
ATOM     35  H   UNL     1       4.987  -1.918  23.912  0.00  0.00    +0.145 HD
ENDBRANCH  19  26
ENDBRANCH  13   4
ENDBRANCH   9  13
BRANCH  11  18
ATOM     18  C   UNL     1      -5.300   3.781  25.564  0.00  0.00    +0.105 C 
BRANCH  18  25
ATOM      2  O   UNL     1      -4.320   1.558  25.325  0.00  0.00    -0.420 OA
ATOM      5  N   UNL     1      -6.507   1.649  24.867  0.00  0.00    -0.112 NA
ATOM      7  N   UNL     1      -6.088   0.343  24.692  0.00  0.00    -0.107 NA
ATOM     25  C   UNL     1      -5.443   2.322  25.237  0.00  0.00    +0.218 A 
ATOM     27  C   UNL     1      -4.805   0.337  24.970  0.00  0.00    +0.251 A 
BRANCH  27  28
ATOM      1  F   UNL     1      -5.228  -2.003  23.488  0.00  0.00    -0.205 F 
ATOM     28  C   UNL     1      -3.854  -0.736  24.958  0.00  0.00    +0.074 A 
ATOM     29  C   UNL     1      -4.103  -1.886  24.207  0.00  0.00    +0.136 A 
ATOM     30  C   UNL     1      -2.678  -0.629  25.701  0.00  0.00    +0.016 A 
ATOM     31  C   UNL     1      -3.175  -2.927  24.199  0.00  0.00    +0.039 A 
ATOM     32  C   UNL     1      -1.750  -1.670  25.691  0.00  0.00    +0.001 A 
ATOM     33  C   UNL     1      -1.998  -2.819  24.940  0.00  0.00    +0.003 A 
ENDBRANCH  27  28
ENDBRANCH  18  25
ENDBRANCH  11  18
TORSDOF 7
ENDMDL
MODEL 3
REMARK VINA RESULT:       1.2      2.609      5.684
REMARK  Name = 38031114
REMARK  10 active torsions:
REMARK  status: ('A' for Active; 'I' for Inactive)
REMARK    1  A    between atoms: N_4  and  C_13
REMARK    2  A    between atoms: C_8  and  C_12
REMARK    3  A    between atoms: C_9  and  C_13
REMARK    4  A    between atoms: C_11  and  C_18
REMARK    5  A    between atoms: C_12  and  C_22
REMARK    6  A    between atoms: C_12  and  C_23
REMARK    7  A    between atoms: C_15  and  C_24
REMARK    8  A    between atoms: C_18  and  C_25
REMARK    9  A    between atoms: C_19  and  C_26
REMARK   10  A    between atoms: C_27  and  C_28
REMARK                            x       y       z     vdW  Elec       q    Type
REMARK                         _______ _______ _______ _____ _____    ______ ____
ROOT
ATOM      8  C   UNL     1      -0.886   3.537  24.672  0.00  0.00    +0.000 C 
ATOM      9  C   UNL     1      -1.142   3.171  26.152  0.00  0.00    +0.029 C 
ATOM     10  C   UNL     1      -2.166   3.352  23.843  0.00  0.00    +0.012 C 
ATOM     11  C   UNL     1      -3.362   4.170  24.375  0.00  0.00    +0.024 C 
ATOM     14  C   UNL     1      -2.443   3.727  26.670  0.00  0.00    -0.023 C 
ATOM     15  C   UNL     1      -3.441   4.190  25.894  0.00  0.00    -0.073 C 
ATOM     24  C   UNL     1      -4.664   4.805  26.518  0.00  0.00    +0.039 C 
ENDROOT
BRANCH   8  12
ATOM     12  C   UNL     1      -0.338   4.964  24.536  0.00  0.00    -0.013 C 
ATOM     22  C   UNL     1       0.137   5.218  23.109  0.00  0.00    +0.007 C 
ATOM     23  C   UNL     1      -1.398   5.982  24.942  0.00  0.00    +0.007 C 
ENDBRANCH   8  12
BRANCH   9  13
ATOM     13  C   UNL     1      -1.120   1.654  26.372  0.00  0.00    +0.092 C 
BRANCH  13   4
ATOM      4  N   UNL     1      -0.177   1.013  25.455  0.00  0.00    -0.302 NA
ATOM     16  C   UNL     1      -0.894   0.170  24.489  0.00  0.00    +0.085 C 
ATOM     17  C   UNL     1       0.644   2.023  24.773  0.00  0.00    +0.085 C 
ATOM     19  C   UNL     1       0.997   0.438  22.840  0.00  0.00    +0.077 C 
ATOM     20  C   UNL     1       0.081  -0.551  23.556  0.00  0.00    +0.028 C 
ATOM     21  C   UNL     1       1.672   1.366  23.850  0.00  0.00    +0.028 C 
BRANCH  19  26
ATOM      3  O   UNL     1       1.845  -0.684  20.909  0.00  0.00    -0.276 OA
ATOM      6  N   UNL     1       3.211  -0.500  22.751  0.00  0.00    -0.329 N 
ATOM     26  C   UNL     1       2.042  -0.296  22.058  0.00  0.00    +0.214 C 
ATOM     34  H   UNL     1       3.343  -0.180  23.705  0.00  0.00    +0.145 HD
ATOM     35  H   UNL     1       3.991  -0.991  22.326  0.00  0.00    +0.145 HD
ENDBRANCH  19  26
ENDBRANCH  13   4
ENDBRANCH   9  13
BRANCH  11  18
ATOM     18  C   UNL     1      -4.645   3.644  23.718  0.00  0.00    +0.105 C 
BRANCH  18  25
ATOM      2  O   UNL     1      -4.236   1.264  24.072  0.00  0.00    -0.420 OA
ATOM      5  N   UNL     1      -6.117   2.021  25.017  0.00  0.00    -0.112 NA
ATOM      7  N   UNL     1      -6.013   0.671  25.295  0.00  0.00    -0.107 NA
ATOM     25  C   UNL     1      -5.059   2.324  24.301  0.00  0.00    +0.218 A 
ATOM     27  C   UNL     1      -4.900   0.271  24.723  0.00  0.00    +0.251 A 
BRANCH  27  28
ATOM      1  F   UNL     1      -3.350  -0.708  26.842  0.00  0.00    -0.205 F 
ATOM     28  C   UNL     1      -4.289  -1.025  24.681  0.00  0.00    +0.074 A 
ATOM     29  C   UNL     1      -3.524  -1.476  25.757  0.00  0.00    +0.136 A 
ATOM     30  C   UNL     1      -4.461  -1.837  23.559  0.00  0.00    +0.016 A 
ATOM     31  C   UNL     1      -2.931  -2.738  25.712  0.00  0.00    +0.039 A 
ATOM     32  C   UNL     1      -3.869  -3.099  23.514  0.00  0.00    +0.001 A 
ATOM     33  C   UNL     1      -3.104  -3.550  24.590  0.00  0.00    +0.003 A 
ENDBRANCH  27  28
ENDBRANCH  18  25
ENDBRANCH  11  18
TORSDOF 7
ENDMDL
MODEL 4
REMARK VINA RESULT:       1.8      2.082      4.929
REMARK  Name = 38031114
REMARK  10 active torsions:
REMARK  status: ('A' for Active; 'I' for Inactive)
REMARK    1  A    between atoms: N_4  and  C_13
REMARK    2  A    between atoms: C_8  and  C_12
REMARK    3  A    between atoms: C_9  and  C_13
REMARK    4  A    between atoms: C_11  and  C_18
REMARK    5  A    between atoms: C_12  and  C_22
REMARK    6  A    between atoms: C_12  and  C_23
REMARK    7  A    between atoms: C_15  and  C_24
REMARK    8  A    between atoms: C_18  and  C_25
REMARK    9  A    between atoms: C_19  and  C_26
REMARK   10  A    between atoms: C_27  and  C_28
REMARK                            x       y       z     vdW  Elec       q    Type
REMARK                         _______ _______ _______ _____ _____    ______ ____
ROOT
ATOM      8  C   UNL     1      -4.240  -1.030  23.864  0.00  0.00    +0.000 C 
ATOM      9  C   UNL     1      -4.400  -0.581  25.336  0.00  0.00    +0.029 C 
ATOM     10  C   UNL     1      -3.135  -0.219  23.172  0.00  0.00    +0.012 C 
ATOM     11  C   UNL     1      -1.770  -0.310  23.888  0.00  0.00    +0.024 C 
ATOM     14  C   UNL     1      -3.076  -0.394  26.031  0.00  0.00    -0.023 C 
ATOM     15  C   UNL     1      -1.890  -0.284  25.405  0.00  0.00    -0.073 C 
ATOM     24  C   UNL     1      -0.618  -0.187  26.200  0.00  0.00    +0.039 C 
ENDROOT
BRANCH   8  12
ATOM     12  C   UNL     1      -3.968  -2.537  23.766  0.00  0.00    -0.013 C 
ATOM     22  C   UNL     1      -3.590  -3.099  25.132  0.00  0.00    +0.007 C 
ATOM     23  C   UNL     1      -5.185  -3.261  23.200  0.00  0.00    +0.007 C 
ENDBRANCH   8  12
BRANCH   9  13
ATOM     13  C   UNL     1      -5.215   0.712  25.447  0.00  0.00    +0.092 C 
BRANCH  13   4
ATOM      4  N   UNL     1      -4.355   1.882  25.262  0.00  0.00    -0.302 NA
ATOM     16  C   UNL     1      -4.347   2.294  23.852  0.00  0.00    +0.085 C 
ATOM     17  C   UNL     1      -4.790   2.982  26.134  0.00  0.00    +0.085 C 
ATOM     19  C   UNL     1      -3.779   4.655  24.537  0.00  0.00    +0.077 C 
ATOM     20  C   UNL     1      -3.410   3.483  23.631  0.00  0.00    +0.028 C 
ATOM     21  C   UNL     1      -3.869   4.195  25.992  0.00  0.00    +0.028 C 
BRANCH  19  26
ATOM      3  O   UNL     1      -2.903   6.695  23.655  0.00  0.00    -0.276 OA
ATOM      6  N   UNL     1      -1.657   5.561  25.222  0.00  0.00    -0.329 N 
ATOM     26  C   UNL     1      -2.758   5.744  24.418  0.00  0.00    +0.214 C 
ATOM     34  H   UNL     1      -1.556   4.758  25.834  0.00  0.00    +0.145 HD
ATOM     35  H   UNL     1      -0.896   6.232  25.223  0.00  0.00    +0.145 HD
ENDBRANCH  19  26
ENDBRANCH  13   4
ENDBRANCH   9  13
BRANCH  11  18
ATOM     18  C   UNL     1      -0.856   0.795  23.343  0.00  0.00    +0.105 C 
BRANCH  18  25
ATOM      2  O   UNL     1       1.529   0.301  23.495  0.00  0.00    -0.420 OA
ATOM      5  N   UNL     1       0.579  -0.351  21.577  0.00  0.00    -0.112 NA
ATOM      7  N   UNL     1       1.918  -0.691  21.527  0.00  0.00    -0.107 NA
ATOM     25  C   UNL     1       0.397   0.224  22.743  0.00  0.00    +0.218 A 
ATOM     27  C   UNL     1       2.433  -0.291  22.667  0.00  0.00    +0.251 A 
BRANCH  27  28
ATOM      1  F   UNL     1       4.201   1.881  22.566  0.00  0.00    -0.205 F 
ATOM     28  C   UNL     1       3.775  -0.380  23.165  0.00  0.00    +0.074 A 
ATOM     29  C   UNL     1       4.624   0.724  23.096  0.00  0.00    +0.136 A 
ATOM     30  C   UNL     1       4.230  -1.577  23.719  0.00  0.00    +0.016 A 
ATOM     31  C   UNL     1       5.928   0.633  23.581  0.00  0.00    +0.039 A 
ATOM     32  C   UNL     1       5.534  -1.668  24.206  0.00  0.00    +0.001 A 
ATOM     33  C   UNL     1       6.384  -0.563  24.137  0.00  0.00    +0.003 A 
ENDBRANCH  27  28
ENDBRANCH  18  25
ENDBRANCH  11  18
TORSDOF 7
ENDMDL
MODEL 5
REMARK VINA RESULT:       2.6      1.675      2.848
REMARK  Name = 38031114
REMARK  10 active torsions:
REMARK  status: ('A' for Active; 'I' for Inactive)
REMARK    1  A    between atoms: N_4  and  C_13
REMARK    2  A    between atoms: C_8  and  C_12
REMARK    3  A    between atoms: C_9  and  C_13
REMARK    4  A    between atoms: C_11  and  C_18
REMARK    5  A    between atoms: C_12  and  C_22
REMARK    6  A    between atoms: C_12  and  C_23
REMARK    7  A    between atoms: C_15  and  C_24
REMARK    8  A    between atoms: C_18  and  C_25
REMARK    9  A    between atoms: C_19  and  C_26
REMARK   10  A    between atoms: C_27  and  C_28
REMARK                            x       y       z     vdW  Elec       q    Type
REMARK                         _______ _______ _______ _____ _____    ______ ____
ROOT
ATOM      8  C   UNL     1      -4.461   2.909  25.305  0.00  0.00    +0.000 C 
ATOM      9  C   UNL     1      -4.193   3.536  23.917  0.00  0.00    +0.029 C 
ATOM     10  C   UNL     1      -3.137   2.591  26.015  0.00  0.00    +0.012 C 
ATOM     11  C   UNL     1      -2.219   3.821  26.177  0.00  0.00    +0.024 C 
ATOM     14  C   UNL     1      -3.106   4.579  23.953  0.00  0.00    -0.023 C 
ATOM     15  C   UNL     1      -2.223   4.731  24.957  0.00  0.00    -0.073 C 
ATOM     24  C   UNL     1      -1.232   5.861  24.932  0.00  0.00    +0.039 C 
ENDROOT
BRANCH   8  12
ATOM     12  C   UNL     1      -5.350   3.815  26.166  0.00  0.00    -0.013 C 
ATOM     22  C   UNL     1      -5.956   4.928  25.317  0.00  0.00    +0.007 C 
ATOM     23  C   UNL     1      -6.443   2.998  26.847  0.00  0.00    +0.007 C 
ENDBRANCH   8  12
BRANCH   9  13
ATOM     13  C   UNL     1      -3.836   2.472  22.874  0.00  0.00    +0.092 C 
BRANCH  13   4
ATOM      4  N   UNL     1      -3.437   1.224  23.525  0.00  0.00    -0.302 NA
ATOM     16  C   UNL     1      -4.600   0.577  24.150  0.00  0.00    +0.085 C 
ATOM     17  C   UNL     1      -2.785   0.326  22.561  0.00  0.00    +0.085 C 
ATOM     19  C   UNL     1      -3.469  -1.669  23.947  0.00  0.00    +0.077 C 
ATOM     20  C   UNL     1      -4.191  -0.702  24.883  0.00  0.00    +0.028 C 
ATOM     21  C   UNL     1      -2.314  -0.962  23.238  0.00  0.00    +0.028 C 
BRANCH  19  26
ATOM      3  O   UNL     1      -3.684  -3.678  25.223  0.00  0.00    -0.276 OA
ATOM      6  N   UNL     1      -1.570  -2.866  24.816  0.00  0.00    -0.329 N 
ATOM     26  C   UNL     1      -2.941  -2.840  24.718  0.00  0.00    +0.214 C 
ATOM     34  H   UNL     1      -0.980  -2.153  24.401  0.00  0.00    +0.145 HD
ATOM     35  H   UNL     1      -1.098  -3.610  25.320  0.00  0.00    +0.145 HD
ENDBRANCH  19  26
ENDBRANCH  13   4
ENDBRANCH   9  13
BRANCH  11  18
ATOM     18  C   UNL     1      -0.813   3.336  26.555  0.00  0.00    +0.105 C 
BRANCH  18  25
ATOM      2  O   UNL     1       0.611   2.218  24.918  0.00  0.00    -0.420 OA
ATOM      5  N   UNL     1      -0.961   0.903  25.813  0.00  0.00    -0.112 NA
ATOM      7  N   UNL     1      -0.235   0.147  24.912  0.00  0.00    -0.107 NA
ATOM     25  C   UNL     1      -0.433   2.105  25.784  0.00  0.00    +0.218 A 
ATOM     27  C   UNL     1       0.671   0.956  24.413  0.00  0.00    +0.251 A 
BRANCH  27  28
ATOM      1  F   UNL     1       0.266  -0.737  22.217  0.00  0.00    -0.205 F 
ATOM     28  C   UNL     1       1.696   0.718  23.438  0.00  0.00    +0.074 A 
ATOM     29  C   UNL     1       1.454  -0.132  22.359  0.00  0.00    +0.136 A 
ATOM     30  C   UNL     1       2.937   1.341  23.572  0.00  0.00    +0.016 A 
ATOM     31  C   UNL     1       2.453  -0.360  21.413  0.00  0.00    +0.039 A 
ATOM     32  C   UNL     1       3.936   1.113  22.625  0.00  0.00    +0.001 A 
ATOM     33  C   UNL     1       3.695   0.263  21.546  0.00  0.00    +0.003 A 
ENDBRANCH  27  28
ENDBRANCH  18  25
ENDBRANCH  11  18
TORSDOF 7
ENDMDL
MODEL 6
REMARK VINA RESULT:       3.3      2.466      6.552
REMARK  Name = 38031114
REMARK  10 active torsions:
REMARK  status: ('A' for Active; 'I' for Inactive)
REMARK    1  A    between atoms: N_4  and  C_13
REMARK    2  A    between atoms: C_8  and  C_12
REMARK    3  A    between atoms: C_9  and  C_13
REMARK    4  A    between atoms: C_11  and  C_18
REMARK    5  A    between atoms: C_12  and  C_22
REMARK    6  A    between atoms: C_12  and  C_23
REMARK    7  A    between atoms: C_15  and  C_24
REMARK    8  A    between atoms: C_18  and  C_25
REMARK    9  A    between atoms: C_19  and  C_26
REMARK   10  A    between atoms: C_27  and  C_28
REMARK                            x       y       z     vdW  Elec       q    Type
REMARK                         _______ _______ _______ _____ _____    ______ ____
ROOT
ATOM      8  C   UNL     1      -2.992  -1.473  25.518  0.00  0.00    +0.000 C 
ATOM      9  C   UNL     1      -2.143  -0.492  24.677  0.00  0.00    +0.029 C 
ATOM     10  C   UNL     1      -4.146  -0.729  26.208  0.00  0.00    +0.012 C 
ATOM     11  C   UNL     1      -5.062   0.027  25.223  0.00  0.00    +0.024 C 
ATOM     14  C   UNL     1      -2.988   0.466  23.876  0.00  0.00    -0.023 C 
ATOM     15  C   UNL     1      -4.295   0.702  24.095  0.00  0.00    -0.073 C 
ATOM     24  C   UNL     1      -5.065   1.614  23.180  0.00  0.00    +0.039 C 
ENDROOT
BRANCH   8  12
ATOM     12  C   UNL     1      -3.514  -2.636  24.664  0.00  0.00    -0.013 C 
ATOM     22  C   UNL     1      -4.558  -2.140  23.670  0.00  0.00    +0.007 C 
ATOM     23  C   UNL     1      -2.360  -3.322  23.939  0.00  0.00    +0.007 C 
ENDBRANCH   8  12
BRANCH   9  13
ATOM     13  C   UNL     1      -1.168   0.306  25.550  0.00  0.00    +0.092 C 
BRANCH  13   4
ATOM      4  N   UNL     1       0.161   0.340  24.940  0.00  0.00    -0.302 NA
ATOM     16  C   UNL     1       0.355  -0.825  24.066  0.00  0.00    +0.085 C 
ATOM     17  C   UNL     1       0.356   1.596  24.203  0.00  0.00    +0.085 C 
ATOM     19  C   UNL     1       2.050   0.464  22.711  0.00  0.00    +0.077 C 
ATOM     20  C   UNL     1       1.761  -0.834  23.463  0.00  0.00    +0.028 C 
ATOM     21  C   UNL     1       1.762   1.671  23.604  0.00  0.00    +0.028 C 
BRANCH  19  26
ATOM      3  O   UNL     1       3.800   0.370  21.088  0.00  0.00    -0.276 OA
ATOM      6  N   UNL     1       4.375   0.668  23.296  0.00  0.00    -0.329 N 
ATOM     26  C   UNL     1       3.479   0.499  22.267  0.00  0.00    +0.214 C 
ATOM     34  H   UNL     1       4.084   0.759  24.264  0.00  0.00    +0.145 HD
ATOM     35  H   UNL     1       5.374   0.702  23.117  0.00  0.00    +0.145 HD
ENDBRANCH  19  26
ENDBRANCH  13   4
ENDBRANCH   9  13
BRANCH  11  18
ATOM     18  C   UNL     1      -5.935   1.006  26.019  0.00  0.00    +0.105 C 
BRANCH  18  25
ATOM      2  O   UNL     1      -4.104   2.567  25.613  0.00  0.00    -0.420 OA
ATOM      5  N   UNL     1      -6.064   3.550  26.054  0.00  0.00    -0.112 NA
ATOM      7  N   UNL     1      -5.125   4.543  25.845  0.00  0.00    -0.107 NA
ATOM     25  C   UNL     1      -5.423   2.413  25.907  0.00  0.00    +0.218 A 
ATOM     27  C   UNL     1      -3.996   3.924  25.592  0.00  0.00    +0.251 A 
BRANCH  27  28
ATOM      1  F   UNL     1      -1.663   2.717  26.569  0.00  0.00    -0.205 F 
ATOM     28  C   UNL     1      -2.692   4.445  25.301  0.00  0.00    +0.074 A 
ATOM     29  C   UNL     1      -1.555   3.815  25.807  0.00  0.00    +0.136 A 
ATOM     30  C   UNL     1      -2.563   5.587  24.509  0.00  0.00    +0.016 A 
ATOM     31  C   UNL     1      -0.289   4.326  25.522  0.00  0.00    +0.039 A 
ATOM     32  C   UNL     1      -1.297   6.097  24.223  0.00  0.00    +0.001 A 
ATOM     33  C   UNL     1      -0.160   5.467  24.730  0.00  0.00    +0.003 A 
ENDBRANCH  27  28
ENDBRANCH  18  25
ENDBRANCH  11  18
TORSDOF 7
ENDMDL
MODEL 7
REMARK VINA RESULT:       3.3      2.378      6.685
REMARK  Name = 38031114
REMARK  10 active torsions:
REMARK  status: ('A' for Active; 'I' for Inactive)
REMARK    1  A    between atoms: N_4  and  C_13
REMARK    2  A    between atoms: C_8  and  C_12
REMARK    3  A    between atoms: C_9  and  C_13
REMARK    4  A    between atoms: C_11  and  C_18
REMARK    5  A    between atoms: C_12  and  C_22
REMARK    6  A    between atoms: C_12  and  C_23
REMARK    7  A    between atoms: C_15  and  C_24
REMARK    8  A    between atoms: C_18  and  C_25
REMARK    9  A    between atoms: C_19  and  C_26
REMARK   10  A    between atoms: C_27  and  C_28
REMARK                            x       y       z     vdW  Elec       q    Type
REMARK                         _______ _______ _______ _____ _____    ______ ____
ROOT
ATOM      8  C   UNL     1      -1.623  -0.311  25.372  0.00  0.00    +0.000 C 
ATOM      9  C   UNL     1      -1.536  -0.688  23.875  0.00  0.00    +0.029 C 
ATOM     10  C   UNL     1      -3.007   0.270  25.700  0.00  0.00    +0.012 C 
ATOM     11  C   UNL     1      -4.169  -0.680  25.341  0.00  0.00    +0.024 C 
ATOM     14  C   UNL     1      -2.770  -1.400  23.384  0.00  0.00    -0.023 C 
ATOM     15  C   UNL     1      -3.951  -1.419  24.029  0.00  0.00    -0.073 C 
ATOM     24  C   UNL     1      -5.095  -2.234  23.493  0.00  0.00    +0.039 C 
ENDROOT
BRANCH   8  12
ATOM     12  C   UNL     1      -1.298  -1.511  26.271  0.00  0.00    -0.013 C 
ATOM     22  C   UNL     1      -0.227  -2.384  25.626  0.00  0.00    +0.007 C 
ATOM     23  C   UNL     1      -0.850  -1.036  27.650  0.00  0.00    +0.007 C 
ENDBRANCH   8  12
BRANCH   9  13
ATOM     13  C   UNL     1      -1.279   0.541  22.995  0.00  0.00    +0.092 C 
BRANCH  13   4
ATOM      4  N   UNL     1       0.155   0.730  22.778  0.00  0.00    -0.302 NA
ATOM     16  C   UNL     1       0.770   1.376  23.946  0.00  0.00    +0.085 C 
ATOM     17  C   UNL     1       0.803  -0.554  22.478  0.00  0.00    +0.085 C 
ATOM     19  C   UNL     1       2.994   0.341  23.356  0.00  0.00    +0.077 C 
ATOM     20  C   UNL     1       2.260   1.631  23.713  0.00  0.00    +0.028 C 
ATOM     21  C   UNL     1       2.294  -0.366  22.195  0.00  0.00    +0.028 C 
BRANCH  19  26
ATOM      3  O   UNL     1       4.746   0.871  21.821  0.00  0.00    -0.276 OA
ATOM      6  N   UNL     1       5.286   0.607  24.042  0.00  0.00    -0.329 N 
ATOM     26  C   UNL     1       4.413   0.638  22.980  0.00  0.00    +0.214 C 
ATOM     34  H   UNL     1       4.986   0.398  24.989  0.00  0.00    +0.145 HD
ATOM     35  H   UNL     1       6.275   0.788  23.909  0.00  0.00    +0.145 HD
ENDBRANCH  19  26
ENDBRANCH  13   4
ENDBRANCH   9  13
BRANCH  11  18
ATOM     18  C   UNL     1      -5.479   0.118  25.365  0.00  0.00    +0.105 C 
BRANCH  18  25
ATOM      2  O   UNL     1      -3.980   2.032  25.151  0.00  0.00    -0.420 OA
ATOM      5  N   UNL     1      -6.023   2.549  25.901  0.00  0.00    -0.112 NA
ATOM      7  N   UNL     1      -5.287   3.717  25.829  0.00  0.00    -0.107 NA
ATOM     25  C   UNL     1      -5.221   1.592  25.495  0.00  0.00    +0.218 A 
ATOM     27  C   UNL     1      -4.101   3.367  25.387  0.00  0.00    +0.251 A 
BRANCH  27  28
ATOM      1  F   UNL     1      -1.546   2.582  26.229  0.00  0.00    -0.205 F 
ATOM     28  C   UNL     1      -2.936   4.160  25.119  0.00  0.00    +0.074 A 
ATOM     29  C   UNL     1      -1.682   3.734  25.556  0.00  0.00    +0.136 A 
ATOM     30  C   UNL     1      -3.061   5.360  24.419  0.00  0.00    +0.016 A 
ATOM     31  C   UNL     1      -0.551   4.508  25.293  0.00  0.00    +0.039 A 
ATOM     32  C   UNL     1      -1.930   6.134  24.155  0.00  0.00    +0.001 A 
ATOM     33  C   UNL     1      -0.676   5.708  24.592  0.00  0.00    +0.003 A 
ENDBRANCH  27  28
ENDBRANCH  18  25
ENDBRANCH  11  18
TORSDOF 7
ENDMDL
