MODEL 1
REMARK VINA RESULT:       8.3      0.000      0.000
REMARK  Name = 7051417
REMARK  5 active torsions:
REMARK  status: ('A' for Active; 'I' for Inactive)
REMARK    1  A    between atoms: S_2  and  N_10
REMARK    2  A    between atoms: S_2  and  C_29
REMARK    3  A    between atoms: N_7  and  C_16
REMARK    4  A    between atoms: N_10  and  C_25
REMARK    5  A    between atoms: C_27  and  C_28
REMARK                            x       y       z     vdW  Elec       q    Type
REMARK                         _______ _______ _______ _____ _____    ______ ____
ROOT
ATOM      3  O   UNL     1      -4.168   1.288  26.786  0.00  0.00    -0.266 OA
ATOM      7  N   UNL     1      -0.426  -0.396  23.895  0.00  0.00    -0.298 NA
ATOM      8  N   UNL     1      -3.252  -0.342  25.373  0.00  0.00    -0.310 N 
ATOM     11  C   UNL     1      -1.131  -1.661  25.941  0.00  0.00    +0.024 C 
ATOM     12  C   UNL     1      -2.280  -2.069  23.817  0.00  0.00    +0.050 C 
ATOM     13  C   UNL     1      -1.755  -2.750  25.077  0.00  0.00    +0.017 C 
ATOM     14  C   UNL     1       0.015  -0.968  25.173  0.00  0.00    +0.090 C 
ATOM     15  C   UNL     1      -1.108  -1.399  23.064  0.00  0.00    +0.094 C 
ATOM     17  C   UNL     1      -2.229  -0.680  26.372  0.00  0.00    +0.130 C 
ATOM     18  C   UNL     1      -3.344  -1.042  24.162  0.00  0.00    +0.026 A 
ATOM     23  C   UNL     1      -4.353  -0.795  23.307  0.00  0.00    +0.024 A 
ATOM     24  C   UNL     1      -4.188   0.651  25.733  0.00  0.00    +0.274 A 
ATOM     25  C   UNL     1      -5.263   0.894  24.739  0.00  0.00    +0.112 A 
ATOM     26  C   UNL     1      -5.345   0.204  23.600  0.00  0.00    +0.031 A 
ENDROOT
BRANCH   7  16
ATOM      4  O   UNL     1       5.546  -0.571  22.495  0.00  0.00    -0.276 OA
ATOM      9  N   UNL     1       3.543   0.566  22.808  0.00  0.00    -0.302 N 
ATOM     16  C   UNL     1       0.695   0.205  23.175  0.00  0.00    +0.060 C 
ATOM     19  C   UNL     1       1.522   1.080  24.125  0.00  0.00    +0.038 C 
ATOM     20  C   UNL     1       1.571  -0.892  22.556  0.00  0.00    +0.038 C 
ATOM     21  C   UNL     1       2.755   1.644  23.416  0.00  0.00    +0.109 C 
ATOM     22  C   UNL     1       2.801  -0.290  21.879  0.00  0.00    +0.109 C 
ATOM     27  C   UNL     1       4.904   0.343  23.019  0.00  0.00    +0.212 C 
ATOM     28  C   UNL     1       5.606   1.294  23.955  0.00  0.00    +0.109 C 
ENDBRANCH   7  16
BRANCH  25  10
ATOM     10  N   UNL     1      -6.250   1.865  24.988  0.00  0.00    -0.211 N 
ATOM     35  H   UNL     1      -6.842   2.052  24.166  0.00  0.00    +0.174 HD
BRANCH  10   2
ATOM      2  S   UNL     1      -5.773   3.246  25.841  0.00  0.00    +0.072 S 
ATOM      5  O   UNL     1      -6.556   4.387  25.402  0.00  0.00    -0.150 OA
ATOM      6  O   UNL     1      -5.666   2.935  27.254  0.00  0.00    -0.150 OA
BRANCH   2  29
ATOM      1 CL   UNL     1       0.038   4.018  23.657  0.00  0.00    -0.084 Cl
ATOM     29  C   UNL     1      -4.131   3.464  25.224  0.00  0.00    +0.109 A 
ATOM     30  C   UNL     1      -3.154   3.964  26.067  0.00  0.00    +0.030 A 
ATOM     31  C   UNL     1      -3.855   3.132  23.910  0.00  0.00    +0.030 A 
ATOM     32  C   UNL     1      -1.858   4.136  25.580  0.00  0.00    +0.022 A 
ATOM     33  C   UNL     1      -2.558   3.305  23.422  0.00  0.00    +0.022 A 
ATOM     34  C   UNL     1      -1.560   3.806  24.258  0.00  0.00    +0.041 A 
ENDBRANCH   2  29
ENDBRANCH  10   2
ENDBRANCH  25  10
TORSDOF 4
ENDMDL
MODEL 2
REMARK VINA RESULT:       8.4      2.114      4.224
REMARK  Name = 7051417
REMARK  5 active torsions:
REMARK  status: ('A' for Active; 'I' for Inactive)
REMARK    1  A    between atoms: S_2  and  N_10
REMARK    2  A    between atoms: S_2  and  C_29
REMARK    3  A    between atoms: N_7  and  C_16
REMARK    4  A    between atoms: N_10  and  C_25
REMARK    5  A    between atoms: C_27  and  C_28
REMARK                            x       y       z     vdW  Elec       q    Type
REMARK                         _______ _______ _______ _____ _____    ______ ____
ROOT
ATOM      3  O   UNL     1      -4.338   4.688  23.512  0.00  0.00    -0.266 OA
ATOM      7  N   UNL     1       0.225   2.625  23.863  0.00  0.00    -0.298 NA
ATOM      8  N   UNL     1      -2.381   4.251  24.725  0.00  0.00    -0.310 N 
ATOM     11  C   UNL     1      -0.072   5.110  24.021  0.00  0.00    +0.024 C 
ATOM     12  C   UNL     1      -0.293   3.738  26.039  0.00  0.00    +0.050 C 
ATOM     13  C   UNL     1       0.233   5.071  25.513  0.00  0.00    +0.017 C 
ATOM     14  C   UNL     1       0.619   3.926  23.310  0.00  0.00    +0.090 C 
ATOM     15  C   UNL     1       0.428   2.577  25.319  0.00  0.00    +0.094 C 
ATOM     17  C   UNL     1      -1.594   5.107  23.826  0.00  0.00    +0.130 C 
ATOM     18  C   UNL     1      -1.795   3.636  25.839  0.00  0.00    +0.026 A 
ATOM     23  C   UNL     1      -2.550   2.946  26.713  0.00  0.00    +0.024 A 
ATOM     24  C   UNL     1      -3.764   4.159  24.464  0.00  0.00    +0.274 A 
ATOM     25  C   UNL     1      -4.541   3.366  25.450  0.00  0.00    +0.112 A 
ATOM     26  C   UNL     1      -3.968   2.804  26.516  0.00  0.00    +0.031 A 
ENDROOT
BRANCH   7  16
ATOM      4  O   UNL     1       3.956  -2.219  24.375  0.00  0.00    -0.276 OA
ATOM      9  N   UNL     1       3.047  -0.445  23.180  0.00  0.00    -0.302 N 
ATOM     16  C   UNL     1       0.937   1.536  23.199  0.00  0.00    +0.060 C 
ATOM     19  C   UNL     1       2.402   1.926  22.970  0.00  0.00    +0.038 C 
ATOM     20  C   UNL     1       0.847   0.257  24.043  0.00  0.00    +0.038 C 
ATOM     21  C   UNL     1       3.190   0.765  22.362  0.00  0.00    +0.109 C 
ATOM     22  C   UNL     1       1.665  -0.869  23.414  0.00  0.00    +0.109 C 
ATOM     27  C   UNL     1       4.101  -1.204  23.689  0.00  0.00    +0.212 C 
ATOM     28  C   UNL     1       5.494  -0.726  23.366  0.00  0.00    +0.109 C 
ENDBRANCH   7  16
BRANCH  25  10
ATOM     10  N   UNL     1      -5.928   3.201  25.290  0.00  0.00    -0.211 N 
ATOM     35  H   UNL     1      -6.475   3.908  25.801  0.00  0.00    +0.174 HD
BRANCH  10   2
ATOM      2  S   UNL     1      -6.534   1.625  25.402  0.00  0.00    +0.072 S 
ATOM      5  O   UNL     1      -6.919   1.345  26.773  0.00  0.00    -0.150 OA
ATOM      6  O   UNL     1      -7.467   1.382  24.318  0.00  0.00    -0.150 OA
BRANCH   2  29
ATOM      1 CL   UNL     1      -1.371  -1.696  24.197  0.00  0.00    -0.084 Cl
ATOM     29  C   UNL     1      -5.075   0.686  25.062  0.00  0.00    +0.109 A 
ATOM     30  C   UNL     1      -4.396   0.901  23.875  0.00  0.00    +0.030 A 
ATOM     31  C   UNL     1      -4.641  -0.245  25.987  0.00  0.00    +0.030 A 
ATOM     32  C   UNL     1      -3.244   0.161  23.606  0.00  0.00    +0.022 A 
ATOM     33  C   UNL     1      -3.489  -0.986  25.718  0.00  0.00    +0.022 A 
ATOM     34  C   UNL     1      -2.791  -0.783  24.528  0.00  0.00    +0.041 A 
ENDBRANCH   2  29
ENDBRANCH  10   2
ENDBRANCH  25  10
TORSDOF 4
ENDMDL
MODEL 3
REMARK VINA RESULT:       9.8      1.449      1.705
REMARK  Name = 7051417
REMARK  5 active torsions:
REMARK  status: ('A' for Active; 'I' for Inactive)
REMARK    1  A    between atoms: S_2  and  N_10
REMARK    2  A    between atoms: S_2  and  C_29
REMARK    3  A    between atoms: N_7  and  C_16
REMARK    4  A    between atoms: N_10  and  C_25
REMARK    5  A    between atoms: C_27  and  C_28
REMARK                            x       y       z     vdW  Elec       q    Type
REMARK                         _______ _______ _______ _____ _____    ______ ____
ROOT
ATOM      3  O   UNL     1      -3.603   1.698  26.498  0.00  0.00    -0.266 OA
ATOM      7  N   UNL     1      -0.554  -1.569  24.211  0.00  0.00    -0.298 NA
ATOM      8  N   UNL     1      -3.231  -0.373  25.467  0.00  0.00    -0.310 N 
ATOM     11  C   UNL     1      -1.631  -2.141  26.402  0.00  0.00    +0.024 C 
ATOM     12  C   UNL     1      -2.837  -2.580  24.316  0.00  0.00    +0.050 C 
ATOM     13  C   UNL     1      -2.557  -3.132  25.711  0.00  0.00    +0.017 C 
ATOM     14  C   UNL     1      -0.321  -1.991  25.597  0.00  0.00    +0.090 C 
ATOM     15  C   UNL     1      -1.511  -2.457  23.532  0.00  0.00    +0.094 C 
ATOM     17  C   UNL     1      -2.371  -0.808  26.576  0.00  0.00    +0.130 C 
ATOM     18  C   UNL     1      -3.531  -1.231  24.400  0.00  0.00    +0.026 A 
ATOM     23  C   UNL     1      -4.407  -0.858  23.451  0.00  0.00    +0.024 A 
ATOM     24  C   UNL     1      -3.814   0.907  25.580  0.00  0.00    +0.274 A 
ATOM     25  C   UNL     1      -4.755   1.270  24.490  0.00  0.00    +0.112 A 
ATOM     26  C   UNL     1      -5.041   0.432  23.492  0.00  0.00    +0.031 A 
ENDROOT
BRANCH   7  16
ATOM      4  O   UNL     1       5.243   0.430  24.007  0.00  0.00    -0.276 OA
ATOM      9  N   UNL     1       3.260  -0.224  22.987  0.00  0.00    -0.302 N 
ATOM     16  C   UNL     1       0.702  -1.489  23.469  0.00  0.00    +0.060 C 
ATOM     19  C   UNL     1       0.806  -0.135  22.756  0.00  0.00    +0.038 C 
ATOM     20  C   UNL     1       1.889  -1.687  24.421  0.00  0.00    +0.038 C 
ATOM     21  C   UNL     1       2.155   0.010  22.050  0.00  0.00    +0.109 C 
ATOM     22  C   UNL     1       3.214  -1.512  23.683  0.00  0.00    +0.109 C 
ATOM     27  C   UNL     1       4.324   0.649  23.214  0.00  0.00    +0.212 C 
ATOM     28  C   UNL     1       4.322   1.935  22.427  0.00  0.00    +0.109 C 
ENDBRANCH   7  16
BRANCH  25  10
ATOM     10  N   UNL     1      -5.391   2.524  24.493  0.00  0.00    -0.211 N 
ATOM     35  H   UNL     1      -6.369   2.476  24.172  0.00  0.00    +0.174 HD
BRANCH  10   2
ATOM      2  S   UNL     1      -4.513   3.836  23.883  0.00  0.00    +0.072 S 
ATOM      5  O   UNL     1      -4.361   3.696  22.446  0.00  0.00    -0.150 OA
ATOM      6  O   UNL     1      -5.024   5.071  24.447  0.00  0.00    -0.150 OA
BRANCH   2  29
ATOM      1 CL   UNL     1       1.089   2.786  26.462  0.00  0.00    -0.084 Cl
ATOM     29  C   UNL     1      -2.929   3.539  24.612  0.00  0.00    +0.109 A 
ATOM     30  C   UNL     1      -2.638   4.098  25.844  0.00  0.00    +0.030 A 
ATOM     31  C   UNL     1      -2.012   2.754  23.936  0.00  0.00    +0.030 A 
ATOM     32  C   UNL     1      -1.389   3.864  26.419  0.00  0.00    +0.022 A 
ATOM     33  C   UNL     1      -0.762   2.520  24.512  0.00  0.00    +0.022 A 
ATOM     34  C   UNL     1      -0.451   3.075  25.753  0.00  0.00    +0.041 A 
ENDBRANCH   2  29
ENDBRANCH  10   2
ENDBRANCH  25  10
TORSDOF 4
ENDMDL
