MODEL 1
REMARK VINA RESULT:      13.4      0.000      0.000
REMARK  Name = 7143722
REMARK  4 active torsions:
REMARK  status: ('A' for Active; 'I' for Inactive)
REMARK    1  A    between atoms: O_3  and  C_26
REMARK    2  A    between atoms: O_3  and  C_35
REMARK    3  A    between atoms: N_6  and  C_20
REMARK    4  A    between atoms: C_17  and  C_19
REMARK                            x       y       z     vdW  Elec       q    Type
REMARK                         _______ _______ _______ _____ _____    ______ ____
ROOT
ATOM      1  O   UNL     1       0.353   2.001  25.860  0.00  0.00    -0.267 OA
ATOM      2  O   UNL     1      -4.118   0.078  26.442  0.00  0.00    -0.252 OA
ATOM      4  N   UNL     1      -1.530   2.778  24.722  0.00  0.00    -0.311 N 
ATOM      5  N   UNL     1      -4.494   1.865  25.026  0.00  0.00    -0.284 N 
ATOM      6  N   UNL     1      -4.089  -0.287  24.150  0.00  0.00    -0.266 N 
ATOM      7  C   UNL     1      -3.475   3.941  25.916  0.00  0.00    +0.027 C 
ATOM      8  C   UNL     1      -3.576   3.563  23.481  0.00  0.00    +0.054 C 
ATOM      9  C   UNL     1      -3.702   4.628  24.572  0.00  0.00    +0.018 C 
ATOM     10  C   UNL     1      -2.037   3.409  25.951  0.00  0.00    +0.130 C 
ATOM     11  C   UNL     1      -4.514   2.820  26.135  0.00  0.00    +0.114 C 
ATOM     12  C   UNL     1      -4.658   2.487  23.701  0.00  0.00    +0.119 C 
ATOM     13  C   UNL     1      -2.203   2.918  23.505  0.00  0.00    +0.027 A 
ATOM     14  C   UNL     1      -1.663   2.436  22.374  0.00  0.00    +0.022 A 
ATOM     15  C   UNL     1      -0.289   2.116  24.815  0.00  0.00    +0.259 A 
ATOM     16  C   UNL     1      -4.240   0.502  25.290  0.00  0.00    +0.307 C 
ATOM     17  C   UNL     1       0.264   1.539  23.539  0.00  0.00    +0.047 A 
ATOM     18  C   UNL     1      -0.413   1.732  22.397  0.00  0.00    +0.015 A 
ATOM     36  H   UNL     1      -3.763   0.160  23.300  0.00  0.00    +0.156 HD
ENDROOT
BRANCH  17  19
ATOM     19  C   UNL     1       1.515   0.762  23.534  0.00  0.00    -0.012 A 
ATOM     21  C   UNL     1       2.746   1.419  23.520  0.00  0.00    +0.017 A 
ATOM     22  C   UNL     1       1.470  -0.629  23.546  0.00  0.00    +0.009 A 
ATOM     23  C   UNL     1       3.947   0.692  23.516  0.00  0.00    -0.017 A 
ATOM     24  C   UNL     1       2.653  -1.368  23.544  0.00  0.00    +0.009 A 
ATOM     25  C   UNL     1       3.901  -0.722  23.529  0.00  0.00    -0.018 A 
ATOM     28  C   UNL     1       5.194   1.339  23.501  0.00  0.00    +0.008 A 
ATOM     29  C   UNL     1       5.102  -1.449  23.525  0.00  0.00    +0.008 A 
ATOM     33  C   UNL     1       6.378   0.601  23.498  0.00  0.00    +0.001 A 
ATOM     34  C   UNL     1       6.333  -0.790  23.510  0.00  0.00    +0.001 A 
ENDBRANCH  17  19
BRANCH   6  20
ATOM     20  C   UNL     1      -4.294  -1.684  24.034  0.00  0.00    +0.077 A 
ATOM     26  C   UNL     1      -3.433  -2.579  24.664  0.00  0.00    +0.141 A 
ATOM     27  C   UNL     1      -5.369  -2.153  23.282  0.00  0.00    +0.027 A 
ATOM     30  C   UNL     1      -3.648  -3.952  24.541  0.00  0.00    +0.047 A 
ATOM     31  C   UNL     1      -5.583  -3.526  23.161  0.00  0.00    +0.002 A 
ATOM     32  C   UNL     1      -4.723  -4.425  23.790  0.00  0.00    +0.004 A 
BRANCH  26   3
ATOM      3  O   UNL     1      -2.375  -2.137  25.402  0.00  0.00    -0.493 OA
ATOM     35  C   UNL     1      -1.146  -1.929  24.711  0.00  0.00    +0.277 C 
ENDBRANCH  26   3
ENDBRANCH   6  20
TORSDOF 3
ENDMDL
MODEL 2
REMARK VINA RESULT:      14.2      1.685      5.070
REMARK  Name = 7143722
REMARK  4 active torsions:
REMARK  status: ('A' for Active; 'I' for Inactive)
REMARK    1  A    between atoms: O_3  and  C_26
REMARK    2  A    between atoms: O_3  and  C_35
REMARK    3  A    between atoms: N_6  and  C_20
REMARK    4  A    between atoms: C_17  and  C_19
REMARK                            x       y       z     vdW  Elec       q    Type
REMARK                         _______ _______ _______ _____ _____    ______ ____
ROOT
ATOM      1  O   UNL     1      -0.291  -1.469  22.154  0.00  0.00    -0.267 OA
ATOM      2  O   UNL     1      -3.977   1.599  23.168  0.00  0.00    -0.252 OA
ATOM      4  N   UNL     1      -1.748  -1.772  23.951  0.00  0.00    -0.311 N 
ATOM      5  N   UNL     1      -4.256  -0.090  24.719  0.00  0.00    -0.284 N 
ATOM      6  N   UNL     1      -3.002   1.831  25.261  0.00  0.00    -0.266 N 
ATOM      7  C   UNL     1      -4.231  -2.316  23.631  0.00  0.00    +0.027 C 
ATOM      8  C   UNL     1      -3.314  -2.045  25.905  0.00  0.00    +0.054 C 
ATOM      9  C   UNL     1      -4.114  -2.984  24.999  0.00  0.00    +0.018 C 
ATOM     10  C   UNL     1      -2.824  -2.185  23.035  0.00  0.00    +0.130 C 
ATOM     11  C   UNL     1      -4.940  -0.951  23.751  0.00  0.00    +0.114 C 
ATOM     12  C   UNL     1      -4.074  -0.711  26.042  0.00  0.00    +0.119 C 
ATOM     13  C   UNL     1      -1.931  -1.788  25.337  0.00  0.00    +0.027 A 
ATOM     14  C   UNL     1      -0.902  -1.523  26.157  0.00  0.00    +0.022 A 
ATOM     15  C   UNL     1      -0.503  -1.460  23.367  0.00  0.00    +0.259 A 
ATOM     16  C   UNL     1      -3.769   1.167  24.304  0.00  0.00    +0.307 C 
ATOM     17  C   UNL     1       0.616  -1.114  24.313  0.00  0.00    +0.047 A 
ATOM     18  C   UNL     1       0.388  -1.175  25.632  0.00  0.00    +0.015 A 
ATOM     36  H   UNL     1      -2.513   1.272  25.953  0.00  0.00    +0.156 HD
ENDROOT
BRANCH  17  19
ATOM     19  C   UNL     1       1.936  -0.699  23.809  0.00  0.00    -0.012 A 
ATOM     21  C   UNL     1       3.089  -1.348  24.252  0.00  0.00    +0.017 A 
ATOM     22  C   UNL     1       2.034   0.342  22.890  0.00  0.00    +0.009 A 
ATOM     23  C   UNL     1       4.355  -0.965  23.780  0.00  0.00    -0.017 A 
ATOM     24  C   UNL     1       3.283   0.736  22.410  0.00  0.00    +0.009 A 
ATOM     25  C   UNL     1       4.453   0.093  22.845  0.00  0.00    -0.018 A 
ATOM     28  C   UNL     1       5.525  -1.608  24.216  0.00  0.00    +0.008 A 
ATOM     29  C   UNL     1       5.719   0.477  22.373  0.00  0.00    +0.008 A 
ATOM     33  C   UNL     1       6.774  -1.214  23.737  0.00  0.00    +0.001 A 
ATOM     34  C   UNL     1       6.871  -0.173  22.817  0.00  0.00    +0.001 A 
ENDBRANCH  17  19
BRANCH   6  20
ATOM     20  C   UNL     1      -2.771   3.225  25.367  0.00  0.00    +0.077 A 
ATOM     26  C   UNL     1      -1.564   3.776  24.943  0.00  0.00    +0.141 A 
ATOM     27  C   UNL     1      -3.767   4.039  25.899  0.00  0.00    +0.027 A 
ATOM     30  C   UNL     1      -1.352   5.150  25.053  0.00  0.00    +0.047 A 
ATOM     31  C   UNL     1      -3.555   5.414  26.008  0.00  0.00    +0.002 A 
ATOM     32  C   UNL     1      -2.347   5.969  25.585  0.00  0.00    +0.004 A 
BRANCH  26   3
ATOM      3  O   UNL     1      -0.578   2.992  24.421  0.00  0.00    -0.493 OA
ATOM     35  C   UNL     1       0.307   2.364  25.345  0.00  0.00    +0.277 C 
ENDBRANCH  26   3
ENDBRANCH   6  20
TORSDOF 3
ENDMDL
MODEL 3
REMARK VINA RESULT:      14.5      1.904      5.225
REMARK  Name = 7143722
REMARK  4 active torsions:
REMARK  status: ('A' for Active; 'I' for Inactive)
REMARK    1  A    between atoms: O_3  and  C_26
REMARK    2  A    between atoms: O_3  and  C_35
REMARK    3  A    between atoms: N_6  and  C_20
REMARK    4  A    between atoms: C_17  and  C_19
REMARK                            x       y       z     vdW  Elec       q    Type
REMARK                         _______ _______ _______ _____ _____    ______ ____
ROOT
ATOM      1  O   UNL     1      -0.221  -1.469  22.129  0.00  0.00    -0.267 OA
ATOM      2  O   UNL     1      -3.895   1.614  23.142  0.00  0.00    -0.252 OA
ATOM      4  N   UNL     1      -1.683  -1.770  23.922  0.00  0.00    -0.311 N 
ATOM      5  N   UNL     1      -4.185  -0.078  24.689  0.00  0.00    -0.284 N 
ATOM      6  N   UNL     1      -2.922   1.836  25.238  0.00  0.00    -0.266 N 
ATOM      7  C   UNL     1      -4.168  -2.301  23.595  0.00  0.00    +0.027 C 
ATOM      8  C   UNL     1      -3.255  -2.040  25.871  0.00  0.00    +0.054 C 
ATOM      9  C   UNL     1      -4.057  -2.973  24.962  0.00  0.00    +0.018 C 
ATOM     10  C   UNL     1      -2.758  -2.175  23.003  0.00  0.00    +0.130 C 
ATOM     11  C   UNL     1      -4.871  -0.933  23.717  0.00  0.00    +0.114 C 
ATOM     12  C   UNL     1      -4.009  -0.702  26.010  0.00  0.00    +0.119 C 
ATOM     13  C   UNL     1      -1.869  -1.788  25.307  0.00  0.00    +0.027 A 
ATOM     14  C   UNL     1      -0.841  -1.530  26.131  0.00  0.00    +0.022 A 
ATOM     15  C   UNL     1      -0.436  -1.462  23.342  0.00  0.00    +0.259 A 
ATOM     16  C   UNL     1      -3.691   1.179  24.278  0.00  0.00    +0.307 C 
ATOM     17  C   UNL     1       0.684  -1.123  24.290  0.00  0.00    +0.047 A 
ATOM     18  C   UNL     1       0.452  -1.187  25.610  0.00  0.00    +0.015 A 
ATOM     36  H   UNL     1      -2.438   1.274  25.930  0.00  0.00    +0.156 HD
ENDROOT
BRANCH  17  19
ATOM     19  C   UNL     1       2.006  -0.713  23.791  0.00  0.00    -0.012 A 
ATOM     21  C   UNL     1       3.156  -1.362  24.243  0.00  0.00    +0.017 A 
ATOM     22  C   UNL     1       2.111   0.321  22.866  0.00  0.00    +0.009 A 
ATOM     23  C   UNL     1       4.425  -0.983  23.775  0.00  0.00    -0.017 A 
ATOM     24  C   UNL     1       3.362   0.711  22.389  0.00  0.00    +0.009 A 
ATOM     25  C   UNL     1       4.530   0.069  22.834  0.00  0.00    -0.018 A 
ATOM     28  C   UNL     1       5.592  -1.625  24.221  0.00  0.00    +0.008 A 
ATOM     29  C   UNL     1       5.798   0.449  22.366  0.00  0.00    +0.008 A 
ATOM     33  C   UNL     1       6.844  -1.236  23.745  0.00  0.00    +0.001 A 
ATOM     34  C   UNL     1       6.947  -0.201  22.820  0.00  0.00    +0.001 A 
ENDBRANCH  17  19
BRANCH   6  20
ATOM     20  C   UNL     1      -2.686   3.228  25.348  0.00  0.00    +0.077 A 
ATOM     26  C   UNL     1      -3.625   4.059  25.953  0.00  0.00    +0.141 A 
ATOM     27  C   UNL     1      -1.500   3.758  24.843  0.00  0.00    +0.027 A 
ATOM     30  C   UNL     1      -3.378   5.429  26.055  0.00  0.00    +0.047 A 
ATOM     31  C   UNL     1      -1.253   5.127  24.945  0.00  0.00    +0.002 A 
ATOM     32  C   UNL     1      -2.192   5.962  25.551  0.00  0.00    +0.004 A 
BRANCH  26   3
ATOM      3  O   UNL     1      -4.791   3.558  26.451  0.00  0.00    -0.493 OA
ATOM     35  C   UNL     1      -5.911   3.528  25.570  0.00  0.00    +0.277 C 
ENDBRANCH  26   3
ENDBRANCH   6  20
TORSDOF 3
ENDMDL
