MODEL 1
REMARK VINA RESULT:      -3.1      0.000      0.000
REMARK  Name = 28963042
REMARK  13 active torsions:
REMARK  status: ('A' for Active; 'I' for Inactive)
REMARK    1  A    between atoms: O_1  and  C_11
REMARK    2  A    between atoms: O_4  and  C_26
REMARK    3  A    between atoms: O_4  and  C_30
REMARK    4  A    between atoms: N_5  and  C_15
REMARK    5  A    between atoms: N_6  and  C_25
REMARK    6  A    between atoms: C_8  and  C_18
REMARK    7  A    between atoms: C_10  and  C_20
REMARK    8  A    between atoms: C_14  and  C_19
REMARK    9  A    between atoms: C_19  and  C_21
REMARK   10  A    between atoms: C_19  and  C_22
REMARK   11  A    between atoms: C_23  and  C_24
REMARK   12  A    between atoms: C_24  and  C_26
REMARK   13  A    between atoms: C_25  and  C_27
REMARK                            x       y       z     vdW  Elec       q    Type
REMARK                         _______ _______ _______ _____ _____    ______ ____
ROOT
ATOM      8  C   UNL     1      -2.191  -0.988  25.210  0.00  0.00    -0.027 C 
ATOM      9  C   UNL     1      -2.292   0.131  24.120  0.00  0.00    +0.028 C 
ATOM     10  C   UNL     1      -0.871   0.700  23.768  0.00  0.00    +0.012 C 
ATOM     11  C   UNL     1      -3.362   1.194  24.501  0.00  0.00    +0.122 C 
ATOM     12  C   UNL     1      -3.589  -1.603  25.448  0.00  0.00    +0.007 C 
ATOM     13  C   UNL     1      -1.264  -2.112  24.692  0.00  0.00    +0.009 C 
ATOM     14  C   UNL     1      -4.733   0.563  24.841  0.00  0.00    +0.029 C 
ATOM     15  C   UNL     1       0.074  -0.450  23.321  0.00  0.00    +0.076 C 
ATOM     16  C   UNL     1      -4.630  -0.572  25.861  0.00  0.00    +0.007 C 
ATOM     17  C   UNL     1       0.123  -1.616  24.309  0.00  0.00    +0.023 C 
ATOM     18  C   UNL     1      -1.643  -0.456  26.558  0.00  0.00    +0.011 C 
ATOM     20  C   UNL     1      -0.894   1.786  22.680  0.00  0.00    +0.010 C 
ENDROOT
BRANCH  15   5
ATOM      3  O   UNL     1       1.592  -0.605  20.871  0.00  0.00    -0.276 OA
ATOM      5  N   UNL     1       1.425   0.020  23.101  0.00  0.00    -0.312 N 
ATOM     23  C   UNL     1       2.073  -0.100  21.882  0.00  0.00    +0.215 C 
ATOM     33  H   UNL     1       1.935   0.398  23.895  0.00  0.00    +0.149 HD
BRANCH  23  24
ATOM     24  C   UNL     1       3.476   0.481  21.939  0.00  0.00    +0.124 C 
BRANCH  24  26
ATOM     26  C   UNL     1       3.908   0.853  23.350  0.00  0.00    +0.168 C 
BRANCH  26   4
ATOM      4  O   UNL     1       5.280   0.526  23.526  0.00  0.00    -0.382 OA
ATOM     30  C   UNL     1       5.438  -0.745  24.141  0.00  0.00    +0.194 C 
ENDBRANCH  26   4
ENDBRANCH  24  26
ENDBRANCH  23  24
ENDBRANCH  15   5
BRANCH  11   1
ATOM      1  O   UNL     1      -3.580   2.070  23.396  0.00  0.00    -0.391 OA
ATOM     34  H   UNL     1      -4.530   2.061  23.184  0.00  0.00    +0.210 HD
ENDBRANCH  11   1
BRANCH  14  19
ATOM     19  C   UNL     1      -5.734   1.612  25.341  0.00  0.00    +0.077 C 
ATOM     21  C   UNL     1      -6.960   1.641  24.435  0.00  0.00    +0.017 C 
BRANCH  19  22
ATOM      2  O   UNL     1      -5.272   3.866  24.585  0.00  0.00    -0.276 OA
ATOM      6  N   UNL     1      -4.205   3.096  26.496  0.00  0.00    -0.311 N 
ATOM     22  C   UNL     1      -5.063   2.980  25.411  0.00  0.00    +0.216 C 
ATOM     35  H   UNL     1      -4.126   2.336  27.163  0.00  0.00    +0.149 HD
BRANCH   6  25
ATOM     25  C   UNL     1      -3.453   4.299  26.772  0.00  0.00    +0.141 C 
BRANCH  25  27
ATOM      7  N   UNL     1      -0.008   3.294  25.581  0.00  0.00    -0.263 NA
ATOM     27  C   UNL     1      -2.146   4.326  26.034  0.00  0.00    -0.012 A 
ATOM     28  C   UNL     1      -1.844   5.356  25.149  0.00  0.00    +0.008 A 
ATOM     29  C   UNL     1      -1.202   3.328  26.213  0.00  0.00    +0.115 A 
ATOM     31  C   UNL     1      -0.625   5.356  24.481  0.00  0.00    +0.020 A 
ATOM     32  C   UNL     1       0.251   4.311  24.730  0.00  0.00    +0.111 A 
ENDBRANCH  25  27
ENDBRANCH   6  25
ENDBRANCH  19  22
ENDBRANCH  14  19
TORSDOF 9
ENDMDL
