MODEL 1
REMARK VINA RESULT:      -5.6      0.000      0.000
REMARK  Name = 45783696
REMARK  8 active torsions:
REMARK  status: ('A' for Active; 'I' for Inactive)
REMARK    1  A    between atoms: O_2  and  C_15
REMARK    2  A    between atoms: O_2  and  C_24
REMARK    3  A    between atoms: O_3  and  C_26
REMARK    4  A    between atoms: O_3  and  C_27
REMARK    5  A    between atoms: N_4  and  C_12
REMARK    6  A    between atoms: C_8  and  C_13
REMARK    7  A    between atoms: C_12  and  C_14
REMARK    8  A    between atoms: C_17  and  C_20
REMARK                            x       y       z     vdW  Elec       q    Type
REMARK                         _______ _______ _______ _____ _____    ______ ____
ROOT
ATOM      4  N   UNL     1      -3.964 -10.010  11.356  0.00  0.00    -0.287 NA
ATOM      8  C   UNL     1      -3.047 -10.764  12.233  0.00  0.00    +0.146 C 
ATOM      9  C   UNL     1      -1.658 -10.153  11.964  0.00  0.00    +0.030 C 
ATOM     10  C   UNL     1      -1.886  -9.109  10.881  0.00  0.00    +0.017 C 
ATOM     11  C   UNL     1      -3.169  -9.562  10.213  0.00  0.00    +0.085 C 
ENDROOT
BRANCH   8  13
ATOM      1  O   UNL     1      -2.435 -10.514  14.585  0.00  0.00    -0.336 OA
ATOM      5  N   UNL     1      -4.631 -10.781  14.235  0.00  0.00    -0.190 NA
ATOM      6  N   UNL     1      -3.038 -10.481  15.850  0.00  0.00    -0.056 NA
ATOM     13  C   UNL     1      -3.443 -10.692  13.693  0.00  0.00    +0.245 A 
ATOM     17  C   UNL     1      -4.332 -10.645  15.560  0.00  0.00    +0.204 A 
BRANCH  17  20
ATOM      7  N   UNL     1      -7.703 -10.716  17.130  0.00  0.00    -0.221 NA
ATOM     20  C   UNL     1      -5.352 -10.676  16.569  0.00  0.00    +0.041 A 
ATOM     22  C   UNL     1      -5.022 -10.690  17.920  0.00  0.00    +0.018 A 
ATOM     23  C   UNL     1      -6.694 -10.689  16.229  0.00  0.00    +0.126 A 
ATOM     25  C   UNL     1      -6.031 -10.718  18.875  0.00  0.00    +0.068 A 
ATOM     26  C   UNL     1      -7.344 -10.730  18.432  0.00  0.00    +0.214 A 
BRANCH  26   3
ATOM      3  O   UNL     1      -8.357 -10.757  19.356  0.00  0.00    -0.480 OA
ATOM     27  C   UNL     1      -9.676 -10.552  18.864  0.00  0.00    +0.279 C 
ENDBRANCH  26   3
ENDBRANCH  17  20
ENDBRANCH   8  13
BRANCH   4  12
ATOM     12  C   UNL     1      -5.130 -10.781  10.946  0.00  0.00    +0.124 C 
BRANCH  12  14
ATOM     14  C   UNL     1      -6.225  -9.899  10.407  0.00  0.00    +0.008 A 
ATOM     15  C   UNL     1      -7.380  -9.663  11.150  0.00  0.00    +0.124 A 
ATOM     16  C   UNL     1      -6.073  -9.316   9.150  0.00  0.00    +0.008 A 
ATOM     18  C   UNL     1      -8.386  -8.844  10.637  0.00  0.00    +0.046 A 
ATOM     19  C   UNL     1      -7.077  -8.496   8.635  0.00  0.00    +0.001 A 
ATOM     21  C   UNL     1      -8.233  -8.260   9.379  0.00  0.00    +0.004 A 
BRANCH  15   2
ATOM      2  O   UNL     1      -7.545 -10.226  12.381  0.00  0.00    -0.495 OA
ATOM     24  C   UNL     1      -8.661  -9.783  13.151  0.00  0.00    +0.277 C 
ENDBRANCH  15   2
ENDBRANCH  12  14
ENDBRANCH   4  12
TORSDOF 6
ENDMDL
MODEL 2
REMARK VINA RESULT:      -4.6      1.691      2.856
REMARK  Name = 45783696
REMARK  8 active torsions:
REMARK  status: ('A' for Active; 'I' for Inactive)
REMARK    1  A    between atoms: O_2  and  C_15
REMARK    2  A    between atoms: O_2  and  C_24
REMARK    3  A    between atoms: O_3  and  C_26
REMARK    4  A    between atoms: O_3  and  C_27
REMARK    5  A    between atoms: N_4  and  C_12
REMARK    6  A    between atoms: C_8  and  C_13
REMARK    7  A    between atoms: C_12  and  C_14
REMARK    8  A    between atoms: C_17  and  C_20
REMARK                            x       y       z     vdW  Elec       q    Type
REMARK                         _______ _______ _______ _____ _____    ______ ____
ROOT
ATOM      4  N   UNL     1      -6.304  -9.530  10.355  0.00  0.00    -0.287 NA
ATOM      8  C   UNL     1      -4.957 -10.101  10.547  0.00  0.00    +0.146 C 
ATOM      9  C   UNL     1      -4.009  -9.113   9.840  0.00  0.00    +0.030 C 
ATOM     10  C   UNL     1      -4.919  -8.057   9.230  0.00  0.00    +0.017 C 
ATOM     11  C   UNL     1      -6.255  -8.762   9.111  0.00  0.00    +0.085 C 
ENDROOT
BRANCH   8  13
ATOM      1  O   UNL     1      -3.306 -10.557  12.291  0.00  0.00    -0.336 OA
ATOM      5  N   UNL     1      -5.389 -10.262  13.059  0.00  0.00    -0.190 NA
ATOM      6  N   UNL     1      -3.232 -10.702  13.683  0.00  0.00    -0.056 NA
ATOM     13  C   UNL     1      -4.609 -10.299  12.008  0.00  0.00    +0.245 A 
ATOM     17  C   UNL     1      -4.499 -10.514  14.062  0.00  0.00    +0.204 A 
BRANCH  17  20
ATOM      7  N   UNL     1      -6.704 -10.604  17.057  0.00  0.00    -0.221 NA
ATOM     20  C   UNL     1      -4.910 -10.570  15.436  0.00  0.00    +0.041 A 
ATOM     22  C   UNL     1      -3.972 -10.636  16.461  0.00  0.00    +0.018 A 
ATOM     23  C   UNL     1      -6.250 -10.556  15.783  0.00  0.00    +0.126 A 
ATOM     25  C   UNL     1      -4.399 -10.688  17.783  0.00  0.00    +0.068 A 
ATOM     26  C   UNL     1      -5.764 -10.669  18.026  0.00  0.00    +0.214 A 
BRANCH  26   3
ATOM      3  O   UNL     1      -6.209 -10.718  19.321  0.00  0.00    -0.480 OA
ATOM     27  C   UNL     1      -7.619 -10.768  19.511  0.00  0.00    +0.279 C 
ENDBRANCH  26   3
ENDBRANCH  17  20
ENDBRANCH   8  13
BRANCH   4  12
ATOM     12  C   UNL     1      -7.357 -10.537  10.337  0.00  0.00    +0.124 C 
BRANCH  12  14
ATOM     14  C   UNL     1      -8.476 -10.196  11.285  0.00  0.00    +0.008 A 
ATOM     15  C   UNL     1      -9.625  -9.551  10.828  0.00  0.00    +0.124 A 
ATOM     16  C   UNL     1      -8.354 -10.532  12.633  0.00  0.00    +0.008 A 
ATOM     18  C   UNL     1     -10.653  -9.242  11.719  0.00  0.00    +0.046 A 
ATOM     19  C   UNL     1      -9.381 -10.223  13.524  0.00  0.00    +0.001 A 
ATOM     21  C   UNL     1     -10.530  -9.578  13.068  0.00  0.00    +0.004 A 
BRANCH  15   2
ATOM      2  O   UNL     1      -9.761  -9.216   9.515  0.00  0.00    -0.495 OA
ATOM     24  C   UNL     1      -9.814  -7.824   9.204  0.00  0.00    +0.277 C 
ENDBRANCH  15   2
ENDBRANCH  12  14
ENDBRANCH   4  12
TORSDOF 6
ENDMDL
MODEL 3
REMARK VINA RESULT:      -3.5     13.940     17.042
REMARK  Name = 45783696
REMARK  8 active torsions:
REMARK  status: ('A' for Active; 'I' for Inactive)
REMARK    1  A    between atoms: O_2  and  C_15
REMARK    2  A    between atoms: O_2  and  C_24
REMARK    3  A    between atoms: O_3  and  C_26
REMARK    4  A    between atoms: O_3  and  C_27
REMARK    5  A    between atoms: N_4  and  C_12
REMARK    6  A    between atoms: C_8  and  C_13
REMARK    7  A    between atoms: C_12  and  C_14
REMARK    8  A    between atoms: C_17  and  C_20
REMARK                            x       y       z     vdW  Elec       q    Type
REMARK                         _______ _______ _______ _____ _____    ______ ____
ROOT
ATOM      4  N   UNL     1      -4.612   1.515  25.313  0.00  0.00    -0.287 NA
ATOM      8  C   UNL     1      -4.048   2.336  24.224  0.00  0.00    +0.146 C 
ATOM      9  C   UNL     1      -4.632   3.743  24.452  0.00  0.00    +0.030 C 
ATOM     10  C   UNL     1      -5.558   3.599  25.652  0.00  0.00    +0.017 C 
ATOM     11  C   UNL     1      -5.895   2.121  25.668  0.00  0.00    +0.085 C 
ENDROOT
BRANCH   8  13
ATOM      1  O   UNL     1      -1.917   3.311  24.917  0.00  0.00    -0.336 OA
ATOM      5  N   UNL     1      -1.713   1.504  23.610  0.00  0.00    -0.190 NA
ATOM      6  N   UNL     1      -0.541   3.100  24.757  0.00  0.00    -0.056 NA
ATOM     13  C   UNL     1      -2.533   2.328  24.212  0.00  0.00    +0.245 A 
ATOM     17  C   UNL     1      -0.502   2.018  23.975  0.00  0.00    +0.204 A 
BRANCH  17  20
ATOM      7  N   UNL     1       3.124   1.605  23.257  0.00  0.00    -0.221 NA
ATOM     20  C   UNL     1       0.730   1.424  23.540  0.00  0.00    +0.041 A 
ATOM     22  C   UNL     1       0.755   0.144  22.996  0.00  0.00    +0.018 A 
ATOM     23  C   UNL     1       1.930   2.106  23.648  0.00  0.00    +0.126 A 
ATOM     25  C   UNL     1       1.963  -0.405  22.583  0.00  0.00    +0.068 A 
ATOM     26  C   UNL     1       3.109   0.360  22.733  0.00  0.00    +0.214 A 
BRANCH  26   3
ATOM      3  O   UNL     1       4.312  -0.160  22.333  0.00  0.00    -0.480 OA
ATOM     27  C   UNL     1       5.411   0.012  23.220  0.00  0.00    +0.279 C 
ENDBRANCH  26   3
ENDBRANCH  17  20
ENDBRANCH   8  13
BRANCH   4  12
ATOM     12  C   UNL     1      -4.749   0.107  24.960  0.00  0.00    +0.124 C 
BRANCH  12  14
ATOM     14  C   UNL     1      -3.445  -0.634  25.089  0.00  0.00    +0.008 A 
ATOM     15  C   UNL     1      -3.145  -1.701  24.243  0.00  0.00    +0.124 A 
ATOM     16  C   UNL     1      -2.532  -0.241  26.067  0.00  0.00    +0.008 A 
ATOM     18  C   UNL     1      -1.932  -2.377  24.376  0.00  0.00    +0.046 A 
ATOM     19  C   UNL     1      -1.319  -0.916  26.201  0.00  0.00    +0.001 A 
ATOM     21  C   UNL     1      -1.019  -1.985  25.355  0.00  0.00    +0.004 A 
BRANCH  15   2
ATOM      2  O   UNL     1      -4.026  -2.097  23.282  0.00  0.00    -0.495 OA
ATOM     24  C   UNL     1      -4.732  -3.315  23.513  0.00  0.00    +0.277 C 
ENDBRANCH  15   2
ENDBRANCH  12  14
ENDBRANCH   4  12
TORSDOF 6
ENDMDL
MODEL 4
REMARK VINA RESULT:      -2.8      3.123      7.277
REMARK  Name = 45783696
REMARK  8 active torsions:
REMARK  status: ('A' for Active; 'I' for Inactive)
REMARK    1  A    between atoms: O_2  and  C_15
REMARK    2  A    between atoms: O_2  and  C_24
REMARK    3  A    between atoms: O_3  and  C_26
REMARK    4  A    between atoms: O_3  and  C_27
REMARK    5  A    between atoms: N_4  and  C_12
REMARK    6  A    between atoms: C_8  and  C_13
REMARK    7  A    between atoms: C_12  and  C_14
REMARK    8  A    between atoms: C_17  and  C_20
REMARK                            x       y       z     vdW  Elec       q    Type
REMARK                         _______ _______ _______ _____ _____    ______ ____
ROOT
ATOM      4  N   UNL     1      -5.622  -9.606  11.372  0.00  0.00    -0.287 NA
ATOM      8  C   UNL     1      -4.583  -9.874  10.358  0.00  0.00    +0.146 C 
ATOM      9  C   UNL     1      -4.863  -8.860   9.233  0.00  0.00    +0.030 C 
ATOM     10  C   UNL     1      -6.112  -8.111   9.676  0.00  0.00    +0.017 C 
ATOM     11  C   UNL     1      -6.774  -9.064  10.651  0.00  0.00    +0.085 C 
ENDROOT
BRANCH   8  13
ATOM      1  O   UNL     1      -2.748 -10.780  11.694  0.00  0.00    -0.336 OA
ATOM      5  N   UNL     1      -2.304  -8.793  10.760  0.00  0.00    -0.190 NA
ATOM      6  N   UNL     1      -1.445 -10.447  12.087  0.00  0.00    -0.056 NA
ATOM     13  C   UNL     1      -3.179  -9.754  10.915  0.00  0.00    +0.245 A 
ATOM     17  C   UNL     1      -1.256  -9.264  11.497  0.00  0.00    +0.204 A 
BRANCH  17  20
ATOM      7  N   UNL     1       2.271  -8.216  10.951  0.00  0.00    -0.221 NA
ATOM     20  C   UNL     1      -0.032  -8.526  11.621  0.00  0.00    +0.041 A 
ATOM     22  C   UNL     1       0.068  -7.446  12.492  0.00  0.00    +0.018 A 
ATOM     23  C   UNL     1       1.087  -8.868  10.881  0.00  0.00    +0.126 A 
ATOM     25  C   UNL     1       1.268  -6.751  12.592  0.00  0.00    +0.068 A 
ATOM     26  C   UNL     1       2.330  -7.172  11.807  0.00  0.00    +0.214 A 
BRANCH  26   3
ATOM      3  O   UNL     1       3.523  -6.503  11.889  0.00  0.00    -0.480 OA
ATOM     27  C   UNL     1       4.681  -7.289  12.146  0.00  0.00    +0.279 C 
ENDBRANCH  26   3
ENDBRANCH  17  20
ENDBRANCH   8  13
BRANCH   4  12
ATOM     12  C   UNL     1      -5.971 -10.781  12.160  0.00  0.00    +0.124 C 
BRANCH  12  14
ATOM     14  C   UNL     1      -6.204 -10.437  13.607  0.00  0.00    +0.008 A 
ATOM     15  C   UNL     1      -7.496 -10.383  14.127  0.00  0.00    +0.124 A 
ATOM     16  C   UNL     1      -5.109 -10.173  14.429  0.00  0.00    +0.008 A 
ATOM     18  C   UNL     1      -7.695 -10.062  15.470  0.00  0.00    +0.046 A 
ATOM     19  C   UNL     1      -5.307  -9.853  15.772  0.00  0.00    +0.001 A 
ATOM     21  C   UNL     1      -6.600  -9.797  16.293  0.00  0.00    +0.004 A 
BRANCH  15   2
ATOM      2  O   UNL     1      -8.577 -10.638  13.338  0.00  0.00    -0.495 OA
ATOM     24  C   UNL     1      -9.524  -9.583  13.175  0.00  0.00    +0.277 C 
ENDBRANCH  15   2
ENDBRANCH  12  14
ENDBRANCH   4  12
TORSDOF 6
ENDMDL
MODEL 5
REMARK VINA RESULT:      -2.0     14.163     17.082
REMARK  Name = 45783696
REMARK  8 active torsions:
REMARK  status: ('A' for Active; 'I' for Inactive)
REMARK    1  A    between atoms: O_2  and  C_15
REMARK    2  A    between atoms: O_2  and  C_24
REMARK    3  A    between atoms: O_3  and  C_26
REMARK    4  A    between atoms: O_3  and  C_27
REMARK    5  A    between atoms: N_4  and  C_12
REMARK    6  A    between atoms: C_8  and  C_13
REMARK    7  A    between atoms: C_12  and  C_14
REMARK    8  A    between atoms: C_17  and  C_20
REMARK                            x       y       z     vdW  Elec       q    Type
REMARK                         _______ _______ _______ _____ _____    ______ ____
ROOT
ATOM      4  N   UNL     1      -3.241  -0.760  24.645  0.00  0.00    -0.287 NA
ATOM      8  C   UNL     1      -2.018  -1.577  24.766  0.00  0.00    +0.146 C 
ATOM      9  C   UNL     1      -2.373  -2.914  24.088  0.00  0.00    +0.030 C 
ATOM     10  C   UNL     1      -3.830  -2.775  23.674  0.00  0.00    +0.017 C 
ATOM     11  C   UNL     1      -4.363  -1.698  24.597  0.00  0.00    +0.085 C 
ENDROOT
BRANCH   8  13
ATOM      1  O   UNL     1      -1.055   0.074  23.244  0.00  0.00    -0.336 OA
ATOM      5  N   UNL     1       0.464  -1.146  24.348  0.00  0.00    -0.190 NA
ATOM      6  N   UNL     1       0.198   0.530  22.814  0.00  0.00    -0.056 NA
ATOM     13  C   UNL     1      -0.808  -0.910  24.146  0.00  0.00    +0.245 A 
ATOM     17  C   UNL     1       1.041  -0.237  23.510  0.00  0.00    +0.204 A 
BRANCH  17  20
ATOM      7  N   UNL     1       4.653  -1.101  23.715  0.00  0.00    -0.221 NA
ATOM     20  C   UNL     1       2.467  -0.121  23.392  0.00  0.00    +0.041 A 
ATOM     22  C   UNL     1       3.051   1.028  22.870  0.00  0.00    +0.018 A 
ATOM     23  C   UNL     1       3.304  -1.147  23.796  0.00  0.00    +0.126 A 
ATOM     25  C   UNL     1       4.434   1.113  22.770  0.00  0.00    +0.068 A 
ATOM     26  C   UNL     1       5.185   0.031  23.202  0.00  0.00    +0.214 A 
BRANCH  26   3
ATOM      3  O   UNL     1       6.551   0.091  23.114  0.00  0.00    -0.480 OA
ATOM     27  C   UNL     1       7.213  -1.075  22.638  0.00  0.00    +0.279 C 
ENDBRANCH  26   3
ENDBRANCH  17  20
ENDBRANCH   8  13
BRANCH   4  12
ATOM     12  C   UNL     1      -3.388   0.216  25.718  0.00  0.00    +0.124 C 
BRANCH  12  14
ATOM     14  C   UNL     1      -3.320   1.629  25.203  0.00  0.00    +0.008 A 
ATOM     15  C   UNL     1      -2.166   2.394  25.373  0.00  0.00    +0.124 A 
ATOM     16  C   UNL     1      -4.426   2.171  24.551  0.00  0.00    +0.008 A 
ATOM     18  C   UNL     1      -2.119   3.702  24.891  0.00  0.00    +0.046 A 
ATOM     19  C   UNL     1      -4.380   3.479  24.068  0.00  0.00    +0.001 A 
ATOM     21  C   UNL     1      -3.226   4.244  24.238  0.00  0.00    +0.004 A 
BRANCH  15   2
ATOM      2  O   UNL     1      -1.076   1.880  26.008  0.00  0.00    -0.495 OA
ATOM     24  C   UNL     1       0.150   2.597  25.874  0.00  0.00    +0.277 C 
ENDBRANCH  15   2
ENDBRANCH  12  14
ENDBRANCH   4  12
TORSDOF 6
ENDMDL
MODEL 6
REMARK VINA RESULT:      -1.6     14.330     17.233
REMARK  Name = 45783696
REMARK  8 active torsions:
REMARK  status: ('A' for Active; 'I' for Inactive)
REMARK    1  A    between atoms: O_2  and  C_15
REMARK    2  A    between atoms: O_2  and  C_24
REMARK    3  A    between atoms: O_3  and  C_26
REMARK    4  A    between atoms: O_3  and  C_27
REMARK    5  A    between atoms: N_4  and  C_12
REMARK    6  A    between atoms: C_8  and  C_13
REMARK    7  A    between atoms: C_12  and  C_14
REMARK    8  A    between atoms: C_17  and  C_20
REMARK                            x       y       z     vdW  Elec       q    Type
REMARK                         _______ _______ _______ _____ _____    ______ ____
ROOT
ATOM      4  N   UNL     1      -3.127  -0.273  24.699  0.00  0.00    -0.287 NA
ATOM      8  C   UNL     1      -2.048  -1.280  24.686  0.00  0.00    +0.146 C 
ATOM      9  C   UNL     1      -2.649  -2.487  23.941  0.00  0.00    +0.030 C 
ATOM     10  C   UNL     1      -4.084  -2.087  23.630  0.00  0.00    +0.017 C 
ATOM     11  C   UNL     1      -4.387  -1.014  24.657  0.00  0.00    +0.085 C 
ENDROOT
BRANCH   8  13
ATOM      1  O   UNL     1      -0.934   0.029  22.949  0.00  0.00    -0.336 OA
ATOM      5  N   UNL     1       0.469  -0.982  24.373  0.00  0.00    -0.190 NA
ATOM      6  N   UNL     1       0.359   0.371  22.531  0.00  0.00    -0.056 NA
ATOM     13  C   UNL     1      -0.779  -0.767  24.039  0.00  0.00    +0.245 A 
ATOM     17  C   UNL     1       1.129  -0.262  23.420  0.00  0.00    +0.204 A 
BRANCH  17  20
ATOM      7  N   UNL     1       4.691  -1.224  23.892  0.00  0.00    -0.221 NA
ATOM     20  C   UNL     1       2.562  -0.196  23.385  0.00  0.00    +0.041 A 
ATOM     22  C   UNL     1       3.215   0.905  22.842  0.00  0.00    +0.018 A 
ATOM     23  C   UNL     1       3.338  -1.225  23.892  0.00  0.00    +0.126 A 
ATOM     25  C   UNL     1       4.604   0.942  22.824  0.00  0.00    +0.068 A 
ATOM     26  C   UNL     1       5.290  -0.138  23.356  0.00  0.00    +0.214 A 
BRANCH  26   3
ATOM      3  O   UNL     1       6.660  -0.125  23.350  0.00  0.00    -0.480 OA
ATOM     27  C   UNL     1       7.305  -1.013  22.444  0.00  0.00    +0.279 C 
ENDBRANCH  26   3
ENDBRANCH  17  20
ENDBRANCH   8  13
BRANCH   4  12
ATOM     12  C   UNL     1      -3.058   0.628  25.843  0.00  0.00    +0.124 C 
BRANCH  12  14
ATOM     14  C   UNL     1      -2.431   1.948  25.481  0.00  0.00    +0.008 A 
ATOM     15  C   UNL     1      -3.189   2.960  24.896  0.00  0.00    +0.124 A 
ATOM     16  C   UNL     1      -1.076   2.152  25.740  0.00  0.00    +0.008 A 
ATOM     18  C   UNL     1      -2.593   4.178  24.566  0.00  0.00    +0.046 A 
ATOM     19  C   UNL     1      -0.479   3.368  25.411  0.00  0.00    +0.001 A 
ATOM     21  C   UNL     1      -1.237   4.381  24.825  0.00  0.00    +0.004 A 
BRANCH  15   2
ATOM      2  O   UNL     1      -4.514   2.778  24.636  0.00  0.00    -0.495 OA
ATOM     24  C   UNL     1      -5.437   3.241  25.621  0.00  0.00    +0.277 C 
ENDBRANCH  15   2
ENDBRANCH  12  14
ENDBRANCH   4  12
TORSDOF 6
ENDMDL
