MODEL 1
REMARK VINA RESULT:       3.4      0.000      0.000
REMARK  Name = 40779445
REMARK  8 active torsions:
REMARK  status: ('A' for Active; 'I' for Inactive)
REMARK    1  A    between atoms: O_2  and  C_21
REMARK    2  A    between atoms: O_2  and  C_29
REMARK    3  A    between atoms: N_4  and  C_18
REMARK    4  A    between atoms: N_5  and  C_15
REMARK    5  A    between atoms: C_8  and  C_14
REMARK    6  A    between atoms: C_9  and  C_15
REMARK    7  A    between atoms: C_17  and  C_20
REMARK    8  A    between atoms: C_19  and  C_21
REMARK                            x       y       z     vdW  Elec       q    Type
REMARK                         _______ _______ _______ _____ _____    ______ ____
ROOT
ATOM      3  N   UNL     1      -5.353   2.294  26.141  0.00  0.00    -0.297 NA
ATOM      7  C   UNL     1      -4.784   1.626  23.689  0.00  0.00    +0.002 C 
ATOM      8  C   UNL     1      -4.165   0.609  24.687  0.00  0.00    +0.055 C 
ATOM      9  C   UNL     1      -4.808   3.467  25.408  0.00  0.00    +0.074 C 
ATOM     10  C   UNL     1      -4.274   3.044  24.023  0.00  0.00    +0.024 C 
ATOM     11  C   UNL     1      -6.309   1.623  23.937  0.00  0.00    +0.019 C 
ATOM     12  C   UNL     1      -4.373   1.180  26.119  0.00  0.00    +0.094 C 
ATOM     13  C   UNL     1      -6.578   1.846  25.435  0.00  0.00    +0.085 C 
ENDROOT
BRANCH   8  14
ATOM      4  N   UNL     1      -2.353  -1.159  24.505  0.00  0.00    -0.270 N 
ATOM      6  N   UNL     1      -1.045  -1.354  24.267  0.00  0.00    -0.171 NA
ATOM     14  C   UNL     1      -2.733   0.150  24.450  0.00  0.00    +0.044 A 
ATOM     16  C   UNL     1      -1.595   0.861  24.156  0.00  0.00    +0.053 A 
ATOM     17  C   UNL     1      -0.587  -0.118  24.054  0.00  0.00    +0.093 A 
ATOM     18  C   UNL     1      -3.197  -2.296  24.786  0.00  0.00    +0.172 C 
BRANCH  17  20
ATOM     20  C   UNL     1       0.804   0.107  23.760  0.00  0.00    +0.003 A 
ATOM     22  C   UNL     1       1.737  -0.906  23.984  0.00  0.00    +0.018 A 
ATOM     23  C   UNL     1       1.217   1.334  23.250  0.00  0.00    +0.011 A 
ATOM     24  C   UNL     1       3.097  -0.704  23.701  0.00  0.00    -0.017 A 
ATOM     25  C   UNL     1       2.565   1.553  22.963  0.00  0.00    +0.009 A 
ATOM     26  C   UNL     1       3.518   0.545  23.183  0.00  0.00    -0.018 A 
ATOM     27  C   UNL     1       4.050  -1.711  23.920  0.00  0.00    +0.008 A 
ATOM     28  C   UNL     1       4.878   0.748  22.899  0.00  0.00    +0.008 A 
ATOM     30  C   UNL     1       5.398  -1.492  23.633  0.00  0.00    +0.001 A 
ATOM     31  C   UNL     1       5.811  -0.264  23.124  0.00  0.00    +0.001 A 
ENDBRANCH  17  20
ENDBRANCH   8  14
BRANCH   9  15
ATOM     15  C   UNL     1      -3.754   4.223  26.220  0.00  0.00    +0.123 C 
BRANCH  15   5
ATOM      1  O   UNL     1      -1.346   5.394  25.125  0.00  0.00    -0.272 OA
ATOM      5  N   UNL     1      -2.471   3.602  26.095  0.00  0.00    -0.311 N 
ATOM     19  C   UNL     1      -1.359   4.243  25.554  0.00  0.00    +0.251 C 
ATOM     37  H   UNL     1      -2.389   2.631  26.383  0.00  0.00    +0.149 HD
BRANCH  19  21
ATOM     21  C   UNL     1      -0.134   3.353  25.546  0.00  0.00    +0.324 C 
BRANCH  21   2
ATOM      2  O   UNL     1      -0.214   2.386  26.572  0.00  0.00    -0.483 OA
BRANCH   2  29
ATOM     29  C   UNL     1       0.652   2.520  27.631  0.00  0.00    +0.121 A 
ATOM     32  C   UNL     1       0.222   2.228  28.924  0.00  0.00    +0.045 A 
ATOM     33  C   UNL     1       1.961   2.951  27.412  0.00  0.00    +0.045 A 
ATOM     34  C   UNL     1       1.101   2.365  30.000  0.00  0.00    +0.004 A 
ATOM     35  C   UNL     1       2.839   3.088  28.485  0.00  0.00    +0.004 A 
ATOM     36  C   UNL     1       2.410   2.795  29.780  0.00  0.00    +0.000 A 
ENDBRANCH   2  29
ENDBRANCH  21   2
ENDBRANCH  19  21
ENDBRANCH  15   5
ENDBRANCH   9  15
TORSDOF 7
ENDMDL
