MODEL 1
REMARK VINA RESULT:      10.4      0.000      0.000
REMARK  Name = 40586252
REMARK  9 active torsions:
REMARK  status: ('A' for Active; 'I' for Inactive)
REMARK    1  A    between atoms: O_2  and  C_14
REMARK    2  A    between atoms: O_3  and  C_19
REMARK    3  A    between atoms: N_8  and  C_30
REMARK    4  A    between atoms: C_9  and  C_17
REMARK    5  A    between atoms: C_11  and  C_19
REMARK    6  A    between atoms: C_11  and  C_20
REMARK    7  A    between atoms: C_12  and  C_22
REMARK    8  A    between atoms: C_22  and  C_23
REMARK    9  A    between atoms: C_25  and  C_26
REMARK                            x       y       z     vdW  Elec       q    Type
REMARK                         _______ _______ _______ _____ _____    ______ ____
ROOT
ATOM      1  S   UNL     1       0.603   2.120  25.584  0.00  0.00    -0.057 S 
ATOM      5  O   UNL     1       1.982   0.194  21.557  0.00  0.00    -0.275 OA
ATOM      6  N   UNL     1      -0.181   1.464  23.207  0.00  0.00    -0.229 NA
ATOM      7  N   UNL     1       2.113   0.981  23.767  0.00  0.00    -0.264 N 
ATOM      9  C   UNL     1      -3.752   2.486  24.243  0.00  0.00    -0.019 C 
ATOM     10  C   UNL     1      -3.225   3.602  25.250  0.00  0.00    +0.011 C 
ATOM     11  C   UNL     1      -4.306   4.343  26.126  0.00  0.00    +0.021 C 
ATOM     12  C   UNL     1      -2.595   2.194  23.180  0.00  0.00    +0.054 C 
ATOM     13  C   UNL     1      -4.991   3.023  23.481  0.00  0.00    +0.010 C 
ATOM     14  C   UNL     1      -5.495   4.771  25.219  0.00  0.00    +0.123 C 
ATOM     15  C   UNL     1      -1.997   3.098  26.063  0.00  0.00    +0.049 C 
ATOM     16  C   UNL     1      -6.058   3.625  24.386  0.00  0.00    +0.032 C 
ATOM     17  C   UNL     1      -4.140   1.167  24.957  0.00  0.00    +0.012 C 
ATOM     18  C   UNL     1      -1.262   2.025  23.862  0.00  0.00    +0.058 A 
ATOM     20  C   UNL     1      -3.681   5.642  26.711  0.00  0.00    +0.016 C 
ATOM     21  C   UNL     1      -1.010   2.454  25.149  0.00  0.00    +0.015 A 
ATOM     24  C   UNL     1       0.854   1.455  24.020  0.00  0.00    +0.165 A 
ATOM     26  C   UNL     1       2.631   0.384  22.589  0.00  0.00    +0.222 C 
ATOM     38  H   UNL     1       2.758   1.078  24.549  0.00  0.00    +0.157 HD
ENDROOT
BRANCH  26  25
ATOM     25  C   UNL     1       4.112  -0.031  22.697  0.00  0.00    +0.075 C 
ATOM     27  C   UNL     1       5.050   0.894  23.500  0.00  0.00    +0.013 C 
ATOM     28  C   UNL     1       4.467  -1.141  23.707  0.00  0.00    +0.013 C 
ATOM     29  C   UNL     1       5.785  -0.382  23.962  0.00  0.00    +0.001 C 
ENDBRANCH  26  25
BRANCH  14   2
ATOM      2  O   UNL     1      -6.549   5.329  26.003  0.00  0.00    -0.391 OA
ATOM     36  H   UNL     1      -6.262   5.322  26.932  0.00  0.00    +0.210 HD
ENDBRANCH  14   2
BRANCH  11  19
ATOM     19  C   UNL     1      -4.806   3.538  27.345  0.00  0.00    +0.165 C 
BRANCH  19   3
ATOM      3  O   UNL     1      -5.909   2.765  26.931  0.00  0.00    -0.394 OA
ATOM     37  H   UNL     1      -6.468   3.333  26.373  0.00  0.00    +0.209 HD
ENDBRANCH  19   3
ENDBRANCH  11  19
BRANCH  12  22
ATOM     22  C   UNL     1      -2.888   1.031  22.222  0.00  0.00    +0.106 C 
BRANCH  22  23
ATOM      4  O   UNL     1      -3.874  -1.067  22.880  0.00  0.00    -0.275 OA
ATOM      8  N   UNL     1      -1.719  -0.499  23.624  0.00  0.00    -0.285 N 
ATOM     23  C   UNL     1      -2.913  -0.305  22.936  0.00  0.00    +0.218 C 
ATOM     39  H   UNL     1      -1.018   0.237  23.577  0.00  0.00    +0.155 HD
BRANCH   8  30
ATOM     30  C   UNL     1      -1.348  -1.614  24.412  0.00  0.00    +0.033 A 
ATOM     31  C   UNL     1      -0.024  -1.771  24.820  0.00  0.00    +0.023 A 
ATOM     32  C   UNL     1      -2.308  -2.558  24.779  0.00  0.00    +0.023 A 
ATOM     33  C   UNL     1       0.342  -2.871  25.597  0.00  0.00    +0.002 A 
ATOM     34  C   UNL     1      -1.942  -3.658  25.556  0.00  0.00    +0.002 A 
ATOM     35  C   UNL     1      -0.617  -3.815  25.964  0.00  0.00    +0.000 A 
ENDBRANCH   8  30
ENDBRANCH  22  23
ENDBRANCH  12  22
TORSDOF 7
ENDMDL
MODEL 2
REMARK VINA RESULT:      10.8      2.842      4.330
REMARK  Name = 40586252
REMARK  9 active torsions:
REMARK  status: ('A' for Active; 'I' for Inactive)
REMARK    1  A    between atoms: O_2  and  C_14
REMARK    2  A    between atoms: O_3  and  C_19
REMARK    3  A    between atoms: N_8  and  C_30
REMARK    4  A    between atoms: C_9  and  C_17
REMARK    5  A    between atoms: C_11  and  C_19
REMARK    6  A    between atoms: C_11  and  C_20
REMARK    7  A    between atoms: C_12  and  C_22
REMARK    8  A    between atoms: C_22  and  C_23
REMARK    9  A    between atoms: C_25  and  C_26
REMARK                            x       y       z     vdW  Elec       q    Type
REMARK                         _______ _______ _______ _____ _____    ______ ____
ROOT
ATOM      1  S   UNL     1      -0.834  -0.796  23.128  0.00  0.00    -0.057 S 
ATOM      5  O   UNL     1       3.215   1.379  23.957  0.00  0.00    -0.275 OA
ATOM      6  N   UNL     1       0.222   1.320  24.176  0.00  0.00    -0.229 NA
ATOM      7  N   UNL     1       1.735  -0.276  23.189  0.00  0.00    -0.264 N 
ATOM      9  C   UNL     1      -3.347   2.664  24.743  0.00  0.00    -0.019 C 
ATOM     10  C   UNL     1      -3.953   1.203  24.928  0.00  0.00    +0.011 C 
ATOM     11  C   UNL     1      -5.518   1.091  25.088  0.00  0.00    +0.021 C 
ATOM     12  C   UNL     1      -1.779   2.591  25.039  0.00  0.00    +0.054 C 
ATOM     13  C   UNL     1      -3.995   3.624  25.774  0.00  0.00    +0.010 C 
ATOM     14  C   UNL     1      -6.004   2.150  26.118  0.00  0.00    +0.123 C 
ATOM     15  C   UNL     1      -3.356   0.205  23.892  0.00  0.00    +0.049 C 
ATOM     16  C   UNL     1      -5.516   3.560  25.807  0.00  0.00    +0.032 C 
ATOM     17  C   UNL     1      -3.577   3.234  23.321  0.00  0.00    +0.012 C 
ATOM     18  C   UNL     1      -1.149   1.419  24.333  0.00  0.00    +0.058 A 
ATOM     20  C   UNL     1      -5.869  -0.310  25.665  0.00  0.00    +0.016 C 
ATOM     21  C   UNL     1      -1.872   0.351  23.842  0.00  0.00    +0.015 A 
ATOM     24  C   UNL     1       0.501   0.199  23.548  0.00  0.00    +0.165 A 
ATOM     26  C   UNL     1       3.015   0.301  23.393  0.00  0.00    +0.222 C 
ATOM     38  H   UNL     1       1.712  -1.172  22.708  0.00  0.00    +0.157 HD
ENDROOT
BRANCH  26  25
ATOM     25  C   UNL     1       4.177  -0.544  22.833  0.00  0.00    +0.075 C 
ATOM     27  C   UNL     1       5.585   0.088  22.852  0.00  0.00    +0.013 C 
ATOM     28  C   UNL     1       4.747  -1.656  23.736  0.00  0.00    +0.013 C 
ATOM     29  C   UNL     1       6.130  -1.327  23.138  0.00  0.00    +0.001 C 
ENDBRANCH  26  25
BRANCH  14   2
ATOM      2  O   UNL     1      -7.429   2.164  26.190  0.00  0.00    -0.391 OA
ATOM     36  H   UNL     1      -7.733   1.240  26.201  0.00  0.00    +0.210 HD
ENDBRANCH  14   2
BRANCH  11  19
ATOM     19  C   UNL     1      -6.308   1.206  23.766  0.00  0.00    +0.165 C 
BRANCH  19   3
ATOM      3  O   UNL     1      -7.627   1.589  24.083  0.00  0.00    -0.394 OA
ATOM     37  H   UNL     1      -7.870   2.315  23.483  0.00  0.00    +0.209 HD
ENDBRANCH  19   3
ENDBRANCH  11  19
BRANCH  12  22
ATOM     22  C   UNL     1      -1.016   3.892  24.760  0.00  0.00    +0.106 C 
BRANCH  22  23
ATOM      4  O   UNL     1       0.811   5.126  25.733  0.00  0.00    -0.275 OA
ATOM      8  N   UNL     1       0.145   3.080  26.675  0.00  0.00    -0.285 N 
ATOM     23  C   UNL     1       0.093   4.131  25.765  0.00  0.00    +0.218 C 
ATOM     39  H   UNL     1      -0.521   2.319  26.561  0.00  0.00    +0.155 HD
BRANCH   8  30
ATOM     30  C   UNL     1       1.036   2.924  27.764  0.00  0.00    +0.033 A 
ATOM     31  C   UNL     1       2.388   3.227  27.607  0.00  0.00    +0.023 A 
ATOM     32  C   UNL     1       0.562   2.465  28.993  0.00  0.00    +0.023 A 
ATOM     33  C   UNL     1       3.267   3.074  28.680  0.00  0.00    +0.002 A 
ATOM     34  C   UNL     1       1.440   2.311  30.065  0.00  0.00    +0.002 A 
ATOM     35  C   UNL     1       2.793   2.614  29.909  0.00  0.00    +0.000 A 
ENDBRANCH   8  30
ENDBRANCH  22  23
ENDBRANCH  12  22
TORSDOF 7
ENDMDL
MODEL 3
REMARK VINA RESULT:      14.3      2.406      3.628
REMARK  Name = 40586252
REMARK  9 active torsions:
REMARK  status: ('A' for Active; 'I' for Inactive)
REMARK    1  A    between atoms: O_2  and  C_14
REMARK    2  A    between atoms: O_3  and  C_19
REMARK    3  A    between atoms: N_8  and  C_30
REMARK    4  A    between atoms: C_9  and  C_17
REMARK    5  A    between atoms: C_11  and  C_19
REMARK    6  A    between atoms: C_11  and  C_20
REMARK    7  A    between atoms: C_12  and  C_22
REMARK    8  A    between atoms: C_22  and  C_23
REMARK    9  A    between atoms: C_25  and  C_26
REMARK                            x       y       z     vdW  Elec       q    Type
REMARK                         _______ _______ _______ _____ _____    ______ ____
ROOT
ATOM      1  S   UNL     1       0.727   2.894  23.437  0.00  0.00    -0.057 S 
ATOM      5  O   UNL     1       3.125  -1.113  23.565  0.00  0.00    -0.275 OA
ATOM      6  N   UNL     1       0.538   0.363  23.938  0.00  0.00    -0.229 NA
ATOM      7  N   UNL     1       2.703   1.178  23.261  0.00  0.00    -0.264 N 
ATOM      9  C   UNL     1      -3.073   1.000  25.129  0.00  0.00    -0.019 C 
ATOM     10  C   UNL     1      -3.277   2.213  24.117  0.00  0.00    +0.011 C 
ATOM     11  C   UNL     1      -4.631   3.016  24.224  0.00  0.00    +0.021 C 
ATOM     12  C   UNL     1      -1.888   0.085  24.572  0.00  0.00    +0.054 C 
ATOM     13  C   UNL     1      -4.368   0.147  25.177  0.00  0.00    +0.010 C 
ATOM     14  C   UNL     1      -5.816   2.013  24.309  0.00  0.00    +0.123 C 
ATOM     15  C   UNL     1      -2.013   3.120  24.056  0.00  0.00    +0.049 C 
ATOM     16  C   UNL     1      -5.635   0.961  25.398  0.00  0.00    +0.032 C 
ATOM     17  C   UNL     1      -2.733   1.467  26.566  0.00  0.00    +0.012 C 
ATOM     18  C   UNL     1      -0.708   0.924  24.154  0.00  0.00    +0.058 A 
ATOM     20  C   UNL     1      -4.826   3.853  22.928  0.00  0.00    +0.016 C 
ATOM     21  C   UNL     1      -0.790   2.280  23.910  0.00  0.00    +0.015 A 
ATOM     24  C   UNL     1       1.374   1.307  23.565  0.00  0.00    +0.165 A 
ATOM     26  C   UNL     1       3.518   0.018  23.267  0.00  0.00    +0.222 C 
ATOM     38  H   UNL     1       3.155   2.050  22.995  0.00  0.00    +0.157 HD
ENDROOT
BRANCH  26  25
ATOM     25  C   UNL     1       4.984   0.281  22.868  0.00  0.00    +0.075 C 
ATOM     27  C   UNL     1       5.917   0.872  23.946  0.00  0.00    +0.013 C 
ATOM     28  C   UNL     1       5.936  -0.931  22.816  0.00  0.00    +0.013 C 
ATOM     29  C   UNL     1       7.042   0.013  23.331  0.00  0.00    +0.001 C 
ENDBRANCH  26  25
BRANCH  14   2
ATOM      2  O   UNL     1      -7.043   2.704  24.538  0.00  0.00    -0.391 OA
ATOM     36  H   UNL     1      -6.876   3.388  25.208  0.00  0.00    +0.210 HD
ENDBRANCH  14   2
BRANCH  11  19
ATOM     19  C   UNL     1      -4.684   4.031  25.386  0.00  0.00    +0.165 C 
BRANCH  19   3
ATOM      3  O   UNL     1      -6.039   4.277  25.684  0.00  0.00    -0.394 OA
ATOM     37  H   UNL     1      -6.289   3.680  26.410  0.00  0.00    +0.209 HD
ENDBRANCH  19   3
ENDBRANCH  11  19
BRANCH  12  22
ATOM     22  C   UNL     1      -1.465  -1.052  25.512  0.00  0.00    +0.106 C 
BRANCH  22  23
ATOM      4  O   UNL     1      -0.756  -1.180  27.811  0.00  0.00    -0.275 OA
ATOM      8  N   UNL     1      -0.255   0.727  26.534  0.00  0.00    -0.285 N 
ATOM     23  C   UNL     1      -0.792  -0.535  26.768  0.00  0.00    +0.218 C 
ATOM     39  H   UNL     1      -0.378   1.133  25.609  0.00  0.00    +0.155 HD
BRANCH   8  30
ATOM     30  C   UNL     1       0.449   1.547  27.448  0.00  0.00    +0.033 A 
ATOM     31  C   UNL     1       1.198   2.627  26.981  0.00  0.00    +0.023 A 
ATOM     32  C   UNL     1       0.397   1.274  28.815  0.00  0.00    +0.023 A 
ATOM     33  C   UNL     1       1.894   3.436  27.881  0.00  0.00    +0.002 A 
ATOM     34  C   UNL     1       1.092   2.083  29.715  0.00  0.00    +0.002 A 
ATOM     35  C   UNL     1       1.841   3.163  29.248  0.00  0.00    +0.000 A 
ENDBRANCH   8  30
ENDBRANCH  22  23
ENDBRANCH  12  22
TORSDOF 7
ENDMDL
