MODEL 1
REMARK VINA RESULT:      -1.5      0.000      0.000
REMARK  Name = 25338987
REMARK  8 active torsions:
REMARK  status: ('A' for Active; 'I' for Inactive)
REMARK    1  A    between atoms: O_2  and  C_16
REMARK    2  A    between atoms: O_2  and  C_25
REMARK    3  A    between atoms: O_5  and  C_26
REMARK    4  A    between atoms: O_5  and  C_29
REMARK    5  A    between atoms: N_7  and  C_14
REMARK    6  A    between atoms: C_9  and  C_16
REMARK    7  A    between atoms: C_14  and  C_18
REMARK    8  A    between atoms: C_17  and  C_19
REMARK                            x       y       z     vdW  Elec       q    Type
REMARK                         _______ _______ _______ _____ _____    ______ ____
ROOT
ATOM      4  O   UNL     1       0.968   2.332  26.085  0.00  0.00    -0.269 OA
ATOM      6  N   UNL     1      -0.558   0.929  24.987  0.00  0.00    -0.277 N 
ATOM      7  N   UNL     1      -3.503  -1.182  24.043  0.00  0.00    -0.328 N 
ATOM      8  N   UNL     1      -2.224  -2.892  24.697  0.00  0.00    -0.240 NA
ATOM      9  C   UNL     1       0.419  -0.185  24.884  0.00  0.00    +0.191 C 
ATOM     10  C   UNL     1      -0.145  -1.568  25.269  0.00  0.00    +0.091 C 
ATOM     11  C   UNL     1      -2.302  -0.648  24.399  0.00  0.00    +0.059 A 
ATOM     12  C   UNL     1      -1.899   0.769  24.353  0.00  0.00    +0.164 C 
ATOM     13  C   UNL     1      -1.534  -1.716  24.793  0.00  0.00    +0.066 A 
ATOM     15  C   UNL     1      -3.408  -2.537  24.240  0.00  0.00    +0.200 A 
ATOM     17  C   UNL     1      -0.123   2.141  25.551  0.00  0.00    +0.254 C 
ENDROOT
BRANCH  17  19
ATOM      1  S   UNL     1      -0.871   4.432  24.236  0.00  0.00    -0.092 S 
ATOM     19  C   UNL     1      -1.033   3.294  25.505  0.00  0.00    +0.074 A 
ATOM     22  C   UNL     1      -2.053   3.624  26.369  0.00  0.00    +0.021 A 
ATOM     27  C   UNL     1      -2.712   4.828  25.985  0.00  0.00    +0.008 A 
ATOM     28  C   UNL     1      -2.170   5.371  24.841  0.00  0.00    +0.046 A 
ENDBRANCH  17  19
BRANCH   9  16
ATOM      3  O   UNL     1       0.538  -0.899  22.584  0.00  0.00    -0.249 OA
ATOM     16  C   UNL     1       0.932  -0.156  23.471  0.00  0.00    +0.328 C 
BRANCH  16   2
ATOM      2  O   UNL     1       1.884   0.813  23.352  0.00  0.00    -0.467 OA
ATOM     25  C   UNL     1       3.088   0.414  22.690  0.00  0.00    +0.280 C 
ENDBRANCH  16   2
ENDBRANCH   9  16
BRANCH   7  14
ATOM     14  C   UNL     1      -4.660  -0.478  23.546  0.00  0.00    +0.158 C 
BRANCH  14  18
ATOM     18  C   UNL     1      -4.934   0.814  24.276  0.00  0.00    -0.028 A 
ATOM     20  C   UNL     1      -4.579   2.032  23.697  0.00  0.00    +0.009 A 
ATOM     21  C   UNL     1      -5.542   0.788  25.531  0.00  0.00    +0.009 A 
ATOM     23  C   UNL     1      -4.832   3.225  24.373  0.00  0.00    +0.046 A 
ATOM     24  C   UNL     1      -5.795   1.983  26.208  0.00  0.00    +0.046 A 
ATOM     26  C   UNL     1      -5.440   3.201  25.627  0.00  0.00    +0.120 A 
BRANCH  26   5
ATOM      5  O   UNL     1      -5.688   4.365  26.287  0.00  0.00    -0.495 OA
ATOM     29  C   UNL     1      -6.269   5.428  25.533  0.00  0.00    +0.277 C 
ENDBRANCH  26   5
ENDBRANCH  14  18
ENDBRANCH   7  14
TORSDOF 6
ENDMDL
MODEL 2
REMARK VINA RESULT:      -0.7      2.769      7.735
REMARK  Name = 25338987
REMARK  8 active torsions:
REMARK  status: ('A' for Active; 'I' for Inactive)
REMARK    1  A    between atoms: O_2  and  C_16
REMARK    2  A    between atoms: O_2  and  C_25
REMARK    3  A    between atoms: O_5  and  C_26
REMARK    4  A    between atoms: O_5  and  C_29
REMARK    5  A    between atoms: N_7  and  C_14
REMARK    6  A    between atoms: C_9  and  C_16
REMARK    7  A    between atoms: C_14  and  C_18
REMARK    8  A    between atoms: C_17  and  C_19
REMARK                            x       y       z     vdW  Elec       q    Type
REMARK                         _______ _______ _______ _____ _____    ______ ____
ROOT
ATOM      4  O   UNL     1      -5.080   0.458  25.924  0.00  0.00    -0.269 OA
ATOM      6  N   UNL     1      -3.098   1.079  24.834  0.00  0.00    -0.277 N 
ATOM      7  N   UNL     1       0.461   1.470  23.735  0.00  0.00    -0.328 N 
ATOM      8  N   UNL     1       0.421   3.329  24.972  0.00  0.00    -0.240 NA
ATOM      9  C   UNL     1      -3.275   2.517  25.163  0.00  0.00    +0.191 C 
ATOM     10  C   UNL     1      -2.003   3.214  25.690  0.00  0.00    +0.091 C 
ATOM     11  C   UNL     1      -0.807   1.580  24.221  0.00  0.00    +0.059 A 
ATOM     12  C   UNL     1      -1.945   0.674  23.978  0.00  0.00    +0.164 C 
ATOM     13  C   UNL     1      -0.807   2.728  24.973  0.00  0.00    +0.066 A 
ATOM     15  C   UNL     1       1.163   2.546  24.216  0.00  0.00    +0.200 A 
ATOM     17  C   UNL     1      -4.109   0.182  25.223  0.00  0.00    +0.254 C 
ENDROOT
BRANCH  17  19
ATOM      1  S   UNL     1      -3.132  -2.342  25.685  0.00  0.00    -0.092 S 
ATOM     19  C   UNL     1      -4.018  -1.209  24.757  0.00  0.00    +0.074 A 
ATOM     22  C   UNL     1      -4.565  -1.779  23.628  0.00  0.00    +0.021 A 
ATOM     27  C   UNL     1      -4.252  -3.165  23.524  0.00  0.00    +0.008 A 
ATOM     28  C   UNL     1      -3.478  -3.601  24.576  0.00  0.00    +0.046 A 
ENDBRANCH  17  19
BRANCH   9  16
ATOM      3  O   UNL     1      -3.474   2.835  22.782  0.00  0.00    -0.249 OA
ATOM     16  C   UNL     1      -3.799   3.166  23.913  0.00  0.00    +0.328 C 
BRANCH  16   2
ATOM      2  O   UNL     1      -4.673   4.158  24.247  0.00  0.00    -0.467 OA
ATOM     25  C   UNL     1      -5.442   3.927  25.432  0.00  0.00    +0.280 C 
ENDBRANCH  16   2
ENDBRANCH   9  16
BRANCH   7  14
ATOM     14  C   UNL     1       0.981   0.434  22.876  0.00  0.00    +0.158 C 
BRANCH  14  18
ATOM     18  C   UNL     1       2.439   0.132  23.118  0.00  0.00    -0.028 A 
ATOM     20  C   UNL     1       3.407   1.098  22.843  0.00  0.00    +0.009 A 
ATOM     21  C   UNL     1       2.818  -1.114  23.617  0.00  0.00    +0.009 A 
ATOM     23  C   UNL     1       4.754   0.817  23.067  0.00  0.00    +0.046 A 
ATOM     24  C   UNL     1       4.167  -1.394  23.841  0.00  0.00    +0.046 A 
ATOM     26  C   UNL     1       5.135  -0.427  23.566  0.00  0.00    +0.120 A 
BRANCH  26   5
ATOM      5  O   UNL     1       6.450  -0.701  23.785  0.00  0.00    -0.495 OA
ATOM     29  C   UNL     1       7.316  -0.680  22.651  0.00  0.00    +0.277 C 
ENDBRANCH  26   5
ENDBRANCH  14  18
ENDBRANCH   7  14
TORSDOF 6
ENDMDL
MODEL 3
REMARK VINA RESULT:       1.4      1.641      5.954
REMARK  Name = 25338987
REMARK  8 active torsions:
REMARK  status: ('A' for Active; 'I' for Inactive)
REMARK    1  A    between atoms: O_2  and  C_16
REMARK    2  A    between atoms: O_2  and  C_25
REMARK    3  A    between atoms: O_5  and  C_26
REMARK    4  A    between atoms: O_5  and  C_29
REMARK    5  A    between atoms: N_7  and  C_14
REMARK    6  A    between atoms: C_9  and  C_16
REMARK    7  A    between atoms: C_14  and  C_18
REMARK    8  A    between atoms: C_17  and  C_19
REMARK                            x       y       z     vdW  Elec       q    Type
REMARK                         _______ _______ _______ _____ _____    ______ ____
ROOT
ATOM      4  O   UNL     1      -4.563   4.492  23.687  0.00  0.00    -0.269 OA
ATOM      6  N   UNL     1      -4.036   2.398  24.605  0.00  0.00    -0.277 N 
ATOM      7  N   UNL     1      -2.668  -1.024  25.267  0.00  0.00    -0.328 N 
ATOM      8  N   UNL     1      -4.629  -1.736  24.470  0.00  0.00    -0.240 NA
ATOM      9  C   UNL     1      -5.456   1.958  24.615  0.00  0.00    +0.191 C 
ATOM     10  C   UNL     1      -5.686   0.530  24.080  0.00  0.00    +0.091 C 
ATOM     11  C   UNL     1      -3.399   0.092  24.993  0.00  0.00    +0.059 A 
ATOM     12  C   UNL     1      -3.001   1.498  25.190  0.00  0.00    +0.164 C 
ATOM     13  C   UNL     1      -4.597  -0.370  24.509  0.00  0.00    +0.066 A 
ATOM     15  C   UNL     1      -3.451  -2.101  24.935  0.00  0.00    +0.200 A 
ATOM     17  C   UNL     1      -3.753   3.707  24.175  0.00  0.00    +0.254 C 
ENDROOT
BRANCH  17  19
ATOM      1  S   UNL     1      -1.149   3.549  23.319  0.00  0.00    -0.092 S 
ATOM     19  C   UNL     1      -2.376   4.201  24.319  0.00  0.00    +0.074 A 
ATOM     22  C   UNL     1      -1.887   5.159  25.180  0.00  0.00    +0.021 A 
ATOM     27  C   UNL     1      -0.487   5.361  25.016  0.00  0.00    +0.008 A 
ATOM     28  C   UNL     1       0.042   4.551  24.036  0.00  0.00    +0.046 A 
ENDBRANCH  17  19
BRANCH   9  16
ATOM      3  O   UNL     1      -6.526   1.249  26.655  0.00  0.00    -0.249 OA
ATOM     16  C   UNL     1      -5.926   2.114  26.033  0.00  0.00    +0.328 C 
BRANCH  16   2
ATOM      2  O   UNL     1      -5.580   3.350  26.495  0.00  0.00    -0.467 OA
ATOM     25  C   UNL     1      -6.326   4.442  25.949  0.00  0.00    +0.280 C 
ENDBRANCH  16   2
ENDBRANCH   9  16
BRANCH   7  14
ATOM     14  C   UNL     1      -1.332  -1.083  25.808  0.00  0.00    +0.158 C 
BRANCH  14  18
ATOM     18  C   UNL     1      -0.276  -0.585  24.851  0.00  0.00    -0.028 A 
ATOM     20  C   UNL     1       0.182   0.729  24.940  0.00  0.00    +0.009 A 
ATOM     21  C   UNL     1       0.240  -1.440  23.879  0.00  0.00    +0.009 A 
ATOM     23  C   UNL     1       1.157   1.188  24.056  0.00  0.00    +0.046 A 
ATOM     24  C   UNL     1       1.216  -0.981  22.993  0.00  0.00    +0.046 A 
ATOM     26  C   UNL     1       1.675   0.334  23.083  0.00  0.00    +0.120 A 
BRANCH  26   5
ATOM      5  O   UNL     1       2.627   0.781  22.220  0.00  0.00    -0.495 OA
ATOM     29  C   UNL     1       3.975   0.794  22.689  0.00  0.00    +0.277 C 
ENDBRANCH  26   5
ENDBRANCH  14  18
ENDBRANCH   7  14
TORSDOF 6
ENDMDL
