MODEL 1
REMARK VINA RESULT:      -4.5      0.000      0.000
REMARK  Name = 75368692
REMARK  4 active torsions:
REMARK  status: ('A' for Active; 'I' for Inactive)
REMARK    1  A    between atoms: N_3  and  C_11
REMARK    2  A    between atoms: N_4  and  C_12
REMARK    3  A    between atoms: C_11  and  C_13
REMARK    4  A    between atoms: C_18  and  C_19
REMARK                            x       y       z     vdW  Elec       q    Type
REMARK                         _______ _______ _______ _____ _____    ______ ____
ROOT
ATOM      1  O   UNL     1      14.957  -7.522  26.443  0.00  0.00    -0.252 OA
ATOM      2  N   UNL     1      15.506  -6.560  28.515  0.00  0.00    -0.278 N 
ATOM      3  N   UNL     1      16.857  -6.162  26.765  0.00  0.00    -0.279 N 
ATOM      4  N   UNL     1      15.153  -5.223  30.963  0.00  0.00    -0.302 NA
ATOM      5  C   UNL     1      16.615  -5.816  29.073  0.00  0.00    +0.109 C 
ATOM      6  C   UNL     1      17.400  -5.357  27.846  0.00  0.00    +0.133 C 
ATOM      7  C   UNL     1      16.099  -4.685  29.965  0.00  0.00    +0.108 C 
ATOM      8  C   UNL     1      14.440  -7.007  29.387  0.00  0.00    +0.125 C 
ATOM      9  C   UNL     1      13.997  -5.863  30.301  0.00  0.00    +0.103 C 
ATOM     10  C   UNL     1      15.683  -6.838  27.152  0.00  0.00    +0.305 C 
ATOM     12  C   UNL     1      14.700  -4.160  31.860  0.00  0.00    +0.105 C 
ENDROOT
BRANCH   3  11
ATOM     11  C   UNL     1      17.405  -6.119  25.427  0.00  0.00    +0.144 C 
BRANCH  11  13
ATOM     13  C   UNL     1      17.144  -4.803  24.755  0.00  0.00    -0.030 A 
ATOM     14  C   UNL     1      16.999  -4.745  23.369  0.00  0.00    +0.005 A 
ATOM     15  C   UNL     1      17.049  -3.637  25.515  0.00  0.00    +0.005 A 
ATOM     16  C   UNL     1      16.759  -3.521  22.743  0.00  0.00    +0.003 A 
ATOM     17  C   UNL     1      16.809  -2.413  24.890  0.00  0.00    +0.003 A 
ATOM     18  C   UNL     1      16.664  -2.356  23.504  0.00  0.00    -0.050 A 
ATOM     19  C   UNL     1      16.409  -1.048  22.834  0.00  0.00    +0.044 C 
ENDBRANCH  11  13
ENDBRANCH   3  11
TORSDOF 2
ENDMDL
MODEL 2
REMARK VINA RESULT:      -4.4     26.754     28.191
REMARK  Name = 75368692
REMARK  4 active torsions:
REMARK  status: ('A' for Active; 'I' for Inactive)
REMARK    1  A    between atoms: N_3  and  C_11
REMARK    2  A    between atoms: N_4  and  C_12
REMARK    3  A    between atoms: C_11  and  C_13
REMARK    4  A    between atoms: C_18  and  C_19
REMARK                            x       y       z     vdW  Elec       q    Type
REMARK                         _______ _______ _______ _____ _____    ______ ____
ROOT
ATOM      1  O   UNL     1      -4.694  -7.540   9.921  0.00  0.00    -0.252 OA
ATOM      2  N   UNL     1      -6.584  -8.558   8.966  0.00  0.00    -0.278 N 
ATOM      3  N   UNL     1      -4.832  -9.858   9.502  0.00  0.00    -0.279 N 
ATOM      4  N   UNL     1      -9.294  -9.148   8.503  0.00  0.00    -0.302 NA
ATOM      5  C   UNL     1      -6.941  -9.871   8.473  0.00  0.00    +0.109 C 
ATOM      6  C   UNL     1      -5.855 -10.781   9.044  0.00  0.00    +0.133 C 
ATOM      7  C   UNL     1      -8.367 -10.228   8.897  0.00  0.00    +0.108 C 
ATOM      8  C   UNL     1      -7.497  -7.452   8.766  0.00  0.00    +0.125 C 
ATOM      9  C   UNL     1      -8.919  -7.872   9.145  0.00  0.00    +0.103 C 
ATOM     10  C   UNL     1      -5.293  -8.525   9.512  0.00  0.00    +0.305 C 
ATOM     12  C   UNL     1     -10.669  -9.507   8.849  0.00  0.00    +0.105 C 
ENDROOT
BRANCH   3  11
ATOM     11  C   UNL     1      -3.562 -10.315  10.021  0.00  0.00    +0.144 C 
BRANCH  11  13
ATOM     13  C   UNL     1      -3.576 -10.433  11.517  0.00  0.00    -0.030 A 
ATOM     14  C   UNL     1      -4.791 -10.470  12.202  0.00  0.00    +0.005 A 
ATOM     15  C   UNL     1      -2.375 -10.501  12.224  0.00  0.00    +0.005 A 
ATOM     16  C   UNL     1      -4.805 -10.576  13.593  0.00  0.00    +0.003 A 
ATOM     17  C   UNL     1      -2.388 -10.607  13.614  0.00  0.00    +0.003 A 
ATOM     18  C   UNL     1      -3.603 -10.645  14.299  0.00  0.00    -0.050 A 
ATOM     19  C   UNL     1      -3.619 -10.757  15.786  0.00  0.00    +0.044 C 
ENDBRANCH  11  13
ENDBRANCH   3  11
TORSDOF 2
ENDMDL
MODEL 3
REMARK VINA RESULT:      -3.4      1.188      2.022
REMARK  Name = 75368692
REMARK  4 active torsions:
REMARK  status: ('A' for Active; 'I' for Inactive)
REMARK    1  A    between atoms: N_3  and  C_11
REMARK    2  A    between atoms: N_4  and  C_12
REMARK    3  A    between atoms: C_11  and  C_13
REMARK    4  A    between atoms: C_18  and  C_19
REMARK                            x       y       z     vdW  Elec       q    Type
REMARK                         _______ _______ _______ _____ _____    ______ ____
ROOT
ATOM      1  O   UNL     1      14.186  -7.215  28.246  0.00  0.00    -0.252 OA
ATOM      2  N   UNL     1      15.329  -5.988  29.891  0.00  0.00    -0.278 N 
ATOM      3  N   UNL     1      16.466  -6.637  28.066  0.00  0.00    -0.279 N 
ATOM      4  N   UNL     1      15.822  -3.983  31.801  0.00  0.00    -0.302 NA
ATOM      5  C   UNL     1      16.696  -5.589  30.153  0.00  0.00    +0.109 C 
ATOM      6  C   UNL     1      17.405  -5.826  28.821  0.00  0.00    +0.133 C 
ATOM      7  C   UNL     1      16.741  -4.146  30.657  0.00  0.00    +0.108 C 
ATOM      8  C   UNL     1      14.312  -5.735  30.891  0.00  0.00    +0.125 C 
ATOM      9  C   UNL     1      14.433  -4.300  31.409  0.00  0.00    +0.103 C 
ATOM     10  C   UNL     1      15.199  -6.684  28.682  0.00  0.00    +0.305 C 
ATOM     12  C   UNL     1      15.902  -2.621  32.329  0.00  0.00    +0.105 C 
ENDROOT
BRANCH   3  11
ATOM     11  C   UNL     1      16.796  -7.184  26.768  0.00  0.00    +0.144 C 
BRANCH  11  13
ATOM     13  C   UNL     1      16.956  -6.110  25.732  0.00  0.00    -0.030 A 
ATOM     14  C   UNL     1      16.903  -4.767  26.106  0.00  0.00    +0.005 A 
ATOM     15  C   UNL     1      17.157  -6.454  24.395  0.00  0.00    +0.005 A 
ATOM     16  C   UNL     1      17.049  -3.768  25.143  0.00  0.00    +0.003 A 
ATOM     17  C   UNL     1      17.303  -5.456  23.431  0.00  0.00    +0.003 A 
ATOM     18  C   UNL     1      17.249  -4.113  23.805  0.00  0.00    -0.050 A 
ATOM     19  C   UNL     1      17.405  -3.045  22.776  0.00  0.00    +0.044 C 
ENDBRANCH  11  13
ENDBRANCH   3  11
TORSDOF 2
ENDMDL
MODEL 4
REMARK VINA RESULT:      -3.3      1.889      2.445
REMARK  Name = 75368692
REMARK  4 active torsions:
REMARK  status: ('A' for Active; 'I' for Inactive)
REMARK    1  A    between atoms: N_3  and  C_11
REMARK    2  A    between atoms: N_4  and  C_12
REMARK    3  A    between atoms: C_11  and  C_13
REMARK    4  A    between atoms: C_18  and  C_19
REMARK                            x       y       z     vdW  Elec       q    Type
REMARK                         _______ _______ _______ _____ _____    ______ ____
ROOT
ATOM      1  O   UNL     1      15.402  -9.629  25.468  0.00  0.00    -0.252 OA
ATOM      2  N   UNL     1      15.874  -8.972  27.674  0.00  0.00    -0.278 N 
ATOM      3  N   UNL     1      16.976  -7.955  26.002  0.00  0.00    -0.279 N 
ATOM      4  N   UNL     1      15.412  -8.233  30.347  0.00  0.00    -0.302 NA
ATOM      5  C   UNL     1      16.829  -8.111  28.339  0.00  0.00    +0.109 C 
ATOM      6  C   UNL     1      17.405  -7.264  27.205  0.00  0.00    +0.133 C 
ATOM      7  C   UNL     1      16.144  -7.316  29.451  0.00  0.00    +0.108 C 
ATOM      8  C   UNL     1      14.996  -9.806  28.468  0.00  0.00    +0.125 C 
ATOM      9  C   UNL     1      14.381  -8.985  29.603  0.00  0.00    +0.103 C 
ATOM     10  C   UNL     1      16.009  -8.942  26.279  0.00  0.00    +0.305 C 
ATOM     12  C   UNL     1      14.803  -7.488  31.450  0.00  0.00    +0.105 C 
ENDROOT
BRANCH   3  11
ATOM     11  C   UNL     1      17.405  -7.539  24.685  0.00  0.00    +0.144 C 
BRANCH  11  13
ATOM     13  C   UNL     1      17.224  -6.063  24.475  0.00  0.00    -0.030 A 
ATOM     14  C   UNL     1      16.872  -5.245  25.549  0.00  0.00    +0.005 A 
ATOM     15  C   UNL     1      17.404  -5.511  23.207  0.00  0.00    +0.005 A 
ATOM     16  C   UNL     1      16.701  -3.875  25.355  0.00  0.00    +0.003 A 
ATOM     17  C   UNL     1      17.232  -4.140  23.012  0.00  0.00    +0.003 A 
ATOM     18  C   UNL     1      16.881  -3.322  24.086  0.00  0.00    -0.050 A 
ATOM     19  C   UNL     1      16.696  -1.857  23.880  0.00  0.00    +0.044 C 
ENDBRANCH  11  13
ENDBRANCH   3  11
TORSDOF 2
ENDMDL
MODEL 5
REMARK VINA RESULT:      -2.5     16.209     17.075
REMARK  Name = 75368692
REMARK  4 active torsions:
REMARK  status: ('A' for Active; 'I' for Inactive)
REMARK    1  A    between atoms: N_3  and  C_11
REMARK    2  A    between atoms: N_4  and  C_12
REMARK    3  A    between atoms: C_11  and  C_13
REMARK    4  A    between atoms: C_18  and  C_19
REMARK                            x       y       z     vdW  Elec       q    Type
REMARK                         _______ _______ _______ _____ _____    ______ ____
ROOT
ATOM      1  O   UNL     1      -1.042  -1.775  23.874  0.00  0.00    -0.252 OA
ATOM      2  N   UNL     1      -1.425   0.387  24.708  0.00  0.00    -0.278 N 
ATOM      3  N   UNL     1       0.302   0.078  23.306  0.00  0.00    -0.279 N 
ATOM      4  N   UNL     1      -2.844   2.693  25.467  0.00  0.00    -0.302 NA
ATOM      5  C   UNL     1      -0.752   1.668  24.672  0.00  0.00    +0.109 C 
ATOM      6  C   UNL     1       0.271   1.510  23.549  0.00  0.00    +0.133 C 
ATOM      7  C   UNL     1      -1.765   2.795  24.464  0.00  0.00    +0.108 C 
ATOM      8  C   UNL     1      -2.593   0.222  25.548  0.00  0.00    +0.125 C 
ATOM      9  C   UNL     1      -3.549   1.401  25.352  0.00  0.00    +0.103 C 
ATOM     10  C   UNL     1      -0.757  -0.588  23.956  0.00  0.00    +0.305 C 
ATOM     12  C   UNL     1      -3.786   3.802  25.316  0.00  0.00    +0.105 C 
ENDROOT
BRANCH   3  11
ATOM     11  C   UNL     1       1.234  -0.522  22.377  0.00  0.00    +0.144 C 
BRANCH  11  13
ATOM     13  C   UNL     1       2.659  -0.337  22.813  0.00  0.00    -0.030 A 
ATOM     14  C   UNL     1       3.327   0.852  22.523  0.00  0.00    +0.005 A 
ATOM     15  C   UNL     1       3.315  -1.354  23.506  0.00  0.00    +0.005 A 
ATOM     16  C   UNL     1       4.652   1.024  22.925  0.00  0.00    +0.003 A 
ATOM     17  C   UNL     1       4.639  -1.184  23.909  0.00  0.00    +0.003 A 
ATOM     18  C   UNL     1       5.308   0.006  23.618  0.00  0.00    -0.050 A 
ATOM     19  C   UNL     1       6.724   0.190  24.047  0.00  0.00    +0.044 C 
ENDBRANCH  11  13
ENDBRANCH   3  11
TORSDOF 2
ENDMDL
MODEL 6
REMARK VINA RESULT:      -1.7     18.003     19.275
REMARK  Name = 75368692
REMARK  4 active torsions:
REMARK  status: ('A' for Active; 'I' for Inactive)
REMARK    1  A    between atoms: N_3  and  C_11
REMARK    2  A    between atoms: N_4  and  C_12
REMARK    3  A    between atoms: C_11  and  C_13
REMARK    4  A    between atoms: C_18  and  C_19
REMARK                            x       y       z     vdW  Elec       q    Type
REMARK                         _______ _______ _______ _____ _____    ______ ____
ROOT
ATOM      1  O   UNL     1      -1.233  -1.826  23.506  0.00  0.00    -0.252 OA
ATOM      2  N   UNL     1       0.408  -0.196  23.096  0.00  0.00    -0.278 N 
ATOM      3  N   UNL     1      -1.142   0.226  24.665  0.00  0.00    -0.279 N 
ATOM      4  N   UNL     1       2.951   0.906  22.619  0.00  0.00    -0.302 NA
ATOM      5  C   UNL     1       0.672   1.166  23.512  0.00  0.00    +0.109 C 
ATOM      6  C   UNL     1      -0.232   1.356  24.728  0.00  0.00    +0.133 C 
ATOM      7  C   UNL     1       2.164   1.359  23.784  0.00  0.00    +0.108 C 
ATOM      8  C   UNL     1       1.225  -0.793  22.060  0.00  0.00    +0.125 C 
ATOM      9  C   UNL     1       2.705  -0.524  22.341  0.00  0.00    +0.103 C 
ATOM     10  C   UNL     1      -0.722  -0.736  23.725  0.00  0.00    +0.305 C 
ATOM     12  C   UNL     1       4.377   1.143  22.845  0.00  0.00    +0.105 C 
ENDROOT
BRANCH   3  11
ATOM     11  C   UNL     1      -2.248   0.080  25.586  0.00  0.00    +0.144 C 
BRANCH  11  13
ATOM     13  C   UNL     1      -3.206   1.233  25.501  0.00  0.00    -0.030 A 
ATOM     14  C   UNL     1      -2.748   2.535  25.700  0.00  0.00    +0.005 A 
ATOM     15  C   UNL     1      -4.554   1.002  25.226  0.00  0.00    +0.005 A 
ATOM     16  C   UNL     1      -3.638   3.607  25.624  0.00  0.00    +0.003 A 
ATOM     17  C   UNL     1      -5.444   2.073  25.150  0.00  0.00    +0.003 A 
ATOM     18  C   UNL     1      -4.986   3.376  25.349  0.00  0.00    -0.050 A 
ATOM     19  C   UNL     1      -5.937   4.522  25.269  0.00  0.00    +0.044 C 
ENDBRANCH  11  13
ENDBRANCH   3  11
TORSDOF 2
ENDMDL
MODEL 7
REMARK VINA RESULT:      -1.4     17.009     17.943
REMARK  Name = 75368692
REMARK  4 active torsions:
REMARK  status: ('A' for Active; 'I' for Inactive)
REMARK    1  A    between atoms: N_3  and  C_11
REMARK    2  A    between atoms: N_4  and  C_12
REMARK    3  A    between atoms: C_11  and  C_13
REMARK    4  A    between atoms: C_18  and  C_19
REMARK                            x       y       z     vdW  Elec       q    Type
REMARK                         _______ _______ _______ _____ _____    ______ ____
ROOT
ATOM      1  O   UNL     1       0.931   1.594  25.156  0.00  0.00    -0.252 OA
ATOM      2  N   UNL     1      -1.096   2.613  24.546  0.00  0.00    -0.278 N 
ATOM      3  N   UNL     1      -0.461   0.763  23.442  0.00  0.00    -0.279 N 
ATOM      4  N   UNL     1      -3.597   3.864  24.840  0.00  0.00    -0.302 NA
ATOM      5  C   UNL     1      -2.087   2.453  23.503  0.00  0.00    +0.109 C 
ATOM      6  C   UNL     1      -1.776   1.079  22.914  0.00  0.00    +0.133 C 
ATOM      7  C   UNL     1      -3.495   2.602  24.081  0.00  0.00    +0.108 C 
ATOM      8  C   UNL     1      -1.190   3.742  25.448  0.00  0.00    +0.125 C 
ATOM      9  C   UNL     1      -2.627   3.888  25.954  0.00  0.00    +0.103 C 
ATOM     10  C   UNL     1      -0.078   1.652  24.467  0.00  0.00    +0.305 C 
ATOM     12  C   UNL     1      -4.958   4.044  25.347  0.00  0.00    +0.105 C 
ENDROOT
BRANCH   3  11
ATOM     11  C   UNL     1       0.263  -0.423  23.039  0.00  0.00    +0.144 C 
BRANCH  11  13
ATOM     13  C   UNL     1       1.750  -0.230  23.127  0.00  0.00    -0.030 A 
ATOM     14  C   UNL     1       2.328   0.950  22.657  0.00  0.00    +0.005 A 
ATOM     15  C   UNL     1       2.553  -1.230  23.675  0.00  0.00    +0.005 A 
ATOM     16  C   UNL     1       3.709   1.129  22.736  0.00  0.00    +0.003 A 
ATOM     17  C   UNL     1       3.934  -1.052  23.753  0.00  0.00    +0.003 A 
ATOM     18  C   UNL     1       4.512   0.127  23.284  0.00  0.00    -0.050 A 
ATOM     19  C   UNL     1       5.989   0.319  23.366  0.00  0.00    +0.044 C 
ENDBRANCH  11  13
ENDBRANCH   3  11
TORSDOF 2
ENDMDL
MODEL 8
REMARK VINA RESULT:      -1.3     18.922     20.147
REMARK  Name = 75368692
REMARK  4 active torsions:
REMARK  status: ('A' for Active; 'I' for Inactive)
REMARK    1  A    between atoms: N_3  and  C_11
REMARK    2  A    between atoms: N_4  and  C_12
REMARK    3  A    between atoms: C_11  and  C_13
REMARK    4  A    between atoms: C_18  and  C_19
REMARK                            x       y       z     vdW  Elec       q    Type
REMARK                         _______ _______ _______ _____ _____    ______ ____
ROOT
ATOM      1  O   UNL     1      -1.913   2.074  25.528  0.00  0.00    -0.252 OA
ATOM      2  N   UNL     1      -0.243   0.746  24.546  0.00  0.00    -0.278 N 
ATOM      3  N   UNL     1      -2.351  -0.029  24.553  0.00  0.00    -0.279 N 
ATOM      4  N   UNL     1       2.002   0.079  22.989  0.00  0.00    -0.302 NA
ATOM      5  C   UNL     1      -0.141  -0.590  23.998  0.00  0.00    +0.109 C 
ATOM      6  C   UNL     1      -1.596  -1.011  23.796  0.00  0.00    +0.133 C 
ATOM      7  C   UNL     1       0.707  -0.579  22.725  0.00  0.00    +0.108 C 
ATOM      8  C   UNL     1       0.957   1.540  24.707  0.00  0.00    +0.125 C 
ATOM      9  C   UNL     1       1.803   1.474  23.433  0.00  0.00    +0.103 C 
ATOM     10  C   UNL     1      -1.547   1.058  24.953  0.00  0.00    +0.305 C 
ATOM     12  C   UNL     1       2.845   0.041  21.794  0.00  0.00    +0.105 C 
ENDROOT
BRANCH   3  11
ATOM     11  C   UNL     1      -3.785  -0.124  24.719  0.00  0.00    +0.144 C 
BRANCH  11  13
ATOM     13  C   UNL     1      -4.418   1.223  24.914  0.00  0.00    -0.030 A 
ATOM     14  C   UNL     1      -4.071   2.284  24.078  0.00  0.00    +0.005 A 
ATOM     15  C   UNL     1      -5.352   1.414  25.933  0.00  0.00    +0.005 A 
ATOM     16  C   UNL     1      -4.657   3.537  24.261  0.00  0.00    +0.003 A 
ATOM     17  C   UNL     1      -5.938   2.666  26.116  0.00  0.00    +0.003 A 
ATOM     18  C   UNL     1      -5.591   3.727  25.280  0.00  0.00    -0.050 A 
ATOM     19  C   UNL     1      -6.216   5.067  25.475  0.00  0.00    +0.044 C 
ENDBRANCH  11  13
ENDBRANCH   3  11
TORSDOF 2
ENDMDL
