MODEL 1
REMARK VINA RESULT:      -3.7      0.000      0.000
REMARK  Name = 75536914
REMARK  5 active torsions:
REMARK  status: ('A' for Active; 'I' for Inactive)
REMARK    1  A    between atoms: O_2  and  C_6
REMARK    2  A    between atoms: O_2  and  C_18
REMARK    3  A    between atoms: N_3  and  C_7
REMARK    4  A    between atoms: N_4  and  C_17
REMARK    5  A    between atoms: C_7  and  C_9
REMARK                            x       y       z     vdW  Elec       q    Type
REMARK                         _______ _______ _______ _____ _____    ______ ____
ROOT
ATOM      1  O   UNL     1      -0.985  -2.439  23.987  0.00  0.00    -0.375 OA
ATOM      3  N   UNL     1      -3.263  -0.960  24.940  0.00  0.00    -0.292 NA
ATOM      5  C   UNL     1      -2.199  -0.234  25.631  0.00  0.00    +0.131 C 
ATOM      6  C   UNL     1      -0.961  -0.088  24.735  0.00  0.00    +0.213 C 
ATOM      8  C   UNL     1      -3.179  -2.420  25.058  0.00  0.00    +0.113 C 
ATOM     10  C   UNL     1      -0.179  -1.374  24.480  0.00  0.00    +0.205 C 
ATOM     11  C   UNL     1      -1.780  -3.030  25.008  0.00  0.00    +0.175 C 
ENDROOT
BRANCH   6   2
ATOM      2  O   UNL     1      -0.085   0.861  25.345  0.00  0.00    -0.485 OA
BRANCH   2  18
ATOM     18  C   UNL     1      -0.438   2.178  25.233  0.00  0.00    +0.121 A 
ATOM     21  C   UNL     1      -1.344   2.737  26.133  0.00  0.00    +0.045 A 
ATOM     22  C   UNL     1       0.108   2.962  24.216  0.00  0.00    +0.045 A 
ATOM     23  C   UNL     1      -1.705   4.079  26.019  0.00  0.00    +0.004 A 
ATOM     24  C   UNL     1      -0.253   4.304  24.101  0.00  0.00    +0.004 A 
ATOM     25  C   UNL     1      -1.158   4.863  25.002  0.00  0.00    +0.000 A 
ENDBRANCH   2  18
ENDBRANCH   6   2
BRANCH   3   7
ATOM      7  C   UNL     1      -4.587  -0.499  25.360  0.00  0.00    +0.122 C 
BRANCH   7   9
ATOM      4  N   UNL     1      -5.467   3.073  25.297  0.00  0.00    -0.349 N 
ATOM      9  C   UNL     1      -4.776   0.973  25.104  0.00  0.00    -0.008 A 
ATOM     12  C   UNL     1      -4.179   1.735  24.061  0.00  0.00    +0.004 A 
ATOM     13  C   UNL     1      -4.629   3.049  24.205  0.00  0.00    +0.049 A 
ATOM     14  C   UNL     1      -5.562   1.823  25.847  0.00  0.00    +0.091 A 
ATOM     15  C   UNL     1      -3.296   1.432  23.005  0.00  0.00    +0.010 A 
ATOM     16  C   UNL     1      -4.238   4.079  23.342  0.00  0.00    +0.026 A 
ATOM     17  C   UNL     1      -6.156   4.241  25.803  0.00  0.00    +0.149 C 
ATOM     19  C   UNL     1      -2.897   2.452  22.135  0.00  0.00    +0.001 A 
ATOM     20  C   UNL     1      -3.363   3.755  22.302  0.00  0.00    +0.002 A 
ENDBRANCH   7   9
ENDBRANCH   3   7
TORSDOF 4
ENDMDL
MODEL 2
REMARK VINA RESULT:      -3.4      1.935      4.425
REMARK  Name = 75536914
REMARK  5 active torsions:
REMARK  status: ('A' for Active; 'I' for Inactive)
REMARK    1  A    between atoms: O_2  and  C_6
REMARK    2  A    between atoms: O_2  and  C_18
REMARK    3  A    between atoms: N_3  and  C_7
REMARK    4  A    between atoms: N_4  and  C_17
REMARK    5  A    between atoms: C_7  and  C_9
REMARK                            x       y       z     vdW  Elec       q    Type
REMARK                         _______ _______ _______ _____ _____    ______ ____
ROOT
ATOM      1  O   UNL     1      -3.616  -3.226  24.415  0.00  0.00    -0.375 OA
ATOM      3  N   UNL     1      -2.138  -1.121  25.708  0.00  0.00    -0.292 NA
ATOM      5  C   UNL     1      -2.923  -0.322  24.768  0.00  0.00    +0.131 C 
ATOM      6  C   UNL     1      -4.346  -0.879  24.627  0.00  0.00    +0.213 C 
ATOM      8  C   UNL     1      -1.473  -2.284  25.109  0.00  0.00    +0.113 C 
ATOM     10  C   UNL     1      -4.461  -2.210  23.887  0.00  0.00    +0.205 C 
ATOM     11  C   UNL     1      -2.255  -3.044  24.041  0.00  0.00    +0.175 C 
ENDROOT
BRANCH   6   2
ATOM      2  O   UNL     1      -5.132   0.092  23.936  0.00  0.00    -0.485 OA
BRANCH   2  18
ATOM     18  C   UNL     1      -5.105   1.366  24.433  0.00  0.00    +0.121 A 
ATOM     21  C   UNL     1      -5.751   1.661  25.633  0.00  0.00    +0.045 A 
ATOM     22  C   UNL     1      -4.430   2.371  23.739  0.00  0.00    +0.045 A 
ATOM     23  C   UNL     1      -5.723   2.960  26.140  0.00  0.00    +0.004 A 
ATOM     24  C   UNL     1      -4.403   3.670  24.246  0.00  0.00    +0.004 A 
ATOM     25  C   UNL     1      -5.049   3.965  25.446  0.00  0.00    +0.000 A 
ENDBRANCH   2  18
ENDBRANCH   6   2
BRANCH   3   7
ATOM      7  C   UNL     1      -1.162  -0.300  26.425  0.00  0.00    +0.122 C 
BRANCH   7   9
ATOM      4  N   UNL     1       0.865   1.552  23.975  0.00  0.00    -0.349 N 
ATOM      9  C   UNL     1      -0.481   0.686  25.514  0.00  0.00    -0.008 A 
ATOM     12  C   UNL     1      -0.742   2.082  25.429  0.00  0.00    +0.004 A 
ATOM     13  C   UNL     1       0.115   2.601  24.456  0.00  0.00    +0.049 A 
ATOM     14  C   UNL     1       0.512   0.390  24.607  0.00  0.00    +0.091 A 
ATOM     15  C   UNL     1      -1.629   2.956  26.089  0.00  0.00    +0.010 A 
ATOM     16  C   UNL     1       0.129   3.957  24.109  0.00  0.00    +0.026 A 
ATOM     17  C   UNL     1       1.881   1.646  22.949  0.00  0.00    +0.149 C 
ATOM     19  C   UNL     1      -1.625   4.314  25.752  0.00  0.00    +0.001 A 
ATOM     20  C   UNL     1      -0.758   4.805  24.777  0.00  0.00    +0.002 A 
ENDBRANCH   7   9
ENDBRANCH   3   7
TORSDOF 4
ENDMDL
MODEL 3
REMARK VINA RESULT:      -3.3     14.565     16.838
REMARK  Name = 75536914
REMARK  5 active torsions:
REMARK  status: ('A' for Active; 'I' for Inactive)
REMARK    1  A    between atoms: O_2  and  C_6
REMARK    2  A    between atoms: O_2  and  C_18
REMARK    3  A    between atoms: N_3  and  C_7
REMARK    4  A    between atoms: N_4  and  C_17
REMARK    5  A    between atoms: C_7  and  C_9
REMARK                            x       y       z     vdW  Elec       q    Type
REMARK                         _______ _______ _______ _____ _____    ______ ____
ROOT
ATOM      1  O   UNL     1      -3.707  -9.835  16.383  0.00  0.00    -0.375 OA
ATOM      3  N   UNL     1      -4.530 -10.051  13.633  0.00  0.00    -0.292 NA
ATOM      5  C   UNL     1      -5.625 -10.781  14.270  0.00  0.00    +0.131 C 
ATOM      6  C   UNL     1      -6.028 -10.122  15.596  0.00  0.00    +0.213 C 
ATOM      8  C   UNL     1      -3.191 -10.454  14.078  0.00  0.00    +0.113 C 
ATOM     10  C   UNL     1      -5.019 -10.262  16.733  0.00  0.00    +0.205 C 
ATOM     11  C   UNL     1      -3.034 -10.781  15.561  0.00  0.00    +0.175 C 
ENDROOT
BRANCH   6   2
ATOM      2  O   UNL     1      -7.265 -10.697  16.016  0.00  0.00    -0.485 OA
BRANCH   2  18
ATOM     18  C   UNL     1      -8.337  -9.851  16.093  0.00  0.00    +0.121 A 
ATOM     21  C   UNL     1      -9.357  -9.927  15.145  0.00  0.00    +0.045 A 
ATOM     22  C   UNL     1      -8.410  -8.910  17.121  0.00  0.00    +0.045 A 
ATOM     23  C   UNL     1     -10.449  -9.064  15.222  0.00  0.00    +0.004 A 
ATOM     24  C   UNL     1      -9.502  -8.046  17.198  0.00  0.00    +0.004 A 
ATOM     25  C   UNL     1     -10.522  -8.123  16.250  0.00  0.00    +0.000 A 
ENDBRANCH   2  18
ENDBRANCH   6   2
BRANCH   3   7
ATOM      7  C   UNL     1      -4.615 -10.122  12.174  0.00  0.00    +0.122 C 
BRANCH   7   9
ATOM      4  N   UNL     1      -8.228 -10.188  11.479  0.00  0.00    -0.349 N 
ATOM      9  C   UNL     1      -6.030  -9.957  11.686  0.00  0.00    -0.008 A 
ATOM     12  C   UNL     1      -6.470  -9.104  10.636  0.00  0.00    +0.004 A 
ATOM     13  C   UNL     1      -7.853  -9.268  10.526  0.00  0.00    +0.049 A 
ATOM     14  C   UNL     1      -7.134 -10.610  12.185  0.00  0.00    +0.091 A 
ATOM     15  C   UNL     1      -5.822  -8.205   9.765  0.00  0.00    +0.010 A 
ATOM     16  C   UNL     1      -8.622  -8.575   9.585  0.00  0.00    +0.026 A 
ATOM     17  C   UNL     1      -9.579 -10.653  11.712  0.00  0.00    +0.149 C 
ATOM     19  C   UNL     1      -6.579  -7.505   8.819  0.00  0.00    +0.001 A 
ATOM     20  C   UNL     1      -7.958  -7.690   8.732  0.00  0.00    +0.002 A 
ENDBRANCH   7   9
ENDBRANCH   3   7
TORSDOF 4
ENDMDL
MODEL 4
REMARK VINA RESULT:      -3.1     15.254     17.395
REMARK  Name = 75536914
REMARK  5 active torsions:
REMARK  status: ('A' for Active; 'I' for Inactive)
REMARK    1  A    between atoms: O_2  and  C_6
REMARK    2  A    between atoms: O_2  and  C_18
REMARK    3  A    between atoms: N_3  and  C_7
REMARK    4  A    between atoms: N_4  and  C_17
REMARK    5  A    between atoms: C_7  and  C_9
REMARK                            x       y       z     vdW  Elec       q    Type
REMARK                         _______ _______ _______ _____ _____    ______ ____
ROOT
ATOM      1  O   UNL     1      -4.146  -9.571  14.759  0.00  0.00    -0.375 OA
ATOM      3  N   UNL     1      -5.294 -10.142  12.182  0.00  0.00    -0.292 NA
ATOM      5  C   UNL     1      -6.293 -10.781  13.037  0.00  0.00    +0.131 C 
ATOM      6  C   UNL     1      -6.541  -9.953  14.305  0.00  0.00    +0.213 C 
ATOM      8  C   UNL     1      -3.905 -10.487  12.508  0.00  0.00    +0.113 C 
ATOM     10  C   UNL     1      -5.399  -9.946  15.319  0.00  0.00    +0.205 C 
ATOM     11  C   UNL     1      -3.564 -10.618  13.990  0.00  0.00    +0.175 C 
ENDROOT
BRANCH   6   2
ATOM      2  O   UNL     1      -7.710 -10.466  14.945  0.00  0.00    -0.485 OA
BRANCH   2  18
ATOM     18  C   UNL     1      -8.620  -9.544  15.383  0.00  0.00    +0.121 A 
ATOM     21  C   UNL     1      -8.602  -9.122  16.712  0.00  0.00    +0.045 A 
ATOM     22  C   UNL     1      -9.568  -9.025  14.499  0.00  0.00    +0.045 A 
ATOM     23  C   UNL     1      -9.531  -8.183  17.159  0.00  0.00    +0.004 A 
ATOM     24  C   UNL     1     -10.496  -8.086  14.947  0.00  0.00    +0.004 A 
ATOM     25  C   UNL     1     -10.479  -7.664  16.276  0.00  0.00    +0.000 A 
ENDBRANCH   2  18
ENDBRANCH   6   2
BRANCH   3   7
ATOM      7  C   UNL     1      -5.555 -10.403  10.766  0.00  0.00    +0.122 C 
BRANCH   7   9
ATOM      4  N   UNL     1      -7.423  -7.713   9.089  0.00  0.00    -0.349 N 
ATOM      9  C   UNL     1      -6.550  -9.431  10.191  0.00  0.00    -0.008 A 
ATOM     12  C   UNL     1      -7.964  -9.473  10.349  0.00  0.00    +0.004 A 
ATOM     13  C   UNL     1      -8.487  -8.384   9.648  0.00  0.00    +0.049 A 
ATOM     14  C   UNL     1      -6.249  -8.338   9.411  0.00  0.00    +0.091 A 
ATOM     15  C   UNL     1      -8.851 -10.336  11.023  0.00  0.00    +0.010 A 
ATOM     16  C   UNL     1      -9.859  -8.115   9.588  0.00  0.00    +0.026 A 
ATOM     17  C   UNL     1      -7.516  -6.519   8.277  0.00  0.00    +0.149 C 
ATOM     19  C   UNL     1     -10.225 -10.079  10.972  0.00  0.00    +0.001 A 
ATOM     20  C   UNL     1     -10.719  -8.983  10.265  0.00  0.00    +0.002 A 
ENDBRANCH   7   9
ENDBRANCH   3   7
TORSDOF 4
ENDMDL
MODEL 5
REMARK VINA RESULT:      -2.8      1.477      2.172
REMARK  Name = 75536914
REMARK  5 active torsions:
REMARK  status: ('A' for Active; 'I' for Inactive)
REMARK    1  A    between atoms: O_2  and  C_6
REMARK    2  A    between atoms: O_2  and  C_18
REMARK    3  A    between atoms: N_3  and  C_7
REMARK    4  A    between atoms: N_4  and  C_17
REMARK    5  A    between atoms: C_7  and  C_9
REMARK                            x       y       z     vdW  Elec       q    Type
REMARK                         _______ _______ _______ _____ _____    ______ ____
ROOT
ATOM      1  O   UNL     1       1.543   0.009  22.826  0.00  0.00    -0.375 OA
ATOM      3  N   UNL     1      -1.008  -0.535  24.045  0.00  0.00    -0.292 NA
ATOM      5  C   UNL     1      -0.493   0.450  24.994  0.00  0.00    +0.131 C 
ATOM      6  C   UNL     1       0.279   1.561  24.269  0.00  0.00    +0.213 C 
ATOM      8  C   UNL     1      -0.062  -1.606  23.708  0.00  0.00    +0.113 C 
ATOM     10  C   UNL     1       1.625   1.147  23.677  0.00  0.00    +0.205 C 
ATOM     11  C   UNL     1       1.402  -1.203  23.559  0.00  0.00    +0.175 C 
ENDROOT
BRANCH   6   2
ATOM      2  O   UNL     1       0.502   2.621  25.200  0.00  0.00    -0.485 OA
BRANCH   2  18
ATOM     18  C   UNL     1      -0.529   3.501  25.380  0.00  0.00    +0.121 A 
ATOM     21  C   UNL     1      -1.588   3.172  26.227  0.00  0.00    +0.045 A 
ATOM     22  C   UNL     1      -0.523   4.728  24.716  0.00  0.00    +0.045 A 
ATOM     23  C   UNL     1      -2.640   4.069  26.410  0.00  0.00    +0.004 A 
ATOM     24  C   UNL     1      -1.576   5.625  24.899  0.00  0.00    +0.004 A 
ATOM     25  C   UNL     1      -2.634   5.296  25.746  0.00  0.00    +0.000 A 
ENDBRANCH   2  18
ENDBRANCH   6   2
BRANCH   3   7
ATOM      7  C   UNL     1      -2.273  -1.110  24.502  0.00  0.00    +0.122 C 
BRANCH   7   9
ATOM      4  N   UNL     1      -5.085   1.041  25.504  0.00  0.00    -0.349 N 
ATOM      9  C   UNL     1      -3.327  -0.055  24.706  0.00  0.00    -0.008 A 
ATOM     12  C   UNL     1      -3.457   1.164  23.984  0.00  0.00    +0.004 A 
ATOM     13  C   UNL     1      -4.567   1.833  24.504  0.00  0.00    +0.049 A 
ATOM     14  C   UNL     1      -4.343  -0.102  25.634  0.00  0.00    +0.091 A 
ATOM     15  C   UNL     1      -2.733   1.764  22.934  0.00  0.00    +0.010 A 
ATOM     16  C   UNL     1      -4.990   3.078  24.025  0.00  0.00    +0.026 A 
ATOM     17  C   UNL     1      -6.244   1.357  26.311  0.00  0.00    +0.149 C 
ATOM     19  C   UNL     1      -3.146   3.009  22.445  0.00  0.00    +0.001 A 
ATOM     20  C   UNL     1      -4.259   3.653  22.983  0.00  0.00    +0.002 A 
ENDBRANCH   7   9
ENDBRANCH   3   7
TORSDOF 4
ENDMDL
MODEL 6
REMARK VINA RESULT:      -2.7      2.196      5.688
REMARK  Name = 75536914
REMARK  5 active torsions:
REMARK  status: ('A' for Active; 'I' for Inactive)
REMARK    1  A    between atoms: O_2  and  C_6
REMARK    2  A    between atoms: O_2  and  C_18
REMARK    3  A    between atoms: N_3  and  C_7
REMARK    4  A    between atoms: N_4  and  C_17
REMARK    5  A    between atoms: C_7  and  C_9
REMARK                            x       y       z     vdW  Elec       q    Type
REMARK                         _______ _______ _______ _____ _____    ______ ____
ROOT
ATOM      1  O   UNL     1      -6.467   2.870  25.411  0.00  0.00    -0.375 OA
ATOM      3  N   UNL     1      -4.238   2.479  23.631  0.00  0.00    -0.292 NA
ATOM      5  C   UNL     1      -3.909   1.484  24.651  0.00  0.00    +0.131 C 
ATOM      6  C   UNL     1      -5.175   0.783  25.163  0.00  0.00    +0.213 C 
ATOM      8  C   UNL     1      -4.587   3.802  24.163  0.00  0.00    +0.113 C 
ATOM     10  C   UNL     1      -6.098   1.640  26.025  0.00  0.00    +0.205 C 
ATOM     11  C   UNL     1      -5.414   3.827  25.445  0.00  0.00    +0.175 C 
ENDROOT
BRANCH   6   2
ATOM      2  O   UNL     1      -4.769  -0.354  25.927  0.00  0.00    -0.485 OA
BRANCH   2  18
ATOM     18  C   UNL     1      -3.674  -1.035  25.472  0.00  0.00    +0.121 A 
ATOM     21  C   UNL     1      -2.410  -0.747  25.985  0.00  0.00    +0.045 A 
ATOM     22  C   UNL     1      -3.821  -2.019  24.493  0.00  0.00    +0.045 A 
ATOM     23  C   UNL     1      -1.293  -1.441  25.521  0.00  0.00    +0.004 A 
ATOM     24  C   UNL     1      -2.704  -2.713  24.029  0.00  0.00    +0.004 A 
ATOM     25  C   UNL     1      -1.440  -2.424  24.542  0.00  0.00    +0.000 A 
ENDBRANCH   2  18
ENDBRANCH   6   2
BRANCH   3   7
ATOM      7  C   UNL     1      -3.170   2.604  22.639  0.00  0.00    +0.122 C 
BRANCH   7   9
ATOM      4  N   UNL     1       0.016   0.883  23.289  0.00  0.00    -0.349 N 
ATOM      9  C   UNL     1      -1.865   2.053  23.148  0.00  0.00    -0.008 A 
ATOM     12  C   UNL     1      -1.217   2.397  24.367  0.00  0.00    +0.004 A 
ATOM     13  C   UNL     1      -0.039   1.650  24.431  0.00  0.00    +0.049 A 
ATOM     14  C   UNL     1      -1.082   1.119  22.508  0.00  0.00    +0.091 A 
ATOM     15  C   UNL     1      -1.521   3.277  25.425  0.00  0.00    +0.010 A 
ATOM     16  C   UNL     1       0.853   1.739  25.505  0.00  0.00    +0.026 A 
ATOM     17  C   UNL     1       1.075  -0.044  22.949  0.00  0.00    +0.149 C 
ATOM     19  C   UNL     1      -0.638   3.376  26.505  0.00  0.00    +0.001 A 
ATOM     20  C   UNL     1       0.531   2.617  26.543  0.00  0.00    +0.002 A 
ENDBRANCH   7   9
ENDBRANCH   3   7
TORSDOF 4
ENDMDL
MODEL 7
REMARK VINA RESULT:      -2.2      2.528      6.350
REMARK  Name = 75536914
REMARK  5 active torsions:
REMARK  status: ('A' for Active; 'I' for Inactive)
REMARK    1  A    between atoms: O_2  and  C_6
REMARK    2  A    between atoms: O_2  and  C_18
REMARK    3  A    between atoms: N_3  and  C_7
REMARK    4  A    between atoms: N_4  and  C_17
REMARK    5  A    between atoms: C_7  and  C_9
REMARK                            x       y       z     vdW  Elec       q    Type
REMARK                         _______ _______ _______ _____ _____    ______ ____
ROOT
ATOM      1  O   UNL     1      -4.026   4.530  24.456  0.00  0.00    -0.375 OA
ATOM      3  N   UNL     1      -1.564   3.132  24.978  0.00  0.00    -0.292 NA
ATOM      5  C   UNL     1      -2.488   2.279  25.724  0.00  0.00    +0.131 C 
ATOM      6  C   UNL     1      -3.820   2.127  24.977  0.00  0.00    +0.213 C 
ATOM      8  C   UNL     1      -1.714   4.567  25.243  0.00  0.00    +0.113 C 
ATOM     10  C   UNL     1      -4.700   3.375  24.943  0.00  0.00    +0.205 C 
ATOM     11  C   UNL     1      -3.140   5.083  25.423  0.00  0.00    +0.175 C 
ENDROOT
BRANCH   6   2
ATOM      2  O   UNL     1      -4.556   1.073  25.599  0.00  0.00    -0.485 OA
BRANCH   2  18
ATOM     18  C   UNL     1      -4.226  -0.202  25.229  0.00  0.00    +0.121 A 
ATOM     21  C   UNL     1      -4.559  -0.667  23.957  0.00  0.00    +0.045 A 
ATOM     22  C   UNL     1      -3.557  -1.038  26.124  0.00  0.00    +0.045 A 
ATOM     23  C   UNL     1      -4.224  -1.967  23.579  0.00  0.00    +0.004 A 
ATOM     24  C   UNL     1      -3.222  -2.337  25.746  0.00  0.00    +0.004 A 
ATOM     25  C   UNL     1      -3.555  -2.803  24.475  0.00  0.00    +0.000 A 
ENDBRANCH   2  18
ENDBRANCH   6   2
BRANCH   3   7
ATOM      7  C   UNL     1      -0.174   2.727  25.187  0.00  0.00    +0.122 C 
BRANCH   7   9
ATOM      4  N   UNL     1      -0.019  -0.654  23.743  0.00  0.00    -0.349 N 
ATOM      9  C   UNL     1       0.143   1.430  24.492  0.00  0.00    -0.008 A 
ATOM     12  C   UNL     1       1.311   1.137  23.734  0.00  0.00    +0.004 A 
ATOM     13  C   UNL     1       1.184  -0.176  23.275  0.00  0.00    +0.049 A 
ATOM     14  C   UNL     1      -0.655   0.309  24.479  0.00  0.00    +0.091 A 
ATOM     15  C   UNL     1       2.467   1.867  23.393  0.00  0.00    +0.010 A 
ATOM     16  C   UNL     1       2.160  -0.797  22.488  0.00  0.00    +0.026 A 
ATOM     17  C   UNL     1      -0.549  -1.979  23.500  0.00  0.00    +0.149 C 
ATOM     19  C   UNL     1       3.452   1.258  22.607  0.00  0.00    +0.001 A 
ATOM     20  C   UNL     1       3.298  -0.055  22.163  0.00  0.00    +0.002 A 
ENDBRANCH   7   9
ENDBRANCH   3   7
TORSDOF 4
ENDMDL
MODEL 8
REMARK VINA RESULT:      -1.7      2.361      5.568
REMARK  Name = 75536914
REMARK  5 active torsions:
REMARK  status: ('A' for Active; 'I' for Inactive)
REMARK    1  A    between atoms: O_2  and  C_6
REMARK    2  A    between atoms: O_2  and  C_18
REMARK    3  A    between atoms: N_3  and  C_7
REMARK    4  A    between atoms: N_4  and  C_17
REMARK    5  A    between atoms: C_7  and  C_9
REMARK                            x       y       z     vdW  Elec       q    Type
REMARK                         _______ _______ _______ _____ _____    ______ ____
ROOT
ATOM      1  O   UNL     1      -6.842   2.340  24.771  0.00  0.00    -0.375 OA
ATOM      3  N   UNL     1      -4.156   3.376  24.758  0.00  0.00    -0.292 NA
ATOM      5  C   UNL     1      -3.982   2.269  25.697  0.00  0.00    +0.131 C 
ATOM      6  C   UNL     1      -4.800   1.045  25.262  0.00  0.00    +0.213 C 
ATOM      8  C   UNL     1      -5.318   4.230  25.033  0.00  0.00    +0.113 C 
ATOM     10  C   UNL     1      -6.314   1.181  25.406  0.00  0.00    +0.205 C 
ATOM     11  C   UNL     1      -6.584   3.526  25.514  0.00  0.00    +0.175 C 
ENDROOT
BRANCH   6   2
ATOM      2  O   UNL     1      -4.369  -0.071  26.041  0.00  0.00    -0.485 OA
BRANCH   2  18
ATOM     18  C   UNL     1      -3.540  -0.965  25.421  0.00  0.00    +0.121 A 
ATOM     21  C   UNL     1      -4.050  -1.843  24.466  0.00  0.00    +0.045 A 
ATOM     22  C   UNL     1      -2.183  -0.997  25.745  0.00  0.00    +0.045 A 
ATOM     23  C   UNL     1      -3.204  -2.755  23.834  0.00  0.00    +0.004 A 
ATOM     24  C   UNL     1      -1.338  -1.909  25.113  0.00  0.00    +0.004 A 
ATOM     25  C   UNL     1      -1.847  -2.788  24.158  0.00  0.00    +0.000 A 
ENDBRANCH   2  18
ENDBRANCH   6   2
BRANCH   3   7
ATOM      7  C   UNL     1      -2.946   4.193  24.662  0.00  0.00    +0.122 C 
BRANCH   7   9
ATOM      4  N   UNL     1       0.083   2.693  26.116  0.00  0.00    -0.349 N 
ATOM      9  C   UNL     1      -1.711   3.411  25.024  0.00  0.00    -0.008 A 
ATOM     12  C   UNL     1      -1.127   2.354  24.273  0.00  0.00    +0.004 A 
ATOM     13  C   UNL     1      -0.003   1.920  24.980  0.00  0.00    +0.049 A 
ATOM     14  C   UNL     1      -0.945   3.596  26.152  0.00  0.00    +0.091 A 
ATOM     15  C   UNL     1      -1.448   1.722  23.055  0.00  0.00    +0.010 A 
ATOM     16  C   UNL     1       0.818   0.882  24.527  0.00  0.00    +0.026 A 
ATOM     17  C   UNL     1       1.105   2.578  27.134  0.00  0.00    +0.149 C 
ATOM     19  C   UNL     1      -0.636   0.682  22.590  0.00  0.00    +0.001 A 
ATOM     20  C   UNL     1       0.481   0.271  23.317  0.00  0.00    +0.002 A 
ENDBRANCH   7   9
ENDBRANCH   3   7
TORSDOF 4
ENDMDL
MODEL 9
REMARK VINA RESULT:      -1.7      1.914      5.127
REMARK  Name = 75536914
REMARK  5 active torsions:
REMARK  status: ('A' for Active; 'I' for Inactive)
REMARK    1  A    between atoms: O_2  and  C_6
REMARK    2  A    between atoms: O_2  and  C_18
REMARK    3  A    between atoms: N_3  and  C_7
REMARK    4  A    between atoms: N_4  and  C_17
REMARK    5  A    between atoms: C_7  and  C_9
REMARK                            x       y       z     vdW  Elec       q    Type
REMARK                         _______ _______ _______ _____ _____    ______ ____
ROOT
ATOM      1  O   UNL     1      -3.606   4.194  26.259  0.00  0.00    -0.375 OA
ATOM      3  N   UNL     1      -4.534   1.670  25.233  0.00  0.00    -0.292 NA
ATOM      5  C   UNL     1      -3.694   2.091  24.113  0.00  0.00    +0.131 C 
ATOM      6  C   UNL     1      -2.422   2.790  24.612  0.00  0.00    +0.213 C 
ATOM      8  C   UNL     1      -5.460   2.699  25.718  0.00  0.00    +0.113 C 
ATOM     10  C   UNL     1      -2.630   4.173  25.224  0.00  0.00    +0.205 C 
ATOM     11  C   UNL     1      -4.933   4.132  25.750  0.00  0.00    +0.175 C 
ENDROOT
BRANCH   6   2
ATOM      2  O   UNL     1      -1.526   2.914  23.507  0.00  0.00    -0.485 OA
BRANCH   2  18
ATOM     18  C   UNL     1      -0.569   1.944  23.385  0.00  0.00    +0.121 A 
ATOM     21  C   UNL     1       0.684   2.122  23.969  0.00  0.00    +0.045 A 
ATOM     22  C   UNL     1      -0.848   0.776  22.675  0.00  0.00    +0.045 A 
ATOM     23  C   UNL     1       1.660   1.134  23.844  0.00  0.00    +0.004 A 
ATOM     24  C   UNL     1       0.127  -0.213  22.550  0.00  0.00    +0.004 A 
ATOM     25  C   UNL     1       1.381  -0.035  23.134  0.00  0.00    +0.000 A 
ENDBRANCH   2  18
ENDBRANCH   6   2
BRANCH   3   7
ATOM      7  C   UNL     1      -5.268   0.443  24.921  0.00  0.00    +0.122 C 
BRANCH   7   9
ATOM      4  N   UNL     1      -3.540  -2.646  23.916  0.00  0.00    -0.349 N 
ATOM      9  C   UNL     1      -4.342  -0.715  24.661  0.00  0.00    -0.008 A 
ATOM     12  C   UNL     1      -3.008  -0.856  25.137  0.00  0.00    +0.004 A 
ATOM     13  C   UNL     1      -2.528  -2.076  24.655  0.00  0.00    +0.049 A 
ATOM     14  C   UNL     1      -4.639  -1.831  23.914  0.00  0.00    +0.091 A 
ATOM     15  C   UNL     1      -2.161  -0.060  25.934  0.00  0.00    +0.010 A 
ATOM     16  C   UNL     1      -1.237  -2.540  24.932  0.00  0.00    +0.026 A 
ATOM     17  C   UNL     1      -3.467  -3.920  23.235  0.00  0.00    +0.149 C 
ATOM     19  C   UNL     1      -0.868  -0.512  26.219  0.00  0.00    +0.001 A 
ATOM     20  C   UNL     1      -0.416  -1.735  25.725  0.00  0.00    +0.002 A 
ENDBRANCH   7   9
ENDBRANCH   3   7
TORSDOF 4
ENDMDL
MODEL 10
REMARK VINA RESULT:      -1.6      2.380      6.361
REMARK  Name = 75536914
REMARK  5 active torsions:
REMARK  status: ('A' for Active; 'I' for Inactive)
REMARK    1  A    between atoms: O_2  and  C_6
REMARK    2  A    between atoms: O_2  and  C_18
REMARK    3  A    between atoms: N_3  and  C_7
REMARK    4  A    between atoms: N_4  and  C_17
REMARK    5  A    between atoms: C_7  and  C_9
REMARK                            x       y       z     vdW  Elec       q    Type
REMARK                         _______ _______ _______ _____ _____    ______ ____
ROOT
ATOM      1  O   UNL     1      -3.003   5.709  23.981  0.00  0.00    -0.375 OA
ATOM      3  N   UNL     1      -1.024   3.798  24.827  0.00  0.00    -0.292 NA
ATOM      5  C   UNL     1      -2.222   3.159  25.369  0.00  0.00    +0.131 C 
ATOM      6  C   UNL     1      -3.409   3.314  24.408  0.00  0.00    +0.213 C 
ATOM      8  C   UNL     1      -0.906   5.228  25.135  0.00  0.00    +0.113 C 
ATOM     10  C   UNL     1      -3.982   4.724  24.293  0.00  0.00    +0.205 C 
ATOM     11  C   UNL     1      -2.197   6.042  25.105  0.00  0.00    +0.175 C 
ENDROOT
BRANCH   6   2
ATOM      2  O   UNL     1      -4.448   2.438  24.849  0.00  0.00    -0.485 OA
BRANCH   2  18
ATOM     18  C   UNL     1      -4.313   1.118  24.520  0.00  0.00    +0.121 A 
ATOM     21  C   UNL     1      -3.655   0.754  23.346  0.00  0.00    +0.045 A 
ATOM     22  C   UNL     1      -4.835   0.133  25.361  0.00  0.00    +0.045 A 
ATOM     23  C   UNL     1      -3.518  -0.593  23.010  0.00  0.00    +0.004 A 
ATOM     24  C   UNL     1      -4.699  -1.213  25.025  0.00  0.00    +0.004 A 
ATOM     25  C   UNL     1      -4.040  -1.577  23.851  0.00  0.00    +0.000 A 
ENDBRANCH   2  18
ENDBRANCH   6   2
BRANCH   3   7
ATOM      7  C   UNL     1       0.192   3.096  25.239  0.00  0.00    +0.122 C 
BRANCH   7   9
ATOM      4  N   UNL     1       0.919   0.178  23.118  0.00  0.00    -0.349 N 
ATOM      9  C   UNL     1       0.325   1.760  24.559  0.00  0.00    -0.008 A 
ATOM     12  C   UNL     1      -0.263   0.533  24.977  0.00  0.00    +0.004 A 
ATOM     13  C   UNL     1       0.126  -0.443  24.057  0.00  0.00    +0.049 A 
ATOM     14  C   UNL     1       1.045   1.509  23.413  0.00  0.00    +0.091 A 
ATOM     15  C   UNL     1      -1.090   0.159  26.055  0.00  0.00    +0.010 A 
ATOM     16  C   UNL     1      -0.274  -1.780  24.161  0.00  0.00    +0.026 A 
ATOM     17  C   UNL     1       1.537  -0.467  21.980  0.00  0.00    +0.149 C 
ATOM     19  C   UNL     1      -1.498  -1.175  26.171  0.00  0.00    +0.001 A 
ATOM     20  C   UNL     1      -1.095  -2.128  25.236  0.00  0.00    +0.002 A 
ENDBRANCH   7   9
ENDBRANCH   3   7
TORSDOF 4
ENDMDL
