MODEL 1
REMARK VINA RESULT:      -1.8      0.000      0.000
REMARK  Name = 45361003
REMARK  11 active torsions:
REMARK  status: ('A' for Active; 'I' for Inactive)
REMARK    1  A    between atoms: N_3  and  C_13
REMARK    2  A    between atoms: N_4  and  C_18
REMARK    3  A    between atoms: N_6  and  C_24
REMARK    4  A    between atoms: C_12  and  C_17
REMARK    5  A    between atoms: C_13  and  C_15
REMARK    6  A    between atoms: C_15  and  C_19
REMARK    7  A    between atoms: C_15  and  C_20
REMARK    8  A    between atoms: C_15  and  C_21
REMARK    9  A    between atoms: C_17  and  C_22
REMARK   10  A    between atoms: C_22  and  C_23
REMARK   11  A    between atoms: C_24  and  C_25
REMARK                            x       y       z     vdW  Elec       q    Type
REMARK                         _______ _______ _______ _____ _____    ______ ____
ROOT
ATOM      1  O   UNL     1      -0.724   0.648  26.477  0.00  0.00    -0.274 OA
ATOM      3  N   UNL     1      -0.230   0.005  23.902  0.00  0.00    -0.290 NA
ATOM      4  N   UNL     1      -2.299   3.022  23.854  0.00  0.00    -0.296 NA
ATOM      5  N   UNL     1      -0.561   2.908  26.154  0.00  0.00    -0.312 N 
ATOM      8  C   UNL     1      -1.309   2.087  23.276  0.00  0.00    +0.084 C 
ATOM      9  C   UNL     1      -0.254   1.443  24.225  0.00  0.00    +0.160 C 
ATOM     10  C   UNL     1      -1.935   0.849  22.608  0.00  0.00    +0.036 C 
ATOM     11  C   UNL     1      -0.793  -0.144  22.565  0.00  0.00    +0.087 C 
ATOM     12  C   UNL     1      -1.711   4.264  24.430  0.00  0.00    +0.074 C 
ATOM     14  C   UNL     1      -0.547   1.599  25.716  0.00  0.00    +0.232 C 
ATOM     16  C   UNL     1      -0.437   4.050  25.270  0.00  0.00    +0.123 C 
ATOM     18  C   UNL     1      -3.339   3.359  22.868  0.00  0.00    +0.105 C 
ATOM     30  H   UNL     1      -0.727   3.080  27.142  0.00  0.00    +0.149 HD
ENDROOT
BRANCH   3  13
ATOM     13  C   UNL     1       1.099  -0.588  24.006  0.00  0.00    +0.091 C 
BRANCH  13  15
ATOM     15  C   UNL     1       2.111  -0.059  22.959  0.00  0.00    -0.025 C 
ATOM     19  C   UNL     1       1.631  -0.368  21.529  0.00  0.00    +0.012 C 
ATOM     20  C   UNL     1       2.324   1.458  23.104  0.00  0.00    +0.012 C 
ATOM     21  C   UNL     1       3.459  -0.767  23.189  0.00  0.00    +0.012 C 
ENDBRANCH  13  15
ENDBRANCH   3  13
BRANCH  12  17
ATOM     17  C   UNL     1      -2.742   4.985  25.325  0.00  0.00    +0.029 C 
BRANCH  17  22
ATOM     22  C   UNL     1      -3.290   4.041  26.379  0.00  0.00    +0.097 C 
BRANCH  22  23
ATOM      2  O   UNL     1      -5.553   3.674  25.601  0.00  0.00    -0.276 OA
ATOM      6  N   UNL     1      -4.078   1.883  25.668  0.00  0.00    -0.311 N 
ATOM     23  C   UNL     1      -4.442   3.210  25.843  0.00  0.00    +0.213 C 
ATOM     31  H   UNL     1      -3.138   1.585  25.913  0.00  0.00    +0.149 HD
BRANCH   6  24
ATOM     24  C   UNL     1      -5.000   0.890  25.170  0.00  0.00    +0.141 C 
BRANCH  24  25
ATOM      7  N   UNL     1      -2.712  -2.080  25.664  0.00  0.00    -0.263 NA
ATOM     25  C   UNL     1      -4.332  -0.435  24.945  0.00  0.00    -0.012 A 
ATOM     26  C   UNL     1      -4.674  -1.237  23.861  0.00  0.00    +0.008 A 
ATOM     27  C   UNL     1      -3.354  -0.898  25.809  0.00  0.00    +0.115 A 
ATOM     28  C   UNL     1      -4.038  -2.458  23.678  0.00  0.00    +0.020 A 
ATOM     29  C   UNL     1      -3.072  -2.830  24.599  0.00  0.00    +0.111 A 
ENDBRANCH  24  25
ENDBRANCH   6  24
ENDBRANCH  22  23
ENDBRANCH  17  22
ENDBRANCH  12  17
TORSDOF 7
ENDMDL
MODEL 2
REMARK VINA RESULT:      -1.2      2.066      7.003
REMARK  Name = 45361003
REMARK  11 active torsions:
REMARK  status: ('A' for Active; 'I' for Inactive)
REMARK    1  A    between atoms: N_3  and  C_13
REMARK    2  A    between atoms: N_4  and  C_18
REMARK    3  A    between atoms: N_6  and  C_24
REMARK    4  A    between atoms: C_12  and  C_17
REMARK    5  A    between atoms: C_13  and  C_15
REMARK    6  A    between atoms: C_15  and  C_19
REMARK    7  A    between atoms: C_15  and  C_20
REMARK    8  A    between atoms: C_15  and  C_21
REMARK    9  A    between atoms: C_17  and  C_22
REMARK   10  A    between atoms: C_22  and  C_23
REMARK   11  A    between atoms: C_24  and  C_25
REMARK                            x       y       z     vdW  Elec       q    Type
REMARK                         _______ _______ _______ _____ _____    ______ ____
ROOT
ATOM      1  O   UNL     1      -2.375   2.553  24.239  0.00  0.00    -0.274 OA
ATOM      3  N   UNL     1      -4.828   1.768  25.049  0.00  0.00    -0.290 NA
ATOM      4  N   UNL     1      -2.853  -1.276  24.571  0.00  0.00    -0.296 NA
ATOM      5  N   UNL     1      -1.249   0.961  25.436  0.00  0.00    -0.312 N 
ATOM      8  C   UNL     1      -3.956  -0.494  25.172  0.00  0.00    +0.084 C 
ATOM      9  C   UNL     1      -3.687   0.989  25.564  0.00  0.00    +0.160 C 
ATOM     10  C   UNL     1      -5.197  -0.366  24.269  0.00  0.00    +0.036 C 
ATOM     11  C   UNL     1      -5.927   0.831  24.839  0.00  0.00    +0.087 C 
ATOM     12  C   UNL     1      -1.681  -1.478  25.467  0.00  0.00    +0.074 C 
ATOM     14  C   UNL     1      -2.401   1.584  24.997  0.00  0.00    +0.232 C 
ATOM     16  C   UNL     1      -1.248  -0.230  26.262  0.00  0.00    +0.123 C 
ATOM     18  C   UNL     1      -3.342  -2.571  24.069  0.00  0.00    +0.105 C 
ATOM     30  H   UNL     1      -0.357   1.323  25.113  0.00  0.00    +0.149 HD
ENDROOT
BRANCH   3  13
ATOM     13  C   UNL     1      -5.210   2.876  25.916  0.00  0.00    +0.091 C 
BRANCH  13  15
ATOM     15  C   UNL     1      -4.802   4.270  25.377  0.00  0.00    -0.025 C 
ATOM     19  C   UNL     1      -3.602   4.830  26.161  0.00  0.00    +0.012 C 
ATOM     20  C   UNL     1      -4.445   4.208  23.882  0.00  0.00    +0.012 C 
ATOM     21  C   UNL     1      -5.996   5.226  25.556  0.00  0.00    +0.012 C 
ENDBRANCH  13  15
ENDBRANCH   3  13
BRANCH  12  17
ATOM     17  C   UNL     1      -0.458  -1.959  24.656  0.00  0.00    +0.029 C 
BRANCH  17  22
ATOM     22  C   UNL     1      -0.455  -1.339  23.272  0.00  0.00    +0.097 C 
BRANCH  22  23
ATOM      2  O   UNL     1       0.789   0.665  23.820  0.00  0.00    -0.276 OA
ATOM      6  N   UNL     1       1.526  -0.680  22.078  0.00  0.00    -0.311 N 
ATOM     23  C   UNL     1       0.670  -0.331  23.112  0.00  0.00    +0.213 C 
ATOM     31  H   UNL     1       1.338  -1.516  21.531  0.00  0.00    +0.149 HD
BRANCH   6  24
ATOM     24  C   UNL     1       2.675   0.120  21.726  0.00  0.00    +0.141 C 
BRANCH  24  25
ATOM      7  N   UNL     1       5.028  -1.520  24.190  0.00  0.00    -0.263 NA
ATOM     25  C   UNL     1       3.808  -0.066  22.693  0.00  0.00    -0.012 A 
ATOM     26  C   UNL     1       4.668   0.983  22.999  0.00  0.00    +0.008 A 
ATOM     27  C   UNL     1       4.028  -1.286  23.309  0.00  0.00    +0.115 A 
ATOM     28  C   UNL     1       5.708   0.782  23.900  0.00  0.00    +0.020 A 
ATOM     29  C   UNL     1       5.843  -0.477  24.463  0.00  0.00    +0.111 A 
ENDBRANCH  24  25
ENDBRANCH   6  24
ENDBRANCH  22  23
ENDBRANCH  17  22
ENDBRANCH  12  17
TORSDOF 7
ENDMDL
MODEL 3
REMARK VINA RESULT:      -0.9      1.431      4.292
REMARK  Name = 45361003
REMARK  11 active torsions:
REMARK  status: ('A' for Active; 'I' for Inactive)
REMARK    1  A    between atoms: N_3  and  C_13
REMARK    2  A    between atoms: N_4  and  C_18
REMARK    3  A    between atoms: N_6  and  C_24
REMARK    4  A    between atoms: C_12  and  C_17
REMARK    5  A    between atoms: C_13  and  C_15
REMARK    6  A    between atoms: C_15  and  C_19
REMARK    7  A    between atoms: C_15  and  C_20
REMARK    8  A    between atoms: C_15  and  C_21
REMARK    9  A    between atoms: C_17  and  C_22
REMARK   10  A    between atoms: C_22  and  C_23
REMARK   11  A    between atoms: C_24  and  C_25
REMARK                            x       y       z     vdW  Elec       q    Type
REMARK                         _______ _______ _______ _____ _____    ______ ____
ROOT
ATOM      1  O   UNL     1      -0.827   1.945  23.566  0.00  0.00    -0.274 OA
ATOM      3  N   UNL     1       0.312  -0.490  23.812  0.00  0.00    -0.290 NA
ATOM      4  N   UNL     1      -2.945  -0.680  25.468  0.00  0.00    -0.296 NA
ATOM      5  N   UNL     1      -2.945   1.143  23.232  0.00  0.00    -0.312 N 
ATOM      8  C   UNL     1      -1.780  -1.265  24.769  0.00  0.00    +0.084 C 
ATOM      9  C   UNL     1      -1.146  -0.468  23.590  0.00  0.00    +0.160 C 
ATOM     10  C   UNL     1      -0.563  -1.511  25.680  0.00  0.00    +0.036 C 
ATOM     11  C   UNL     1       0.593  -1.607  24.707  0.00  0.00    +0.087 C 
ATOM     12  C   UNL     1      -4.156  -0.515  24.617  0.00  0.00    +0.074 C 
ATOM     14  C   UNL     1      -1.595   0.987  23.479  0.00  0.00    +0.232 C 
ATOM     16  C   UNL     1      -3.886   0.042  23.205  0.00  0.00    +0.123 C 
ATOM     18  C   UNL     1      -3.273  -1.454  26.678  0.00  0.00    +0.105 C 
ATOM     30  H   UNL     1      -3.305   2.087  23.124  0.00  0.00    +0.149 HD
ENDROOT
BRANCH   3  13
ATOM     13  C   UNL     1       1.083  -0.570  22.577  0.00  0.00    +0.091 C 
BRANCH  13  15
ATOM     15  C   UNL     1       2.517   0.004  22.689  0.00  0.00    -0.025 C 
ATOM     19  C   UNL     1       2.506   1.375  23.388  0.00  0.00    +0.012 C 
ATOM     20  C   UNL     1       3.443  -0.951  23.463  0.00  0.00    +0.012 C 
ATOM     21  C   UNL     1       3.079   0.183  21.265  0.00  0.00    +0.012 C 
ENDBRANCH  13  15
ENDBRANCH   3  13
BRANCH  12  17
ATOM     17  C   UNL     1      -5.173   0.424  25.300  0.00  0.00    +0.029 C 
BRANCH  17  22
ATOM     22  C   UNL     1      -5.620   1.515  24.346  0.00  0.00    +0.097 C 
BRANCH  22  23
ATOM      2  O   UNL     1      -4.435   3.497  23.618  0.00  0.00    -0.276 OA
ATOM      6  N   UNL     1      -4.607   3.055  25.891  0.00  0.00    -0.311 N 
ATOM     23  C   UNL     1      -4.827   2.794  24.546  0.00  0.00    +0.213 C 
ATOM     31  H   UNL     1      -4.953   2.405  26.591  0.00  0.00    +0.149 HD
BRANCH   6  24
ATOM     24  C   UNL     1      -3.873   4.214  26.341  0.00  0.00    +0.141 C 
BRANCH  24  25
ATOM      7  N   UNL     1      -0.302   2.984  26.165  0.00  0.00    -0.263 NA
ATOM     25  C   UNL     1      -2.419   4.136  25.977  0.00  0.00    -0.012 A 
ATOM     26  C   UNL     1      -1.834   5.091  25.152  0.00  0.00    +0.008 A 
ATOM     27  C   UNL     1      -1.618   3.112  26.453  0.00  0.00    +0.115 A 
ATOM     28  C   UNL     1      -0.485   4.994  24.833  0.00  0.00    +0.020 A 
ATOM     29  C   UNL     1       0.231   3.931  25.361  0.00  0.00    +0.111 A 
ENDBRANCH  24  25
ENDBRANCH   6  24
ENDBRANCH  22  23
ENDBRANCH  17  22
ENDBRANCH  12  17
TORSDOF 7
ENDMDL
MODEL 4
REMARK VINA RESULT:      -0.0      1.977      4.348
REMARK  Name = 45361003
REMARK  11 active torsions:
REMARK  status: ('A' for Active; 'I' for Inactive)
REMARK    1  A    between atoms: N_3  and  C_13
REMARK    2  A    between atoms: N_4  and  C_18
REMARK    3  A    between atoms: N_6  and  C_24
REMARK    4  A    between atoms: C_12  and  C_17
REMARK    5  A    between atoms: C_13  and  C_15
REMARK    6  A    between atoms: C_15  and  C_19
REMARK    7  A    between atoms: C_15  and  C_20
REMARK    8  A    between atoms: C_15  and  C_21
REMARK    9  A    between atoms: C_17  and  C_22
REMARK   10  A    between atoms: C_22  and  C_23
REMARK   11  A    between atoms: C_24  and  C_25
REMARK                            x       y       z     vdW  Elec       q    Type
REMARK                         _______ _______ _______ _____ _____    ______ ____
ROOT
ATOM      1  O   UNL     1       0.596  -0.658  22.886  0.00  0.00    -0.274 OA
ATOM      3  N   UNL     1      -0.944  -1.666  24.861  0.00  0.00    -0.290 NA
ATOM      4  N   UNL     1      -0.465   1.885  25.608  0.00  0.00    -0.296 NA
ATOM      5  N   UNL     1      -0.506   1.345  22.774  0.00  0.00    -0.312 N 
ATOM      8  C   UNL     1      -1.199   0.603  25.687  0.00  0.00    +0.084 C 
ATOM      9  C   UNL     1      -1.262  -0.296  24.416  0.00  0.00    +0.160 C 
ATOM     10  C   UNL     1      -0.644  -0.372  26.741  0.00  0.00    +0.036 C 
ATOM     11  C   UNL     1      -1.184  -1.716  26.299  0.00  0.00    +0.087 C 
ATOM     12  C   UNL     1      -1.043   2.868  24.651  0.00  0.00    +0.074 C 
ATOM     14  C   UNL     1      -0.288   0.089  23.304  0.00  0.00    +0.232 C 
ATOM     16  C   UNL     1      -1.485   2.277  23.298  0.00  0.00    +0.123 C 
ATOM     18  C   UNL     1      -0.325   2.491  26.942  0.00  0.00    +0.105 C 
ATOM     30  H   UNL     1       0.094   1.653  22.014  0.00  0.00    +0.149 HD
ENDROOT
BRANCH   3  13
ATOM     13  C   UNL     1      -1.689  -2.693  24.145  0.00  0.00    +0.091 C 
BRANCH  13  15
ATOM     15  C   UNL     1      -3.228  -2.564  24.274  0.00  0.00    -0.025 C 
ATOM     19  C   UNL     1      -3.755  -1.405  23.410  0.00  0.00    +0.012 C 
ATOM     20  C   UNL     1      -3.934  -3.867  23.859  0.00  0.00    +0.012 C 
ATOM     21  C   UNL     1      -3.567  -2.272  25.748  0.00  0.00    +0.012 C 
ENDBRANCH  13  15
ENDBRANCH   3  13
BRANCH  12  17
ATOM     17  C   UNL     1      -0.030   3.995  24.357  0.00  0.00    +0.029 C 
BRANCH  17  22
ATOM     22  C   UNL     1      -0.605   5.347  24.738  0.00  0.00    +0.097 C 
BRANCH  22  23
ATOM      2  O   UNL     1      -2.475   5.281  26.274  0.00  0.00    -0.276 OA
ATOM      6  N   UNL     1      -2.880   5.107  23.995  0.00  0.00    -0.311 N 
ATOM     23  C   UNL     1      -2.072   5.245  25.115  0.00  0.00    +0.213 C 
ATOM     31  H   UNL     1      -2.455   5.069  23.073  0.00  0.00    +0.149 HD
BRANCH   6  24
ATOM     24  C   UNL     1      -4.315   4.989  24.090  0.00  0.00    +0.141 C 
BRANCH  24  25
ATOM      7  N   UNL     1      -5.879   2.452  26.418  0.00  0.00    -0.263 NA
ATOM     25  C   UNL     1      -4.734   3.670  24.671  0.00  0.00    -0.012 A 
ATOM     26  C   UNL     1      -4.392   2.473  24.051  0.00  0.00    +0.008 A 
ATOM     27  C   UNL     1      -5.471   3.606  25.841  0.00  0.00    +0.115 A 
ATOM     28  C   UNL     1      -4.792   1.266  24.613  0.00  0.00    +0.020 A 
ATOM     29  C   UNL     1      -5.527   1.310  25.787  0.00  0.00    +0.111 A 
ENDBRANCH  24  25
ENDBRANCH   6  24
ENDBRANCH  22  23
ENDBRANCH  17  22
ENDBRANCH  12  17
TORSDOF 7
ENDMDL
MODEL 5
REMARK VINA RESULT:       0.9      1.977      6.207
REMARK  Name = 45361003
REMARK  11 active torsions:
REMARK  status: ('A' for Active; 'I' for Inactive)
REMARK    1  A    between atoms: N_3  and  C_13
REMARK    2  A    between atoms: N_4  and  C_18
REMARK    3  A    between atoms: N_6  and  C_24
REMARK    4  A    between atoms: C_12  and  C_17
REMARK    5  A    between atoms: C_13  and  C_15
REMARK    6  A    between atoms: C_15  and  C_19
REMARK    7  A    between atoms: C_15  and  C_20
REMARK    8  A    between atoms: C_15  and  C_21
REMARK    9  A    between atoms: C_17  and  C_22
REMARK   10  A    between atoms: C_22  and  C_23
REMARK   11  A    between atoms: C_24  and  C_25
REMARK                            x       y       z     vdW  Elec       q    Type
REMARK                         _______ _______ _______ _____ _____    ______ ____
ROOT
ATOM      1  O   UNL     1      -0.434   1.711  24.595  0.00  0.00    -0.274 OA
ATOM      3  N   UNL     1      -2.862   2.887  24.475  0.00  0.00    -0.290 NA
ATOM      4  N   UNL     1      -3.441  -0.727  24.489  0.00  0.00    -0.296 NA
ATOM      5  N   UNL     1      -1.097   0.025  25.993  0.00  0.00    -0.312 N 
ATOM      8  C   UNL     1      -3.836   0.678  24.733  0.00  0.00    +0.084 C 
ATOM      9  C   UNL     1      -2.766   1.663  25.292  0.00  0.00    +0.160 C 
ATOM     10  C   UNL     1      -4.325   1.418  23.475  0.00  0.00    +0.036 C 
ATOM     11  C   UNL     1      -4.178   2.879  23.844  0.00  0.00    +0.087 C 
ATOM     12  C   UNL     1      -3.046  -1.478  25.712  0.00  0.00    +0.074 C 
ATOM     14  C   UNL     1      -1.327   1.155  25.233  0.00  0.00    +0.232 C 
ATOM     16  C   UNL     1      -2.142  -0.699  26.689  0.00  0.00    +0.123 C 
ATOM     18  C   UNL     1      -4.501  -1.450  23.765  0.00  0.00    +0.105 C 
ATOM     30  H   UNL     1      -0.154  -0.352  26.015  0.00  0.00    +0.149 HD
ENDROOT
BRANCH   3  13
ATOM     13  C   UNL     1      -2.625   4.108  25.234  0.00  0.00    +0.091 C 
BRANCH  13  15
ATOM     15  C   UNL     1      -1.274   4.798  24.917  0.00  0.00    -0.025 C 
ATOM     19  C   UNL     1      -0.188   4.360  25.915  0.00  0.00    +0.012 C 
ATOM     20  C   UNL     1      -0.807   4.478  23.486  0.00  0.00    +0.012 C 
ATOM     21  C   UNL     1      -1.469   6.321  25.039  0.00  0.00    +0.012 C 
ENDBRANCH  13  15
ENDBRANCH   3  13
BRANCH  12  17
ATOM     17  C   UNL     1      -2.306  -2.778  25.332  0.00  0.00    +0.029 C 
BRANCH  17  22
ATOM     22  C   UNL     1      -0.807  -2.549  25.286  0.00  0.00    +0.097 C 
BRANCH  22  23
ATOM      2  O   UNL     1      -0.920  -2.239  22.888  0.00  0.00    -0.276 OA
ATOM      6  N   UNL     1       0.715  -1.118  24.095  0.00  0.00    -0.311 N 
ATOM     23  C   UNL     1      -0.370  -1.971  23.952  0.00  0.00    +0.213 C 
ATOM     31  H   UNL     1       1.118  -0.970  25.016  0.00  0.00    +0.149 HD
BRANCH   6  24
ATOM     24  C   UNL     1       1.318  -0.443  22.970  0.00  0.00    +0.141 C 
BRANCH  24  25
ATOM      7  N   UNL     1       4.916  -1.221  23.836  0.00  0.00    -0.263 NA
ATOM     25  C   UNL     1       2.800  -0.280  23.142  0.00  0.00    -0.012 A 
ATOM     26  C   UNL     1       3.436   0.907  22.791  0.00  0.00    +0.008 A 
ATOM     27  C   UNL     1       3.578  -1.304  23.655  0.00  0.00    +0.115 A 
ATOM     28  C   UNL     1       4.810   1.030  22.963  0.00  0.00    +0.020 A 
ATOM     29  C   UNL     1       5.498  -0.054  23.485  0.00  0.00    +0.111 A 
ENDBRANCH  24  25
ENDBRANCH   6  24
ENDBRANCH  22  23
ENDBRANCH  17  22
ENDBRANCH  12  17
TORSDOF 7
ENDMDL
MODEL 6
REMARK VINA RESULT:       1.3      1.709      5.032
REMARK  Name = 45361003
REMARK  11 active torsions:
REMARK  status: ('A' for Active; 'I' for Inactive)
REMARK    1  A    between atoms: N_3  and  C_13
REMARK    2  A    between atoms: N_4  and  C_18
REMARK    3  A    between atoms: N_6  and  C_24
REMARK    4  A    between atoms: C_12  and  C_17
REMARK    5  A    between atoms: C_13  and  C_15
REMARK    6  A    between atoms: C_15  and  C_19
REMARK    7  A    between atoms: C_15  and  C_20
REMARK    8  A    between atoms: C_15  and  C_21
REMARK    9  A    between atoms: C_17  and  C_22
REMARK   10  A    between atoms: C_22  and  C_23
REMARK   11  A    between atoms: C_24  and  C_25
REMARK                            x       y       z     vdW  Elec       q    Type
REMARK                         _______ _______ _______ _____ _____    ______ ____
ROOT
ATOM      1  O   UNL     1      -1.925   0.308  25.355  0.00  0.00    -0.274 OA
ATOM      3  N   UNL     1      -4.472  -0.248  24.650  0.00  0.00    -0.290 NA
ATOM      4  N   UNL     1      -4.287   3.371  25.162  0.00  0.00    -0.296 NA
ATOM      5  N   UNL     1      -1.812   2.265  24.174  0.00  0.00    -0.312 N 
ATOM      8  C   UNL     1      -4.869   2.146  24.572  0.00  0.00    +0.084 C 
ATOM      9  C   UNL     1      -3.905   1.008  24.123  0.00  0.00    +0.160 C 
ATOM     10  C   UNL     1      -5.833   1.397  25.510  0.00  0.00    +0.036 C 
ATOM     11  C   UNL     1      -5.883   0.001  24.924  0.00  0.00    +0.087 C 
ATOM     12  C   UNL     1      -3.419   4.149  24.236  0.00  0.00    +0.074 C 
ATOM     14  C   UNL     1      -2.470   1.140  24.630  0.00  0.00    +0.232 C 
ATOM     16  C   UNL     1      -2.450   3.302  23.387  0.00  0.00    +0.123 C 
ATOM     18  C   UNL     1      -5.341   4.235  25.721  0.00  0.00    +0.105 C 
ATOM     30  H   UNL     1      -0.846   2.401  24.456  0.00  0.00    +0.149 HD
ENDROOT
BRANCH   3  13
ATOM     13  C   UNL     1      -4.279  -1.386  23.760  0.00  0.00    +0.091 C 
BRANCH  13  15
ATOM     15  C   UNL     1      -3.386  -2.507  24.351  0.00  0.00    -0.025 C 
ATOM     19  C   UNL     1      -1.946  -2.396  23.821  0.00  0.00    +0.012 C 
ATOM     20  C   UNL     1      -3.366  -2.451  25.888  0.00  0.00    +0.012 C 
ATOM     21  C   UNL     1      -3.967  -3.866  23.918  0.00  0.00    +0.012 C 
ENDBRANCH  13  15
ENDBRANCH   3  13
BRANCH  12  17
ATOM     17  C   UNL     1      -2.573   5.174  25.022  0.00  0.00    +0.029 C 
BRANCH  17  22
ATOM     22  C   UNL     1      -1.100   5.016  24.695  0.00  0.00    +0.097 C 
BRANCH  22  23
ATOM      2  O   UNL     1      -0.791   3.439  26.505  0.00  0.00    -0.276 OA
ATOM      6  N   UNL     1       0.386   3.132  24.528  0.00  0.00    -0.311 N 
ATOM     23  C   UNL     1      -0.505   3.789  25.363  0.00  0.00    +0.213 C 
ATOM     31  H   UNL     1       0.575   3.507  23.602  0.00  0.00    +0.149 HD
BRANCH   6  24
ATOM     24  C   UNL     1       1.085   1.936  24.934  0.00  0.00    +0.141 C 
BRANCH  24  25
ATOM      7  N   UNL     1       1.106  -0.446  21.998  0.00  0.00    -0.263 NA
ATOM     25  C   UNL     1       1.575   1.144  23.758  0.00  0.00    -0.012 A 
ATOM     26  C   UNL     1       2.896   1.237  23.330  0.00  0.00    +0.008 A 
ATOM     27  C   UNL     1       0.728   0.296  23.064  0.00  0.00    +0.115 A 
ATOM     28  C   UNL     1       3.322   0.490  22.238  0.00  0.00    +0.020 A 
ATOM     29  C   UNL     1       2.395  -0.329  21.612  0.00  0.00    +0.111 A 
ENDBRANCH  24  25
ENDBRANCH   6  24
ENDBRANCH  22  23
ENDBRANCH  17  22
ENDBRANCH  12  17
TORSDOF 7
ENDMDL
