MODEL 1
REMARK VINA RESULT:      -3.4      0.000      0.000
REMARK  Name = 56774196
REMARK  9 active torsions:
REMARK  status: ('A' for Active; 'I' for Inactive)
REMARK    1  A    between atoms: O_3  and  C_26
REMARK    2  A    between atoms: O_3  and  C_27
REMARK    3  A    between atoms: N_4  and  C_8
REMARK    4  A    between atoms: N_4  and  C_13
REMARK    5  A    between atoms: C_6  and  C_11
REMARK    6  A    between atoms: C_6  and  C_12
REMARK    7  A    between atoms: C_7  and  C_10
REMARK    8  A    between atoms: C_10  and  C_14
REMARK    9  A    between atoms: C_20  and  C_21
REMARK                            x       y       z     vdW  Elec       q    Type
REMARK                         _______ _______ _______ _____ _____    ______ ____
ROOT
ATOM      6  C   UNL     1      11.677  -9.530  31.513  0.00  0.00    -0.016 C 
ATOM      7  C   UNL     1      12.340  -8.168  31.220  0.00  0.00    +0.004 C 
ATOM      8  C   UNL     1      10.348  -8.762  31.667  0.00  0.00    +0.060 C 
ATOM      9  C   UNL     1      11.194  -7.522  32.025  0.00  0.00    +0.023 C 
ATOM     11  C   UNL     1      12.230 -10.229  32.736  0.00  0.00    +0.013 C 
ATOM     12  C   UNL     1      11.642 -10.507  30.351  0.00  0.00    +0.013 C 
ENDROOT
BRANCH   8   4
ATOM      4  N   UNL     1       9.617  -9.200  32.860  0.00  0.00    -0.310 NA
ATOM     28  H   UNL     1       9.860  -8.694  33.711  0.00  0.00    +0.122 HD
BRANCH   4  13
ATOM      1  O   UNL     1       6.022  -7.870  31.145  0.00  0.00    -0.380 OA
ATOM     13  C   UNL     1       8.181  -9.080  32.616  0.00  0.00    +0.058 C 
ATOM     15  C   UNL     1       7.828  -9.497  31.185  0.00  0.00    +0.047 C 
ATOM     16  C   UNL     1       7.716  -7.643  32.873  0.00  0.00    +0.047 C 
ATOM     17  C   UNL     1       6.351  -9.240  30.908  0.00  0.00    +0.161 C 
ATOM     18  C   UNL     1       6.245  -7.489  32.502  0.00  0.00    +0.161 C 
ENDBRANCH   4  13
ENDBRANCH   8   4
BRANCH   7  10
ATOM     10  C   UNL     1      13.720  -7.936  31.794  0.00  0.00    +0.063 C 
BRANCH  10  14
ATOM      2  O   UNL     1      16.562  -6.997  29.777  0.00  0.00    -0.354 OA
ATOM      5  N   UNL     1      15.974  -7.349  30.986  0.00  0.00    -0.083 NA
ATOM     14  C   UNL     1      14.682  -7.536  30.701  0.00  0.00    +0.084 A 
ATOM     19  C   UNL     1      14.399  -7.319  29.342  0.00  0.00    +0.076 A 
ATOM     20  C   UNL     1      15.614  -6.983  28.806  0.00  0.00    +0.167 A 
BRANCH  20  21
ATOM     21  C   UNL     1      16.074  -6.636  27.492  0.00  0.00    +0.020 A 
ATOM     22  C   UNL     1      16.730  -5.423  27.281  0.00  0.00    +0.015 A 
ATOM     23  C   UNL     1      15.864  -7.511  26.426  0.00  0.00    +0.015 A 
ATOM     24  C   UNL     1      17.176  -5.085  26.003  0.00  0.00    +0.046 A 
ATOM     25  C   UNL     1      16.311  -7.173  25.148  0.00  0.00    +0.046 A 
ATOM     26  C   UNL     1      16.966  -5.960  24.938  0.00  0.00    +0.120 A 
BRANCH  26   3
ATOM      3  O   UNL     1      17.405  -5.632  23.691  0.00  0.00    -0.495 OA
ATOM     27  C   UNL     1      17.000  -4.366  23.172  0.00  0.00    +0.277 C 
ENDBRANCH  26   3
ENDBRANCH  20  21
ENDBRANCH  10  14
ENDBRANCH   7  10
TORSDOF 6
ENDMDL
MODEL 2
REMARK VINA RESULT:      -1.1      2.801      4.960
REMARK  Name = 56774196
REMARK  9 active torsions:
REMARK  status: ('A' for Active; 'I' for Inactive)
REMARK    1  A    between atoms: O_3  and  C_26
REMARK    2  A    between atoms: O_3  and  C_27
REMARK    3  A    between atoms: N_4  and  C_8
REMARK    4  A    between atoms: N_4  and  C_13
REMARK    5  A    between atoms: C_6  and  C_11
REMARK    6  A    between atoms: C_6  and  C_12
REMARK    7  A    between atoms: C_7  and  C_10
REMARK    8  A    between atoms: C_10  and  C_14
REMARK    9  A    between atoms: C_20  and  C_21
REMARK                            x       y       z     vdW  Elec       q    Type
REMARK                         _______ _______ _______ _____ _____    ______ ____
ROOT
ATOM      6  C   UNL     1      15.219  -9.849  28.465  0.00  0.00    -0.016 C 
ATOM      7  C   UNL     1      15.599  -8.537  27.747  0.00  0.00    +0.004 C 
ATOM      8  C   UNL     1      14.449  -8.979  29.481  0.00  0.00    +0.060 C 
ATOM      9  C   UNL     1      15.404  -7.828  29.102  0.00  0.00    +0.023 C 
ATOM     11  C   UNL     1      16.409 -10.635  28.972  0.00  0.00    +0.013 C 
ATOM     12  C   UNL     1      14.298 -10.777  27.692  0.00  0.00    +0.013 C 
ENDROOT
BRANCH   8   4
ATOM      4  N   UNL     1      14.730  -9.398  30.857  0.00  0.00    -0.310 NA
ATOM     28  H   UNL     1      15.544  -8.949  31.276  0.00  0.00    +0.122 HD
BRANCH   4  13
ATOM      1  O   UNL     1      10.692  -8.929  31.909  0.00  0.00    -0.380 OA
ATOM     13  C   UNL     1      13.555  -9.143  31.687  0.00  0.00    +0.058 C 
ATOM     15  C   UNL     1      12.641 -10.372  31.740  0.00  0.00    +0.047 C 
ATOM     16  C   UNL     1      12.777  -7.936  31.155  0.00  0.00    +0.047 C 
ATOM     17  C   UNL     1      11.359 -10.046  32.498  0.00  0.00    +0.161 C 
ATOM     18  C   UNL     1      11.488  -7.745  31.944  0.00  0.00    +0.161 C 
ENDBRANCH   4  13
ENDBRANCH   8   4
BRANCH   7  10
ATOM     10  C   UNL     1      16.998  -8.440  27.182  0.00  0.00    +0.063 C 
BRANCH  10  14
ATOM      2  O   UNL     1      17.380  -6.410  24.223  0.00  0.00    -0.354 OA
ATOM      5  N   UNL     1      17.405  -7.629  24.890  0.00  0.00    -0.083 NA
ATOM     14  C   UNL     1      17.073  -7.340  26.151  0.00  0.00    +0.084 A 
ATOM     19  C   UNL     1      16.828  -5.969  26.337  0.00  0.00    +0.076 A 
ATOM     20  C   UNL     1      17.034  -5.430  25.095  0.00  0.00    +0.167 A 
BRANCH  20  21
ATOM     21  C   UNL     1      16.964  -4.106  24.547  0.00  0.00    +0.020 A 
ATOM     22  C   UNL     1      17.110  -2.997  25.380  0.00  0.00    +0.015 A 
ATOM     23  C   UNL     1      16.749  -3.928  23.180  0.00  0.00    +0.015 A 
ATOM     24  C   UNL     1      17.041  -1.710  24.848  0.00  0.00    +0.046 A 
ATOM     25  C   UNL     1      16.681  -2.640  22.647  0.00  0.00    +0.046 A 
ATOM     26  C   UNL     1      16.826  -1.532  23.481  0.00  0.00    +0.120 A 
BRANCH  26   3
ATOM      3  O   UNL     1      16.762  -0.276  22.960  0.00  0.00    -0.495 OA
ATOM     27  C   UNL     1      16.883   0.813  23.874  0.00  0.00    +0.277 C 
ENDBRANCH  26   3
ENDBRANCH  20  21
ENDBRANCH  10  14
ENDBRANCH   7  10
TORSDOF 6
ENDMDL
MODEL 3
REMARK VINA RESULT:       0.3     14.799     18.077
REMARK  Name = 56774196
REMARK  9 active torsions:
REMARK  status: ('A' for Active; 'I' for Inactive)
REMARK    1  A    between atoms: O_3  and  C_26
REMARK    2  A    between atoms: O_3  and  C_27
REMARK    3  A    between atoms: N_4  and  C_8
REMARK    4  A    between atoms: N_4  and  C_13
REMARK    5  A    between atoms: C_6  and  C_11
REMARK    6  A    between atoms: C_6  and  C_12
REMARK    7  A    between atoms: C_7  and  C_10
REMARK    8  A    between atoms: C_10  and  C_14
REMARK    9  A    between atoms: C_20  and  C_21
REMARK                            x       y       z     vdW  Elec       q    Type
REMARK                         _______ _______ _______ _____ _____    ______ ____
ROOT
ATOM      6  C   UNL     1      -5.374   1.759  25.054  0.00  0.00    -0.016 C 
ATOM      7  C   UNL     1      -4.463   1.064  24.021  0.00  0.00    +0.004 C 
ATOM      8  C   UNL     1      -4.518   3.025  24.842  0.00  0.00    +0.060 C 
ATOM      9  C   UNL     1      -3.374   2.085  24.408  0.00  0.00    +0.023 C 
ATOM     11  C   UNL     1      -5.349   1.115  26.423  0.00  0.00    +0.013 C 
ATOM     12  C   UNL     1      -6.817   1.965  24.623  0.00  0.00    +0.013 C 
ENDROOT
BRANCH   8   4
ATOM      4  N   UNL     1      -4.164   3.646  26.122  0.00  0.00    -0.310 NA
ATOM     28  H   UNL     1      -4.324   3.053  26.936  0.00  0.00    +0.122 HD
BRANCH   4  13
ATOM      1  O   UNL     1      -0.222   4.041  24.732  0.00  0.00    -0.380 OA
ATOM     13  C   UNL     1      -2.762   4.055  26.087  0.00  0.00    +0.058 C 
ATOM     15  C   UNL     1      -2.475   4.941  24.871  0.00  0.00    +0.047 C 
ATOM     16  C   UNL     1      -1.848   2.825  26.066  0.00  0.00    +0.047 C 
ATOM     17  C   UNL     1      -0.985   5.247  24.778  0.00  0.00    +0.161 C 
ATOM     18  C   UNL     1      -0.393   3.249  25.906  0.00  0.00    +0.161 C 
ENDBRANCH   4  13
ENDBRANCH   8   4
BRANCH   7  10
ATOM     10  C   UNL     1      -4.095  -0.379  24.287  0.00  0.00    +0.063 C 
BRANCH  10  14
ATOM      2  O   UNL     1      -0.667  -1.371  24.823  0.00  0.00    -0.354 OA
ATOM      5  N   UNL     1      -2.033  -1.494  25.048  0.00  0.00    -0.083 NA
ATOM     14  C   UNL     1      -2.595  -0.545  24.295  0.00  0.00    +0.084 A 
ATOM     19  C   UNL     1      -1.643   0.200  23.578  0.00  0.00    +0.076 A 
ATOM     20  C   UNL     1      -0.447  -0.359  23.945  0.00  0.00    +0.167 A 
BRANCH  20  21
ATOM     21  C   UNL     1       0.925  -0.112  23.612  0.00  0.00    +0.020 A 
ATOM     22  C   UNL     1       1.371   1.195  23.417  0.00  0.00    +0.015 A 
ATOM     23  C   UNL     1       1.814  -1.179  23.481  0.00  0.00    +0.015 A 
ATOM     24  C   UNL     1       2.706   1.437  23.092  0.00  0.00    +0.046 A 
ATOM     25  C   UNL     1       3.150  -0.938  23.157  0.00  0.00    +0.046 A 
ATOM     26  C   UNL     1       3.595   0.369  22.962  0.00  0.00    +0.120 A 
BRANCH  26   3
ATOM      3  O   UNL     1       4.898   0.604  22.648  0.00  0.00    -0.495 OA
ATOM     27  C   UNL     1       5.886   0.037  23.508  0.00  0.00    +0.277 C 
ENDBRANCH  26   3
ENDBRANCH  20  21
ENDBRANCH  10  14
ENDBRANCH   7  10
TORSDOF 6
ENDMDL
MODEL 4
REMARK VINA RESULT:       0.5      1.646      2.339
REMARK  Name = 56774196
REMARK  9 active torsions:
REMARK  status: ('A' for Active; 'I' for Inactive)
REMARK    1  A    between atoms: O_3  and  C_26
REMARK    2  A    between atoms: O_3  and  C_27
REMARK    3  A    between atoms: N_4  and  C_8
REMARK    4  A    between atoms: N_4  and  C_13
REMARK    5  A    between atoms: C_6  and  C_11
REMARK    6  A    between atoms: C_6  and  C_12
REMARK    7  A    between atoms: C_7  and  C_10
REMARK    8  A    between atoms: C_10  and  C_14
REMARK    9  A    between atoms: C_20  and  C_21
REMARK                            x       y       z     vdW  Elec       q    Type
REMARK                         _______ _______ _______ _____ _____    ______ ____
ROOT
ATOM      6  C   UNL     1      13.361  -9.126  30.806  0.00  0.00    -0.016 C 
ATOM      7  C   UNL     1      14.383  -8.002  31.076  0.00  0.00    +0.004 C 
ATOM      8  C   UNL     1      12.541  -8.558  31.983  0.00  0.00    +0.060 C 
ATOM      9  C   UNL     1      13.866  -7.985  32.529  0.00  0.00    +0.023 C 
ATOM     11  C   UNL     1      13.932 -10.520  30.955  0.00  0.00    +0.013 C 
ATOM     12  C   UNL     1      12.613  -9.030  29.487  0.00  0.00    +0.013 C 
ENDROOT
BRANCH   8   4
ATOM      4  N   UNL     1      12.081  -9.626  32.874  0.00  0.00    -0.310 NA
ATOM     28  H   UNL     1      12.345  -9.503  33.851  0.00  0.00    +0.122 HD
BRANCH   4  13
ATOM      1  O   UNL     1       8.229  -9.423  31.216  0.00  0.00    -0.380 OA
ATOM     13  C   UNL     1      10.629  -9.745  32.775  0.00  0.00    +0.058 C 
ATOM     15  C   UNL     1      10.229 -10.728  31.670  0.00  0.00    +0.047 C 
ATOM     16  C   UNL     1       9.999  -8.374  32.508  0.00  0.00    +0.047 C 
ATOM     17  C   UNL     1       8.715 -10.738  31.491  0.00  0.00    +0.161 C 
ATOM     18  C   UNL     1       8.498  -8.514  32.282  0.00  0.00    +0.161 C 
ENDBRANCH   4  13
ENDBRANCH   8   4
BRANCH   7  10
ATOM     10  C   UNL     1      15.847  -8.352  30.934  0.00  0.00    +0.063 C 
BRANCH  10  14
ATOM      2  O   UNL     1      17.405  -8.206  27.682  0.00  0.00    -0.354 OA
ATOM      5  N   UNL     1      17.148  -8.832  28.896  0.00  0.00    -0.083 NA
ATOM     14  C   UNL     1      16.341  -7.995  29.553  0.00  0.00    +0.084 A 
ATOM     19  C   UNL     1      16.055  -6.836  28.810  0.00  0.00    +0.076 A 
ATOM     20  C   UNL     1      16.748  -7.019  27.642  0.00  0.00    +0.167 A 
BRANCH  20  21
ATOM     21  C   UNL     1      16.917  -6.254  26.441  0.00  0.00    +0.020 A 
ATOM     22  C   UNL     1      17.057  -6.903  25.214  0.00  0.00    +0.015 A 
ATOM     23  C   UNL     1      16.943  -4.861  26.500  0.00  0.00    +0.015 A 
ATOM     24  C   UNL     1      17.222  -6.160  24.046  0.00  0.00    +0.046 A 
ATOM     25  C   UNL     1      17.107  -4.116  25.331  0.00  0.00    +0.046 A 
ATOM     26  C   UNL     1      17.247  -4.766  24.105  0.00  0.00    +0.120 A 
BRANCH  26   3
ATOM      3  O   UNL     1      17.405  -4.040  22.965  0.00  0.00    -0.495 OA
ATOM     27  C   UNL     1      16.651  -2.833  22.853  0.00  0.00    +0.277 C 
ENDBRANCH  26   3
ENDBRANCH  20  21
ENDBRANCH  10  14
ENDBRANCH   7  10
TORSDOF 6
ENDMDL
