MODEL 1
REMARK VINA RESULT:      -5.0      0.000      0.000
REMARK  Name = 26744558
REMARK  6 active torsions:
REMARK  status: ('A' for Active; 'I' for Inactive)
REMARK    1  A    between atoms: O_3  and  C_10
REMARK    2  A    between atoms: N_5  and  C_12
REMARK    3  A    between atoms: C_8  and  C_13
REMARK    4  A    between atoms: C_12  and  C_14
REMARK    5  A    between atoms: C_15  and  C_18
REMARK    6  A    between atoms: C_18  and  C_21
REMARK                            x       y       z     vdW  Elec       q    Type
REMARK                         _______ _______ _______ _____ _____    ______ ____
ROOT
ATOM      5  N   UNL     1       0.543  -0.321  23.644  0.00  0.00    -0.285 NA
ATOM      8  C   UNL     1       1.288   0.808  24.238  0.00  0.00    +0.149 C 
ATOM      9  C   UNL     1       2.234   1.286  23.120  0.00  0.00    +0.061 C 
ATOM     10  C   UNL     1       1.981   0.338  21.956  0.00  0.00    +0.130 C 
ATOM     11  C   UNL     1       1.415  -0.901  22.625  0.00  0.00    +0.116 C 
ENDROOT
BRANCH   8  13
ATOM      4  O   UNL     1       0.674   2.429  25.961  0.00  0.00    -0.336 OA
ATOM      6  N   UNL     1      -0.678   2.437  24.175  0.00  0.00    -0.194 NA
ATOM      7  N   UNL     1      -0.294   3.410  26.210  0.00  0.00    -0.061 NA
ATOM     13  C   UNL     1       0.376   1.907  24.743  0.00  0.00    +0.245 A 
ATOM     15  C   UNL     1      -1.054   3.354  25.113  0.00  0.00    +0.176 A 
BRANCH  15  18
ATOM     18  C   UNL     1      -2.221   4.224  24.930  0.00  0.00    +0.116 C 
BRANCH  18  21
ATOM      1 CL   UNL     1      -2.984   2.557  22.433  0.00  0.00    -0.083 Cl
ATOM      2  F   UNL     1      -7.220   1.584  25.015  0.00  0.00    -0.205 F 
ATOM     21  C   UNL     1      -3.564   3.501  24.923  0.00  0.00    -0.021 A 
ATOM     23  C   UNL     1      -3.976   2.733  23.834  0.00  0.00    +0.047 A 
ATOM     24  C   UNL     1      -4.387   3.621  26.043  0.00  0.00    +0.008 A 
ATOM     25  C   UNL     1      -5.211   2.085  23.865  0.00  0.00    +0.058 A 
ATOM     26  C   UNL     1      -5.622   2.974  26.074  0.00  0.00    +0.039 A 
ATOM     27  C   UNL     1      -6.035   2.205  24.985  0.00  0.00    +0.125 A 
ENDBRANCH  18  21
ENDBRANCH  15  18
ENDBRANCH   8  13
BRANCH  10   3
ATOM      3  O   UNL     1       3.183   0.058  21.266  0.00  0.00    -0.390 OA
ATOM     28  H   UNL     1       3.461   0.877  20.820  0.00  0.00    +0.210 HD
ENDBRANCH  10   3
BRANCH   5  12
ATOM     12  C   UNL     1       0.117  -1.308  24.628  0.00  0.00    +0.120 C 
BRANCH  12  14
ATOM     14  C   UNL     1      -1.384  -1.416  24.700  0.00  0.00    -0.033 A 
ATOM     16  C   UNL     1      -2.027  -2.535  24.171  0.00  0.00    +0.005 A 
ATOM     17  C   UNL     1      -2.129  -0.397  25.294  0.00  0.00    +0.005 A 
ATOM     19  C   UNL     1      -3.418  -2.634  24.237  0.00  0.00    +0.000 A 
ATOM     20  C   UNL     1      -3.518  -0.498  25.360  0.00  0.00    +0.000 A 
ATOM     22  C   UNL     1      -4.163  -1.616  24.831  0.00  0.00    +0.000 A 
ENDBRANCH  12  14
ENDBRANCH   5  12
TORSDOF 6
ENDMDL
MODEL 2
REMARK VINA RESULT:      -4.3      1.050      1.677
REMARK  Name = 26744558
REMARK  6 active torsions:
REMARK  status: ('A' for Active; 'I' for Inactive)
REMARK    1  A    between atoms: O_3  and  C_10
REMARK    2  A    between atoms: N_5  and  C_12
REMARK    3  A    between atoms: C_8  and  C_13
REMARK    4  A    between atoms: C_12  and  C_14
REMARK    5  A    between atoms: C_15  and  C_18
REMARK    6  A    between atoms: C_18  and  C_21
REMARK                            x       y       z     vdW  Elec       q    Type
REMARK                         _______ _______ _______ _____ _____    ______ ____
ROOT
ATOM      5  N   UNL     1       0.550  -0.307  23.609  0.00  0.00    -0.285 NA
ATOM      8  C   UNL     1       1.316   0.813  24.196  0.00  0.00    +0.149 C 
ATOM      9  C   UNL     1       2.273   1.265  23.077  0.00  0.00    +0.061 C 
ATOM     10  C   UNL     1       2.004   0.313  21.919  0.00  0.00    +0.130 C 
ATOM     11  C   UNL     1       1.413  -0.910  22.594  0.00  0.00    +0.116 C 
ENDROOT
BRANCH   8  13
ATOM      4  O   UNL     1       0.738   2.466  25.900  0.00  0.00    -0.336 OA
ATOM      6  N   UNL     1      -0.625   2.470  24.124  0.00  0.00    -0.194 NA
ATOM      7  N   UNL     1      -0.214   3.464  26.142  0.00  0.00    -0.061 NA
ATOM     13  C   UNL     1       0.424   1.931  24.692  0.00  0.00    +0.245 A 
ATOM     15  C   UNL     1      -0.982   3.405  25.051  0.00  0.00    +0.176 A 
BRANCH  15  18
ATOM     18  C   UNL     1      -2.136   4.291  24.864  0.00  0.00    +0.116 C 
BRANCH  18  21
ATOM      1 CL   UNL     1      -3.699   4.185  27.536  0.00  0.00    -0.083 Cl
ATOM      2  F   UNL     1      -7.147   1.671  24.826  0.00  0.00    -0.205 F 
ATOM     21  C   UNL     1      -3.491   3.590  24.885  0.00  0.00    -0.021 A 
ATOM     23  C   UNL     1      -4.251   3.502  26.051  0.00  0.00    +0.047 A 
ATOM     24  C   UNL     1      -3.966   3.030  23.698  0.00  0.00    +0.008 A 
ATOM     25  C   UNL     1      -5.486   2.854  26.032  0.00  0.00    +0.058 A 
ATOM     26  C   UNL     1      -5.201   2.382  23.679  0.00  0.00    +0.039 A 
ATOM     27  C   UNL     1      -5.962   2.294  24.845  0.00  0.00    +0.125 A 
ENDBRANCH  18  21
ENDBRANCH  15  18
ENDBRANCH   8  13
BRANCH  10   3
ATOM      3  O   UNL     1       3.202   0.006  21.233  0.00  0.00    -0.390 OA
ATOM     28  H   UNL     1       2.964  -0.223  20.318  0.00  0.00    +0.210 HD
ENDBRANCH  10   3
BRANCH   5  12
ATOM     12  C   UNL     1       0.103  -1.279  24.598  0.00  0.00    +0.120 C 
BRANCH  12  14
ATOM     14  C   UNL     1      -1.399  -1.366  24.659  0.00  0.00    -0.033 A 
ATOM     16  C   UNL     1      -2.139  -0.294  25.158  0.00  0.00    +0.005 A 
ATOM     17  C   UNL     1      -2.049  -2.517  24.216  0.00  0.00    +0.005 A 
ATOM     19  C   UNL     1      -3.531  -0.375  25.214  0.00  0.00    +0.000 A 
ATOM     20  C   UNL     1      -3.441  -2.597  24.273  0.00  0.00    +0.000 A 
ATOM     22  C   UNL     1      -4.182  -1.526  24.772  0.00  0.00    +0.000 A 
ENDBRANCH  12  14
ENDBRANCH   5  12
TORSDOF 6
ENDMDL
MODEL 3
REMARK VINA RESULT:      -4.2      1.405      1.725
REMARK  Name = 26744558
REMARK  6 active torsions:
REMARK  status: ('A' for Active; 'I' for Inactive)
REMARK    1  A    between atoms: O_3  and  C_10
REMARK    2  A    between atoms: N_5  and  C_12
REMARK    3  A    between atoms: C_8  and  C_13
REMARK    4  A    between atoms: C_12  and  C_14
REMARK    5  A    between atoms: C_15  and  C_18
REMARK    6  A    between atoms: C_18  and  C_21
REMARK                            x       y       z     vdW  Elec       q    Type
REMARK                         _______ _______ _______ _____ _____    ______ ____
ROOT
ATOM      5  N   UNL     1       0.111  -0.102  23.989  0.00  0.00    -0.285 NA
ATOM      8  C   UNL     1       0.677   1.214  24.351  0.00  0.00    +0.149 C 
ATOM      9  C   UNL     1       1.866   1.408  23.390  0.00  0.00    +0.061 C 
ATOM     10  C   UNL     1       1.917   0.132  22.561  0.00  0.00    +0.130 C 
ATOM     11  C   UNL     1       1.213  -0.888  23.436  0.00  0.00    +0.116 C 
ENDROOT
BRANCH   8  13
ATOM      4  O   UNL     1       0.133   3.595  24.413  0.00  0.00    -0.336 OA
ATOM      6  N   UNL     1      -1.630   2.264  24.044  0.00  0.00    -0.194 NA
ATOM      7  N   UNL     1      -0.976   4.442  24.288  0.00  0.00    -0.061 NA
ATOM     13  C   UNL     1      -0.340   2.332  24.256  0.00  0.00    +0.245 A 
ATOM     15  C   UNL     1      -1.976   3.583  24.073  0.00  0.00    +0.176 A 
BRANCH  15  18
ATOM     18  C   UNL     1      -3.359   4.032  23.880  0.00  0.00    +0.116 C 
BRANCH  18  21
ATOM      1 CL   UNL     1      -3.310   4.518  26.939  0.00  0.00    -0.083 Cl
ATOM      2  F   UNL     1      -7.232   1.329  26.989  0.00  0.00    -0.205 F 
ATOM     21  C   UNL     1      -4.391   3.316  24.745  0.00  0.00    -0.021 A 
ATOM     23  C   UNL     1      -4.430   3.485  26.129  0.00  0.00    +0.047 A 
ATOM     24  C   UNL     1      -5.313   2.476  24.119  0.00  0.00    +0.008 A 
ATOM     25  C   UNL     1      -5.390   2.814  26.888  0.00  0.00    +0.058 A 
ATOM     26  C   UNL     1      -6.272   1.805  24.877  0.00  0.00    +0.039 A 
ATOM     27  C   UNL     1      -6.311   1.974  26.262  0.00  0.00    +0.125 A 
ENDBRANCH  18  21
ENDBRANCH  15  18
ENDBRANCH   8  13
BRANCH  10   3
ATOM      3  O   UNL     1       3.254  -0.240  22.293  0.00  0.00    -0.390 OA
ATOM     28  H   UNL     1       3.770   0.578  22.191  0.00  0.00    +0.210 HD
ENDBRANCH  10   3
BRANCH   5  12
ATOM     12  C   UNL     1      -0.537  -0.775  25.107  0.00  0.00    +0.120 C 
BRANCH  12  14
ATOM     14  C   UNL     1      -1.892  -1.313  24.728  0.00  0.00    -0.033 A 
ATOM     16  C   UNL     1      -2.047  -2.669  24.439  0.00  0.00    +0.005 A 
ATOM     17  C   UNL     1      -2.990  -0.455  24.665  0.00  0.00    +0.005 A 
ATOM     19  C   UNL     1      -3.303  -3.167  24.088  0.00  0.00    +0.000 A 
ATOM     20  C   UNL     1      -4.244  -0.954  24.314  0.00  0.00    +0.000 A 
ATOM     22  C   UNL     1      -4.401  -2.309  24.026  0.00  0.00    +0.000 A 
ENDBRANCH  12  14
ENDBRANCH   5  12
TORSDOF 6
ENDMDL
MODEL 4
REMARK VINA RESULT:      -3.3      3.646      6.809
REMARK  Name = 26744558
REMARK  6 active torsions:
REMARK  status: ('A' for Active; 'I' for Inactive)
REMARK    1  A    between atoms: O_3  and  C_10
REMARK    2  A    between atoms: N_5  and  C_12
REMARK    3  A    between atoms: C_8  and  C_13
REMARK    4  A    between atoms: C_12  and  C_14
REMARK    5  A    between atoms: C_15  and  C_18
REMARK    6  A    between atoms: C_18  and  C_21
REMARK                            x       y       z     vdW  Elec       q    Type
REMARK                         _______ _______ _______ _____ _____    ______ ____
ROOT
ATOM      5  N   UNL     1      -3.471   2.138  25.094  0.00  0.00    -0.285 NA
ATOM      8  C   UNL     1      -2.470   2.885  24.302  0.00  0.00    +0.149 C 
ATOM      9  C   UNL     1      -2.248   4.194  25.084  0.00  0.00    +0.061 C 
ATOM     10  C   UNL     1      -3.198   4.110  26.272  0.00  0.00    +0.130 C 
ATOM     11  C   UNL     1      -4.265   3.138  25.805  0.00  0.00    +0.116 C 
ENDROOT
BRANCH   8  13
ATOM      4  O   UNL     1      -0.125   2.474  24.850  0.00  0.00    -0.336 OA
ATOM      6  N   UNL     1      -0.950   1.107  23.279  0.00  0.00    -0.194 NA
ATOM      7  N   UNL     1       0.925   1.622  24.485  0.00  0.00    -0.061 NA
ATOM     13  C   UNL     1      -1.191   2.103  24.094  0.00  0.00    +0.245 A 
ATOM     15  C   UNL     1       0.361   0.846  23.555  0.00  0.00    +0.176 A 
BRANCH  15  18
ATOM     18  C   UNL     1       1.105  -0.219  22.874  0.00  0.00    +0.116 C 
BRANCH  18  21
ATOM      1 CL   UNL     1       2.482  -2.427  24.555  0.00  0.00    -0.083 Cl
ATOM      2  F   UNL     1       6.719   0.107  23.466  0.00  0.00    -0.205 F 
ATOM     21  C   UNL     1       2.619  -0.157  23.052  0.00  0.00    -0.021 A 
ATOM     23  C   UNL     1       3.307  -1.115  23.795  0.00  0.00    +0.047 A 
ATOM     24  C   UNL     1       3.315   0.890  22.447  0.00  0.00    +0.008 A 
ATOM     25  C   UNL     1       4.693  -1.026  23.936  0.00  0.00    +0.058 A 
ATOM     26  C   UNL     1       4.700   0.979  22.588  0.00  0.00    +0.039 A 
ATOM     27  C   UNL     1       5.389   0.021  23.332  0.00  0.00    +0.125 A 
ENDBRANCH  18  21
ENDBRANCH  15  18
ENDBRANCH   8  13
BRANCH  10   3
ATOM      3  O   UNL     1      -3.742   5.382  26.569  0.00  0.00    -0.390 OA
ATOM     28  H   UNL     1      -4.117   5.337  27.466  0.00  0.00    +0.210 HD
ENDBRANCH  10   3
BRANCH   5  12
ATOM     12  C   UNL     1      -4.298   1.253  24.284  0.00  0.00    +0.120 C 
BRANCH  12  14
ATOM     14  C   UNL     1      -4.002  -0.198  24.558  0.00  0.00    -0.033 A 
ATOM     16  C   UNL     1      -3.457  -0.577  25.786  0.00  0.00    +0.005 A 
ATOM     17  C   UNL     1      -4.271  -1.160  23.586  0.00  0.00    +0.005 A 
ATOM     19  C   UNL     1      -3.182  -1.921  26.039  0.00  0.00    +0.000 A 
ATOM     20  C   UNL     1      -3.995  -2.504  23.841  0.00  0.00    +0.000 A 
ATOM     22  C   UNL     1      -3.451  -2.884  25.067  0.00  0.00    +0.000 A 
ENDBRANCH  12  14
ENDBRANCH   5  12
TORSDOF 6
ENDMDL
MODEL 5
REMARK VINA RESULT:      -1.9      1.789      3.715
REMARK  Name = 26744558
REMARK  6 active torsions:
REMARK  status: ('A' for Active; 'I' for Inactive)
REMARK    1  A    between atoms: O_3  and  C_10
REMARK    2  A    between atoms: N_5  and  C_12
REMARK    3  A    between atoms: C_8  and  C_13
REMARK    4  A    between atoms: C_12  and  C_14
REMARK    5  A    between atoms: C_15  and  C_18
REMARK    6  A    between atoms: C_18  and  C_21
REMARK                            x       y       z     vdW  Elec       q    Type
REMARK                         _______ _______ _______ _____ _____    ______ ____
ROOT
ATOM      5  N   UNL     1       1.409   1.484  23.762  0.00  0.00    -0.285 NA
ATOM      8  C   UNL     1       0.740   0.428  22.975  0.00  0.00    +0.149 C 
ATOM      9  C   UNL     1       1.796  -0.686  22.835  0.00  0.00    +0.061 C 
ATOM     10  C   UNL     1       3.036  -0.145  23.535  0.00  0.00    +0.130 C 
ATOM     11  C   UNL     1       2.840   1.359  23.492  0.00  0.00    +0.116 C 
ENDROOT
BRANCH   8  13
ATOM      4  O   UNL     1      -0.412  -1.017  24.573  0.00  0.00    -0.336 OA
ATOM      6  N   UNL     1      -1.776   0.311  23.393  0.00  0.00    -0.194 NA
ATOM      7  N   UNL     1      -1.711  -1.302  25.014  0.00  0.00    -0.061 NA
ATOM     13  C   UNL     1      -0.541  -0.058  23.620  0.00  0.00    +0.245 A 
ATOM     15  C   UNL     1      -2.457  -0.479  24.272  0.00  0.00    +0.176 A 
BRANCH  15  18
ATOM     18  C   UNL     1      -3.919  -0.432  24.394  0.00  0.00    +0.116 C 
BRANCH  18  21
ATOM      1 CL   UNL     1      -3.118   1.972  22.612  0.00  0.00    -0.083 Cl
ATOM      2  F   UNL     1      -6.092   4.614  25.731  0.00  0.00    -0.205 F 
ATOM     21  C   UNL     1      -4.489   0.942  24.731  0.00  0.00    -0.021 A 
ATOM     23  C   UNL     1      -4.172   2.071  23.974  0.00  0.00    +0.047 A 
ATOM     24  C   UNL     1      -5.347   1.054  25.825  0.00  0.00    +0.008 A 
ATOM     25  C   UNL     1      -4.714   3.311  24.312  0.00  0.00    +0.058 A 
ATOM     26  C   UNL     1      -5.889   2.294  26.162  0.00  0.00    +0.039 A 
ATOM     27  C   UNL     1      -5.572   3.423  25.406  0.00  0.00    +0.125 A 
ENDBRANCH  18  21
ENDBRANCH  15  18
ENDBRANCH   8  13
BRANCH  10   3
ATOM      3  O   UNL     1       4.210  -0.540  22.854  0.00  0.00    -0.390 OA
ATOM     28  H   UNL     1       4.806  -0.944  23.508  0.00  0.00    +0.210 HD
ENDBRANCH  10   3
BRANCH   5  12
ATOM     12  C   UNL     1       0.909   2.822  23.469  0.00  0.00    +0.120 C 
BRANCH  12  14
ATOM     14  C   UNL     1      -0.135   3.260  24.462  0.00  0.00    -0.033 A 
ATOM     16  C   UNL     1      -0.780   4.486  24.298  0.00  0.00    +0.005 A 
ATOM     17  C   UNL     1      -0.455   2.441  25.545  0.00  0.00    +0.005 A 
ATOM     19  C   UNL     1      -1.747   4.892  25.219  0.00  0.00    +0.000 A 
ATOM     20  C   UNL     1      -1.422   2.848  26.464  0.00  0.00    +0.000 A 
ATOM     22  C   UNL     1      -2.068   4.074  26.301  0.00  0.00    +0.000 A 
ENDBRANCH  12  14
ENDBRANCH   5  12
TORSDOF 6
ENDMDL
MODEL 6
REMARK VINA RESULT:      -1.7      3.047      6.007
REMARK  Name = 26744558
REMARK  6 active torsions:
REMARK  status: ('A' for Active; 'I' for Inactive)
REMARK    1  A    between atoms: O_3  and  C_10
REMARK    2  A    between atoms: N_5  and  C_12
REMARK    3  A    between atoms: C_8  and  C_13
REMARK    4  A    between atoms: C_12  and  C_14
REMARK    5  A    between atoms: C_15  and  C_18
REMARK    6  A    between atoms: C_18  and  C_21
REMARK                            x       y       z     vdW  Elec       q    Type
REMARK                         _______ _______ _______ _____ _____    ______ ____
ROOT
ATOM      5  N   UNL     1      -4.487   1.979  24.880  0.00  0.00    -0.285 NA
ATOM      8  C   UNL     1      -3.640   3.135  24.517  0.00  0.00    +0.149 C 
ATOM      9  C   UNL     1      -4.270   4.331  25.256  0.00  0.00    +0.061 C 
ATOM     10  C   UNL     1      -5.488   3.758  25.968  0.00  0.00    +0.130 C 
ATOM     11  C   UNL     1      -5.817   2.514  25.164  0.00  0.00    +0.116 C 
ENDROOT
BRANCH   8  13
ATOM      4  O   UNL     1      -1.790   3.379  26.094  0.00  0.00    -0.336 OA
ATOM      6  N   UNL     1      -1.228   2.367  24.177  0.00  0.00    -0.194 NA
ATOM      7  N   UNL     1      -0.426   3.079  26.197  0.00  0.00    -0.061 NA
ATOM     13  C   UNL     1      -2.184   2.925  24.876  0.00  0.00    +0.245 A 
ATOM     15  C   UNL     1      -0.169   2.484  25.029  0.00  0.00    +0.176 A 
BRANCH  15  18
ATOM     18  C   UNL     1       1.169   1.990  24.684  0.00  0.00    +0.116 C 
BRANCH  18  21
ATOM      1 CL   UNL     1       3.820   1.594  23.132  0.00  0.00    -0.083 Cl
ATOM      2  F   UNL     1       1.180  -1.839  20.524  0.00  0.00    -0.205 F 
ATOM     21  C   UNL     1       1.202   0.965  23.556  0.00  0.00    -0.021 A 
ATOM     23  C   UNL     1       2.360   0.732  22.813  0.00  0.00    +0.047 A 
ATOM     24  C   UNL     1       0.038   0.250  23.276  0.00  0.00    +0.008 A 
ATOM     25  C   UNL     1       2.353  -0.215  21.789  0.00  0.00    +0.058 A 
ATOM     26  C   UNL     1       0.031  -0.698  22.252  0.00  0.00    +0.039 A 
ATOM     27  C   UNL     1       1.188  -0.930  21.508  0.00  0.00    +0.125 A 
ENDBRANCH  18  21
ENDBRANCH  15  18
ENDBRANCH   8  13
BRANCH  10   3
ATOM      3  O   UNL     1      -6.556   4.685  25.960  0.00  0.00    -0.390 OA
ATOM     28  H   UNL     1      -7.086   4.514  25.162  0.00  0.00    +0.210 HD
ENDBRANCH  10   3
BRANCH   5  12
ATOM     12  C   UNL     1      -4.518   0.945  23.853  0.00  0.00    +0.120 C 
BRANCH  12  14
ATOM     14  C   UNL     1      -3.948  -0.356  24.351  0.00  0.00    -0.033 A 
ATOM     16  C   UNL     1      -3.005  -0.355  25.379  0.00  0.00    +0.005 A 
ATOM     17  C   UNL     1      -4.362  -1.561  23.784  0.00  0.00    +0.005 A 
ATOM     19  C   UNL     1      -2.476  -1.562  25.840  0.00  0.00    +0.000 A 
ATOM     20  C   UNL     1      -3.833  -2.767  24.246  0.00  0.00    +0.000 A 
ATOM     22  C   UNL     1      -2.890  -2.767  25.273  0.00  0.00    +0.000 A 
ENDBRANCH  12  14
ENDBRANCH   5  12
TORSDOF 6
ENDMDL
MODEL 7
REMARK VINA RESULT:      -1.6      2.939      5.294
REMARK  Name = 26744558
REMARK  6 active torsions:
REMARK  status: ('A' for Active; 'I' for Inactive)
REMARK    1  A    between atoms: O_3  and  C_10
REMARK    2  A    between atoms: N_5  and  C_12
REMARK    3  A    between atoms: C_8  and  C_13
REMARK    4  A    between atoms: C_12  and  C_14
REMARK    5  A    between atoms: C_15  and  C_18
REMARK    6  A    between atoms: C_18  and  C_21
REMARK                            x       y       z     vdW  Elec       q    Type
REMARK                         _______ _______ _______ _____ _____    ______ ____
ROOT
ATOM      5  N   UNL     1      -3.866  -0.856  24.506  0.00  0.00    -0.285 NA
ATOM      8  C   UNL     1      -2.632  -1.578  24.879  0.00  0.00    +0.149 C 
ATOM      9  C   UNL     1      -2.733  -2.932  24.151  0.00  0.00    +0.061 C 
ATOM     10  C   UNL     1      -4.076  -2.895  23.433  0.00  0.00    +0.130 C 
ATOM     11  C   UNL     1      -4.874  -1.878  24.226  0.00  0.00    +0.116 C 
ENDROOT
BRANCH   8  13
ATOM      4  O   UNL     1      -0.380  -1.524  23.931  0.00  0.00    -0.336 OA
ATOM      6  N   UNL     1      -1.099   0.456  24.693  0.00  0.00    -0.194 NA
ATOM      7  N   UNL     1       0.660  -0.615  23.697  0.00  0.00    -0.061 NA
ATOM     13  C   UNL     1      -1.377  -0.811  24.519  0.00  0.00    +0.245 A 
ATOM     15  C   UNL     1       0.160   0.529  24.173  0.00  0.00    +0.176 A 
BRANCH  15  18
ATOM     18  C   UNL     1       0.920   1.783  24.140  0.00  0.00    +0.116 C 
BRANCH  18  21
ATOM      1 CL   UNL     1      -0.190   2.065  27.018  0.00  0.00    -0.083 Cl
ATOM      2  F   UNL     1      -2.052   6.446  25.317  0.00  0.00    -0.205 F 
ATOM     21  C   UNL     1       0.114   3.030  24.487  0.00  0.00    -0.021 A 
ATOM     23  C   UNL     1      -0.418   3.226  25.762  0.00  0.00    +0.047 A 
ATOM     24  C   UNL     1      -0.085   3.988  23.493  0.00  0.00    +0.008 A 
ATOM     25  C   UNL     1      -1.150   4.380  26.043  0.00  0.00    +0.058 A 
ATOM     26  C   UNL     1      -0.817   5.142  23.774  0.00  0.00    +0.039 A 
ATOM     27  C   UNL     1      -1.349   5.339  25.048  0.00  0.00    +0.125 A 
ENDBRANCH  18  21
ENDBRANCH  15  18
ENDBRANCH   8  13
BRANCH  10   3
ATOM      3  O   UNL     1      -4.688  -4.170  23.450  0.00  0.00    -0.390 OA
ATOM     28  H   UNL     1      -4.152  -4.744  24.023  0.00  0.00    +0.210 HD
ENDBRANCH  10   3
BRANCH   5  12
ATOM     12  C   UNL     1      -4.309   0.088  25.523  0.00  0.00    +0.120 C 
BRANCH  12  14
ATOM     14  C   UNL     1      -4.324   1.503  25.006  0.00  0.00    -0.033 A 
ATOM     16  C   UNL     1      -4.916   2.514  25.763  0.00  0.00    +0.005 A 
ATOM     17  C   UNL     1      -3.747   1.801  23.772  0.00  0.00    +0.005 A 
ATOM     19  C   UNL     1      -4.930   3.825  25.284  0.00  0.00    +0.000 A 
ATOM     20  C   UNL     1      -3.762   3.111  23.294  0.00  0.00    +0.000 A 
ATOM     22  C   UNL     1      -4.353   4.123  24.050  0.00  0.00    +0.000 A 
ENDBRANCH  12  14
ENDBRANCH   5  12
TORSDOF 6
ENDMDL
MODEL 8
REMARK VINA RESULT:      -1.6      2.915      5.756
REMARK  Name = 26744558
REMARK  6 active torsions:
REMARK  status: ('A' for Active; 'I' for Inactive)
REMARK    1  A    between atoms: O_3  and  C_10
REMARK    2  A    between atoms: N_5  and  C_12
REMARK    3  A    between atoms: C_8  and  C_13
REMARK    4  A    between atoms: C_12  and  C_14
REMARK    5  A    between atoms: C_15  and  C_18
REMARK    6  A    between atoms: C_18  and  C_21
REMARK                            x       y       z     vdW  Elec       q    Type
REMARK                         _______ _______ _______ _____ _____    ______ ____
ROOT
ATOM      5  N   UNL     1      -4.851   2.398  24.773  0.00  0.00    -0.285 NA
ATOM      8  C   UNL     1      -4.161   3.559  24.174  0.00  0.00    +0.149 C 
ATOM      9  C   UNL     1      -4.695   4.778  24.950  0.00  0.00    +0.061 C 
ATOM     10  C   UNL     1      -5.711   4.207  25.931  0.00  0.00    +0.130 C 
ATOM     11  C   UNL     1      -6.125   2.896  25.290  0.00  0.00    +0.116 C 
ENDROOT
BRANCH   8  13
ATOM      4  O   UNL     1      -1.964   4.580  24.493  0.00  0.00    -0.336 OA
ATOM      6  N   UNL     1      -1.898   2.380  24.083  0.00  0.00    -0.194 NA
ATOM      7  N   UNL     1      -0.610   4.223  24.504  0.00  0.00    -0.061 NA
ATOM     13  C   UNL     1      -2.653   3.437  24.240  0.00  0.00    +0.245 A 
ATOM     15  C   UNL     1      -0.653   2.911  24.255  0.00  0.00    +0.176 A 
BRANCH  15  18
ATOM     18  C   UNL     1       0.563   2.096  24.169  0.00  0.00    +0.116 C 
BRANCH  18  21
ATOM      1 CL   UNL     1       1.856   0.026  22.260  0.00  0.00    -0.083 Cl
ATOM      2  F   UNL     1      -0.244  -3.373  25.357  0.00  0.00    -0.205 F 
ATOM     21  C   UNL     1       0.362   0.613  24.464  0.00  0.00    -0.021 A 
ATOM     23  C   UNL     1       0.913  -0.376  23.649  0.00  0.00    +0.047 A 
ATOM     24  C   UNL     1      -0.393   0.255  25.581  0.00  0.00    +0.008 A 
ATOM     25  C   UNL     1       0.709  -1.723  23.950  0.00  0.00    +0.058 A 
ATOM     26  C   UNL     1      -0.597  -1.091  25.882  0.00  0.00    +0.039 A 
ATOM     27  C   UNL     1      -0.047  -2.081  25.068  0.00  0.00    +0.125 A 
ENDBRANCH  18  21
ENDBRANCH  15  18
ENDBRANCH   8  13
BRANCH  10   3
ATOM      3  O   UNL     1      -6.808   5.086  26.084  0.00  0.00    -0.390 OA
ATOM     28  H   UNL     1      -7.441   4.661  26.689  0.00  0.00    +0.210 HD
ENDBRANCH  10   3
BRANCH   5  12
ATOM     12  C   UNL     1      -5.031   1.293  23.841  0.00  0.00    +0.120 C 
BRANCH  12  14
ATOM     14  C   UNL     1      -4.480   0.002  24.388  0.00  0.00    -0.033 A 
ATOM     16  C   UNL     1      -4.328  -1.101  23.548  0.00  0.00    +0.005 A 
ATOM     17  C   UNL     1      -4.124  -0.089  25.733  0.00  0.00    +0.005 A 
ATOM     19  C   UNL     1      -3.817  -2.297  24.056  0.00  0.00    +0.000 A 
ATOM     20  C   UNL     1      -3.613  -1.284  26.239  0.00  0.00    +0.000 A 
ATOM     22  C   UNL     1      -3.460  -2.388  25.401  0.00  0.00    +0.000 A 
ENDBRANCH  12  14
ENDBRANCH   5  12
TORSDOF 6
ENDMDL
MODEL 9
REMARK VINA RESULT:      -1.3      3.925      7.178
REMARK  Name = 26744558
REMARK  6 active torsions:
REMARK  status: ('A' for Active; 'I' for Inactive)
REMARK    1  A    between atoms: O_3  and  C_10
REMARK    2  A    between atoms: N_5  and  C_12
REMARK    3  A    between atoms: C_8  and  C_13
REMARK    4  A    between atoms: C_12  and  C_14
REMARK    5  A    between atoms: C_15  and  C_18
REMARK    6  A    between atoms: C_18  and  C_21
REMARK                            x       y       z     vdW  Elec       q    Type
REMARK                         _______ _______ _______ _____ _____    ______ ____
ROOT
ATOM      5  N   UNL     1      -3.393  -0.579  24.626  0.00  0.00    -0.285 NA
ATOM      8  C   UNL     1      -2.112  -1.235  24.963  0.00  0.00    +0.149 C 
ATOM      9  C   UNL     1      -2.266  -2.681  24.457  0.00  0.00    +0.061 C 
ATOM     10  C   UNL     1      -3.680  -2.754  23.894  0.00  0.00    +0.130 C 
ATOM     11  C   UNL     1      -4.406  -1.632  24.612  0.00  0.00    +0.116 C 
ENDROOT
BRANCH   8  13
ATOM      4  O   UNL     1      -0.618   0.696  24.867  0.00  0.00    -0.336 OA
ATOM      6  N   UNL     1      -0.118  -0.919  23.399  0.00  0.00    -0.194 NA
ATOM      7  N   UNL     1       0.504   1.146  24.160  0.00  0.00    -0.061 NA
ATOM     13  C   UNL     1      -0.918  -0.527  24.358  0.00  0.00    +0.245 A 
ATOM     15  C   UNL     1       0.738   0.140  23.313  0.00  0.00    +0.176 A 
BRANCH  15  18
ATOM     18  C   UNL     1       1.845   0.173  22.351  0.00  0.00    +0.116 C 
BRANCH  18  21
ATOM      1 CL   UNL     1       3.935   2.459  22.317  0.00  0.00    -0.083 Cl
ATOM      2  F   UNL     1       6.914  -0.929  24.598  0.00  0.00    -0.205 F 
ATOM     21  C   UNL     1       3.222  -0.095  22.949  0.00  0.00    -0.021 A 
ATOM     23  C   UNL     1       4.214   0.886  22.969  0.00  0.00    +0.047 A 
ATOM     24  C   UNL     1       3.476  -1.356  23.487  0.00  0.00    +0.008 A 
ATOM     25  C   UNL     1       5.462   0.605  23.526  0.00  0.00    +0.058 A 
ATOM     26  C   UNL     1       4.724  -1.638  24.044  0.00  0.00    +0.039 A 
ATOM     27  C   UNL     1       5.717  -0.658  24.064  0.00  0.00    +0.125 A 
ENDBRANCH  18  21
ENDBRANCH  15  18
ENDBRANCH   8  13
BRANCH  10   3
ATOM      3  O   UNL     1      -4.263  -4.014  24.164  0.00  0.00    -0.390 OA
ATOM     28  H   UNL     1      -5.221  -3.877  24.263  0.00  0.00    +0.210 HD
ENDBRANCH  10   3
BRANCH   5  12
ATOM     12  C   UNL     1      -3.740   0.505  25.537  0.00  0.00    +0.120 C 
BRANCH  12  14
ATOM     14  C   UNL     1      -3.813   1.831  24.827  0.00  0.00    -0.033 A 
ATOM     16  C   UNL     1      -4.209   2.973  25.525  0.00  0.00    +0.005 A 
ATOM     17  C   UNL     1      -3.487   1.918  23.474  0.00  0.00    +0.005 A 
ATOM     19  C   UNL     1      -4.278   4.202  24.868  0.00  0.00    +0.000 A 
ATOM     20  C   UNL     1      -3.555   3.147  22.818  0.00  0.00    +0.000 A 
ATOM     22  C   UNL     1      -3.951   4.289  23.515  0.00  0.00    +0.000 A 
ENDBRANCH  12  14
ENDBRANCH   5  12
TORSDOF 6
ENDMDL
