MODEL 1
REMARK VINA RESULT:      -4.8      0.000      0.000
REMARK  Name = 75536925
REMARK  6 active torsions:
REMARK  status: ('A' for Active; 'I' for Inactive)
REMARK    1  A    between atoms: O_2  and  C_8
REMARK    2  A    between atoms: O_2  and  C_16
REMARK    3  A    between atoms: O_3  and  C_19
REMARK    4  A    between atoms: O_3  and  C_23
REMARK    5  A    between atoms: N_4  and  C_10
REMARK    6  A    between atoms: C_10  and  C_13
REMARK                            x       y       z     vdW  Elec       q    Type
REMARK                         _______ _______ _______ _____ _____    ______ ____
ROOT
ATOM      1  O   UNL     1      -3.722  -3.112  24.436  0.00  0.00    -0.375 OA
ATOM      4  N   UNL     1      -1.818  -1.188  25.415  0.00  0.00    -0.292 NA
ATOM      7  C   UNL     1      -2.575  -0.333  24.500  0.00  0.00    +0.131 C 
ATOM      8  C   UNL     1      -4.071  -0.673  24.544  0.00  0.00    +0.215 C 
ATOM      9  C   UNL     1      -1.399  -2.473  24.841  0.00  0.00    +0.113 C 
ATOM     11  C   UNL     1      -4.459  -2.011  23.921  0.00  0.00    +0.205 C 
ATOM     12  C   UNL     1      -2.398  -3.164  23.917  0.00  0.00    +0.175 C 
ENDROOT
BRANCH   8   2
ATOM      2  O   UNL     1      -4.778   0.365  23.864  0.00  0.00    -0.468 OA
BRANCH   2  16
ATOM      5  N   UNL     1      -4.092   2.585  23.956  0.00  0.00    -0.219 NA
ATOM      6  N   UNL     1      -5.660   2.941  26.255  0.00  0.00    -0.256 NA
ATOM     16  C   UNL     1      -4.821   1.582  24.486  0.00  0.00    +0.234 A 
ATOM     20  C   UNL     1      -5.591   1.758  25.615  0.00  0.00    +0.177 A 
ATOM     21  C   UNL     1      -4.161   3.768  24.597  0.00  0.00    +0.134 A 
ATOM     22  C   UNL     1      -4.931   3.944  25.726  0.00  0.00    +0.130 A 
ENDBRANCH   2  16
ENDBRANCH   8   2
BRANCH   4  10
ATOM     10  C   UNL     1      -0.659  -0.486  25.967  0.00  0.00    +0.119 C 
BRANCH  10  13
ATOM     13  C   UNL     1      -0.610   0.951  25.520  0.00  0.00    -0.033 A 
ATOM     14  C   UNL     1      -0.963   1.970  26.406  0.00  0.00    +0.008 A 
ATOM     15  C   UNL     1      -0.211   1.263  24.221  0.00  0.00    +0.008 A 
ATOM     17  C   UNL     1      -0.916   3.301  25.991  0.00  0.00    +0.046 A 
ATOM     18  C   UNL     1      -0.164   2.595  23.806  0.00  0.00    +0.046 A 
ATOM     19  C   UNL     1      -0.517   3.613  24.692  0.00  0.00    +0.120 A 
BRANCH  19   3
ATOM      3  O   UNL     1      -0.471   4.912  24.289  0.00  0.00    -0.495 OA
ATOM     23  C   UNL     1      -1.382   5.818  24.913  0.00  0.00    +0.277 C 
ENDBRANCH  19   3
ENDBRANCH  10  13
ENDBRANCH   4  10
TORSDOF 5
ENDMDL
MODEL 2
REMARK VINA RESULT:      -4.6     14.230     16.440
REMARK  Name = 75536925
REMARK  6 active torsions:
REMARK  status: ('A' for Active; 'I' for Inactive)
REMARK    1  A    between atoms: O_2  and  C_8
REMARK    2  A    between atoms: O_2  and  C_16
REMARK    3  A    between atoms: O_3  and  C_19
REMARK    4  A    between atoms: O_3  and  C_23
REMARK    5  A    between atoms: N_4  and  C_10
REMARK    6  A    between atoms: C_10  and  C_13
REMARK                            x       y       z     vdW  Elec       q    Type
REMARK                         _______ _______ _______ _____ _____    ______ ____
ROOT
ATOM      1  O   UNL     1      -4.448  -9.595  16.433  0.00  0.00    -0.375 OA
ATOM      4  N   UNL     1      -4.632 -10.271  13.640  0.00  0.00    -0.292 NA
ATOM      7  C   UNL     1      -5.925 -10.781  14.097  0.00  0.00    +0.131 C 
ATOM      8  C   UNL     1      -6.541  -9.850  15.151  0.00  0.00    +0.215 C 
ATOM      9  C   UNL     1      -3.490 -10.682  14.466  0.00  0.00    +0.113 C 
ATOM     11  C   UNL     1      -5.845  -9.847  16.510  0.00  0.00    +0.205 C 
ATOM     12  C   UNL     1      -3.721 -10.729  15.974  0.00  0.00    +0.175 C 
ENDROOT
BRANCH   8   2
ATOM      2  O   UNL     1      -7.901 -10.239  15.340  0.00  0.00    -0.468 OA
BRANCH   2  16
ATOM      5  N   UNL     1      -9.422  -8.539  14.888  0.00  0.00    -0.219 NA
ATOM      6  N   UNL     1      -9.740  -8.133  17.645  0.00  0.00    -0.256 NA
ATOM     16  C   UNL     1      -8.754  -9.273  15.800  0.00  0.00    +0.234 A 
ATOM     20  C   UNL     1      -8.911  -9.073  17.154  0.00  0.00    +0.177 A 
ATOM     21  C   UNL     1     -10.252  -7.598  15.379  0.00  0.00    +0.134 A 
ATOM     22  C   UNL     1     -10.408  -7.398  16.733  0.00  0.00    +0.130 A 
ENDBRANCH   2  16
ENDBRANCH   8   2
BRANCH   4  10
ATOM     10  C   UNL     1      -4.386 -10.614  12.240  0.00  0.00    +0.119 C 
BRANCH  10  13
ATOM     13  C   UNL     1      -5.254  -9.814  11.306  0.00  0.00    -0.033 A 
ATOM     14  C   UNL     1      -6.589 -10.172  11.115  0.00  0.00    +0.008 A 
ATOM     15  C   UNL     1      -4.723  -8.714  10.632  0.00  0.00    +0.008 A 
ATOM     17  C   UNL     1      -7.393  -9.429  10.249  0.00  0.00    +0.046 A 
ATOM     18  C   UNL     1      -5.527  -7.972   9.766  0.00  0.00    +0.046 A 
ATOM     19  C   UNL     1      -6.862  -8.330   9.576  0.00  0.00    +0.120 A 
BRANCH  19   3
ATOM      3  O   UNL     1      -7.647  -7.606   8.732  0.00  0.00    -0.495 OA
ATOM     23  C   UNL     1      -9.060  -7.725   8.898  0.00  0.00    +0.277 C 
ENDBRANCH  19   3
ENDBRANCH  10  13
ENDBRANCH   4  10
TORSDOF 5
ENDMDL
MODEL 3
REMARK VINA RESULT:      -4.4      1.976      4.883
REMARK  Name = 75536925
REMARK  6 active torsions:
REMARK  status: ('A' for Active; 'I' for Inactive)
REMARK    1  A    between atoms: O_2  and  C_8
REMARK    2  A    between atoms: O_2  and  C_16
REMARK    3  A    between atoms: O_3  and  C_19
REMARK    4  A    between atoms: O_3  and  C_23
REMARK    5  A    between atoms: N_4  and  C_10
REMARK    6  A    between atoms: C_10  and  C_13
REMARK                            x       y       z     vdW  Elec       q    Type
REMARK                         _______ _______ _______ _____ _____    ______ ____
ROOT
ATOM      1  O   UNL     1      -6.394   2.729  24.934  0.00  0.00    -0.375 OA
ATOM      4  N   UNL     1      -3.551   3.145  24.746  0.00  0.00    -0.292 NA
ATOM      7  C   UNL     1      -3.565   1.955  25.597  0.00  0.00    +0.131 C 
ATOM      8  C   UNL     1      -4.668   0.981  25.161  0.00  0.00    +0.215 C 
ATOM      9  C   UNL     1      -4.467   4.210  25.174  0.00  0.00    +0.113 C 
ATOM     11  C   UNL     1      -6.096   1.436  25.447  0.00  0.00    +0.205 C 
ATOM     12  C   UNL     1      -5.821   3.766  25.721  0.00  0.00    +0.175 C 
ENDROOT
BRANCH   8   2
ATOM      2  O   UNL     1      -4.446  -0.261  25.829  0.00  0.00    -0.468 OA
BRANCH   2  16
ATOM      5  N   UNL     1      -2.160  -0.674  25.928  0.00  0.00    -0.219 NA
ATOM      6  N   UNL     1      -2.488  -2.758  24.078  0.00  0.00    -0.256 NA
ATOM     16  C   UNL     1      -3.366  -0.992  25.417  0.00  0.00    +0.234 A 
ATOM     20  C   UNL     1      -3.526  -2.015  24.509  0.00  0.00    +0.177 A 
ATOM     21  C   UNL     1      -1.121  -1.416  25.498  0.00  0.00    +0.134 A 
ATOM     22  C   UNL     1      -1.281  -2.439  24.589  0.00  0.00    +0.130 A 
ENDBRANCH   2  16
ENDBRANCH   8   2
BRANCH   4  10
ATOM     10  C   UNL     1      -2.198   3.680  24.594  0.00  0.00    +0.119 C 
BRANCH  10  13
ATOM     13  C   UNL     1      -1.227   2.624  24.139  0.00  0.00    -0.033 A 
ATOM     14  C   UNL     1       0.053   2.566  24.693  0.00  0.00    +0.008 A 
ATOM     15  C   UNL     1      -1.605   1.702  23.163  0.00  0.00    +0.008 A 
ATOM     17  C   UNL     1       0.953   1.587  24.271  0.00  0.00    +0.046 A 
ATOM     18  C   UNL     1      -0.705   0.723  22.740  0.00  0.00    +0.046 A 
ATOM     19  C   UNL     1       0.573   0.666  23.295  0.00  0.00    +0.120 A 
BRANCH  19   3
ATOM      3  O   UNL     1       1.452  -0.289  22.884  0.00  0.00    -0.495 OA
ATOM     23  C   UNL     1       2.743   0.154  22.466  0.00  0.00    +0.277 C 
ENDBRANCH  19   3
ENDBRANCH  10  13
ENDBRANCH   4  10
TORSDOF 5
ENDMDL
MODEL 4
REMARK VINA RESULT:      -3.8      2.240      4.456
REMARK  Name = 75536925
REMARK  6 active torsions:
REMARK  status: ('A' for Active; 'I' for Inactive)
REMARK    1  A    between atoms: O_2  and  C_8
REMARK    2  A    between atoms: O_2  and  C_16
REMARK    3  A    between atoms: O_3  and  C_19
REMARK    4  A    between atoms: O_3  and  C_23
REMARK    5  A    between atoms: N_4  and  C_10
REMARK    6  A    between atoms: C_10  and  C_13
REMARK                            x       y       z     vdW  Elec       q    Type
REMARK                         _______ _______ _______ _____ _____    ______ ____
ROOT
ATOM      1  O   UNL     1       1.229  -0.976  24.061  0.00  0.00    -0.375 OA
ATOM      4  N   UNL     1       0.109   1.642  24.489  0.00  0.00    -0.292 NA
ATOM      7  C   UNL     1      -1.041   0.822  24.870  0.00  0.00    +0.131 C 
ATOM      8  C   UNL     1      -0.592  -0.432  25.633  0.00  0.00    +0.215 C 
ATOM      9  C   UNL     1       0.732   1.261  23.215  0.00  0.00    +0.113 C 
ATOM     11  C   UNL     1       0.125  -1.488  24.796  0.00  0.00    +0.205 C 
ATOM     12  C   UNL     1       0.819  -0.234  22.918  0.00  0.00    +0.175 C 
ENDROOT
BRANCH   8   2
ATOM      2  O   UNL     1      -1.751  -1.028  26.218  0.00  0.00    -0.468 OA
BRANCH   2  16
ATOM      5  N   UNL     1      -3.638  -0.431  24.997  0.00  0.00    -0.219 NA
ATOM      6  N   UNL     1      -3.815  -3.063  24.042  0.00  0.00    -0.256 NA
ATOM     16  C   UNL     1      -2.754  -1.383  25.358  0.00  0.00    +0.234 A 
ATOM     20  C   UNL     1      -2.842  -2.675  24.889  0.00  0.00    +0.177 A 
ATOM     21  C   UNL     1      -4.611  -0.819  24.150  0.00  0.00    +0.134 A 
ATOM     22  C   UNL     1      -4.699  -2.112  23.681  0.00  0.00    +0.130 A 
ENDBRANCH   2  16
ENDBRANCH   8   2
BRANCH   4  10
ATOM     10  C   UNL     1      -0.228   3.065  24.475  0.00  0.00    +0.119 C 
BRANCH  10  13
ATOM     13  C   UNL     1      -1.680   3.299  24.797  0.00  0.00    -0.033 A 
ATOM     14  C   UNL     1      -2.668   2.908  23.893  0.00  0.00    +0.008 A 
ATOM     15  C   UNL     1      -2.038   3.907  26.001  0.00  0.00    +0.008 A 
ATOM     17  C   UNL     1      -4.013   3.126  24.192  0.00  0.00    +0.046 A 
ATOM     18  C   UNL     1      -3.383   4.125  26.300  0.00  0.00    +0.046 A 
ATOM     19  C   UNL     1      -4.370   3.733  25.396  0.00  0.00    +0.120 A 
BRANCH  19   3
ATOM      3  O   UNL     1      -5.682   3.944  25.687  0.00  0.00    -0.495 OA
ATOM     23  C   UNL     1      -6.504   2.789  25.854  0.00  0.00    +0.277 C 
ENDBRANCH  19   3
ENDBRANCH  10  13
ENDBRANCH   4  10
TORSDOF 5
ENDMDL
MODEL 5
REMARK VINA RESULT:      -3.8      2.123      4.118
REMARK  Name = 75536925
REMARK  6 active torsions:
REMARK  status: ('A' for Active; 'I' for Inactive)
REMARK    1  A    between atoms: O_2  and  C_8
REMARK    2  A    between atoms: O_2  and  C_16
REMARK    3  A    between atoms: O_3  and  C_19
REMARK    4  A    between atoms: O_3  and  C_23
REMARK    5  A    between atoms: N_4  and  C_10
REMARK    6  A    between atoms: C_10  and  C_13
REMARK                            x       y       z     vdW  Elec       q    Type
REMARK                         _______ _______ _______ _____ _____    ______ ____
ROOT
ATOM      1  O   UNL     1      -0.751  -2.274  23.929  0.00  0.00    -0.375 OA
ATOM      4  N   UNL     1      -3.280  -0.938  24.246  0.00  0.00    -0.292 NA
ATOM      7  C   UNL     1      -2.501  -0.220  25.256  0.00  0.00    +0.131 C 
ATOM      8  C   UNL     1      -1.065   0.023  24.769  0.00  0.00    +0.215 C 
ATOM      9  C   UNL     1      -3.160  -2.399  24.310  0.00  0.00    +0.113 C 
ATOM     11  C   UNL     1      -0.180  -1.217  24.689  0.00  0.00    +0.205 C 
ATOM     12  C   UNL     1      -1.778  -2.956  24.639  0.00  0.00    +0.175 C 
ENDROOT
BRANCH   8   2
ATOM      2  O   UNL     1      -0.454   0.960  25.656  0.00  0.00    -0.468 OA
BRANCH   2  16
ATOM      5  N   UNL     1      -1.450   2.977  26.244  0.00  0.00    -0.219 NA
ATOM      6  N   UNL     1      -0.292   4.172  23.986  0.00  0.00    -0.256 NA
ATOM     16  C   UNL     1      -0.670   2.284  25.391  0.00  0.00    +0.234 A 
ATOM     20  C   UNL     1      -0.102   2.871  24.282  0.00  0.00    +0.177 A 
ATOM     21  C   UNL     1      -1.640   4.278  25.948  0.00  0.00    +0.134 A 
ATOM     22  C   UNL     1      -1.071   4.865  24.839  0.00  0.00    +0.130 A 
ENDBRANCH   2  16
ENDBRANCH   8   2
BRANCH   4  10
ATOM     10  C   UNL     1      -4.690  -0.549  24.284  0.00  0.00    +0.119 C 
BRANCH  10  13
ATOM     13  C   UNL     1      -4.864   0.893  24.679  0.00  0.00    -0.033 A 
ATOM     14  C   UNL     1      -5.703   1.229  25.741  0.00  0.00    +0.008 A 
ATOM     15  C   UNL     1      -4.186   1.893  23.982  0.00  0.00    +0.008 A 
ATOM     17  C   UNL     1      -5.864   2.566  26.107  0.00  0.00    +0.046 A 
ATOM     18  C   UNL     1      -4.346   3.230  24.348  0.00  0.00    +0.046 A 
ATOM     19  C   UNL     1      -5.185   3.565  25.410  0.00  0.00    +0.120 A 
BRANCH  19   3
ATOM      3  O   UNL     1      -5.342   4.869  25.768  0.00  0.00    -0.495 OA
ATOM     23  C   UNL     1      -6.531   5.525  25.327  0.00  0.00    +0.277 C 
ENDBRANCH  19   3
ENDBRANCH  10  13
ENDBRANCH   4  10
TORSDOF 5
ENDMDL
MODEL 6
REMARK VINA RESULT:      -3.4      1.952      5.817
REMARK  Name = 75536925
REMARK  6 active torsions:
REMARK  status: ('A' for Active; 'I' for Inactive)
REMARK    1  A    between atoms: O_2  and  C_8
REMARK    2  A    between atoms: O_2  and  C_16
REMARK    3  A    between atoms: O_3  and  C_19
REMARK    4  A    between atoms: O_3  and  C_23
REMARK    5  A    between atoms: N_4  and  C_10
REMARK    6  A    between atoms: C_10  and  C_13
REMARK                            x       y       z     vdW  Elec       q    Type
REMARK                         _______ _______ _______ _____ _____    ______ ____
ROOT
ATOM      1  O   UNL     1      -4.760   4.324  26.433  0.00  0.00    -0.375 OA
ATOM      4  N   UNL     1      -4.862   1.690  25.275  0.00  0.00    -0.292 NA
ATOM      7  C   UNL     1      -3.842   2.291  24.415  0.00  0.00    +0.131 C 
ATOM      8  C   UNL     1      -2.919   3.214  25.223  0.00  0.00    +0.215 C 
ATOM      9  C   UNL     1      -6.068   2.509  25.453  0.00  0.00    +0.113 C 
ATOM     11  C   UNL     1      -3.552   4.516  25.708  0.00  0.00    +0.205 C 
ATOM     12  C   UNL     1      -5.857   4.015  25.581  0.00  0.00    +0.175 C 
ENDROOT
BRANCH   8   2
ATOM      2  O   UNL     1      -1.794   3.535  24.405  0.00  0.00    -0.468 OA
BRANCH   2  16
ATOM      5  N   UNL     1      -1.444   1.525  23.288  0.00  0.00    -0.219 NA
ATOM      6  N   UNL     1       1.185   1.475  24.267  0.00  0.00    -0.256 NA
ATOM     16  C   UNL     1      -0.959   2.501  24.082  0.00  0.00    +0.234 A 
ATOM     20  C   UNL     1       0.332   2.476  24.562  0.00  0.00    +0.177 A 
ATOM     21  C   UNL     1      -0.592   0.525  22.993  0.00  0.00    +0.134 A 
ATOM     22  C   UNL     1       0.699   0.499  23.473  0.00  0.00    +0.130 A 
ENDBRANCH   2  16
ENDBRANCH   8   2
BRANCH   4  10
ATOM     10  C   UNL     1      -5.230   0.352  24.813  0.00  0.00    +0.119 C 
BRANCH  10  13
ATOM     13  C   UNL     1      -4.060  -0.595  24.851  0.00  0.00    -0.033 A 
ATOM     14  C   UNL     1      -3.007  -0.369  25.739  0.00  0.00    +0.008 A 
ATOM     15  C   UNL     1      -4.028  -1.698  23.998  0.00  0.00    +0.008 A 
ATOM     17  C   UNL     1      -1.923  -1.246  25.773  0.00  0.00    +0.046 A 
ATOM     18  C   UNL     1      -2.943  -2.576  24.033  0.00  0.00    +0.046 A 
ATOM     19  C   UNL     1      -1.892  -2.349  24.921  0.00  0.00    +0.120 A 
BRANCH  19   3
ATOM      3  O   UNL     1      -0.834  -3.205  24.956  0.00  0.00    -0.495 OA
ATOM     23  C   UNL     1       0.408  -2.683  25.428  0.00  0.00    +0.277 C 
ENDBRANCH  19   3
ENDBRANCH  10  13
ENDBRANCH   4  10
TORSDOF 5
ENDMDL
MODEL 7
REMARK VINA RESULT:      -3.3      1.719      6.219
REMARK  Name = 75536925
REMARK  6 active torsions:
REMARK  status: ('A' for Active; 'I' for Inactive)
REMARK    1  A    between atoms: O_2  and  C_8
REMARK    2  A    between atoms: O_2  and  C_16
REMARK    3  A    between atoms: O_3  and  C_19
REMARK    4  A    between atoms: O_3  and  C_23
REMARK    5  A    between atoms: N_4  and  C_10
REMARK    6  A    between atoms: C_10  and  C_13
REMARK                            x       y       z     vdW  Elec       q    Type
REMARK                         _______ _______ _______ _____ _____    ______ ____
ROOT
ATOM      1  O   UNL     1      -2.103   5.254  24.997  0.00  0.00    -0.375 OA
ATOM      4  N   UNL     1      -3.813   2.970  25.379  0.00  0.00    -0.292 NA
ATOM      7  C   UNL     1      -2.515   2.295  25.337  0.00  0.00    +0.131 C 
ATOM      8  C   UNL     1      -1.442   3.126  26.054  0.00  0.00    +0.215 C 
ATOM      9  C   UNL     1      -4.033   3.933  24.293  0.00  0.00    +0.113 C 
ATOM     11  C   UNL     1      -1.015   4.405  25.338  0.00  0.00    +0.205 C 
ATOM     12  C   UNL     1      -2.831   4.774  23.873  0.00  0.00    +0.175 C 
ENDROOT
BRANCH   8   2
ATOM      2  O   UNL     1      -0.291   2.299  26.228  0.00  0.00    -0.468 OA
BRANCH   2  16
ATOM      5  N   UNL     1       0.921   1.898  24.283  0.00  0.00    -0.219 NA
ATOM      6  N   UNL     1      -0.287  -0.627  24.089  0.00  0.00    -0.256 NA
ATOM     16  C   UNL     1       0.023   1.464  25.191  0.00  0.00    +0.234 A 
ATOM     20  C   UNL     1      -0.569   0.224  25.095  0.00  0.00    +0.177 A 
ATOM     21  C   UNL     1       1.203   1.047  23.277  0.00  0.00    +0.134 A 
ATOM     22  C   UNL     1       0.610  -0.193  23.182  0.00  0.00    +0.130 A 
ENDBRANCH   2  16
ENDBRANCH   8   2
BRANCH   4  10
ATOM     10  C   UNL     1      -4.915   2.009  25.426  0.00  0.00    +0.119 C 
BRANCH  10  13
ATOM     13  C   UNL     1      -4.448   0.607  25.137  0.00  0.00    -0.033 A 
ATOM     14  C   UNL     1      -4.429   0.134  23.824  0.00  0.00    +0.008 A 
ATOM     15  C   UNL     1      -4.034  -0.219  26.182  0.00  0.00    +0.008 A 
ATOM     17  C   UNL     1      -3.996  -1.165  23.557  0.00  0.00    +0.046 A 
ATOM     18  C   UNL     1      -3.601  -1.519  25.914  0.00  0.00    +0.046 A 
ATOM     19  C   UNL     1      -3.582  -1.990  24.602  0.00  0.00    +0.120 A 
BRANCH  19   3
ATOM      3  O   UNL     1      -3.160  -3.257  24.340  0.00  0.00    -0.495 OA
ATOM     23  C   UNL     1      -1.819  -3.411  23.875  0.00  0.00    +0.277 C 
ENDBRANCH  19   3
ENDBRANCH  10  13
ENDBRANCH   4  10
TORSDOF 5
ENDMDL
MODEL 8
REMARK VINA RESULT:      -2.5      2.184      4.488
REMARK  Name = 75536925
REMARK  6 active torsions:
REMARK  status: ('A' for Active; 'I' for Inactive)
REMARK    1  A    between atoms: O_2  and  C_8
REMARK    2  A    between atoms: O_2  and  C_16
REMARK    3  A    between atoms: O_3  and  C_19
REMARK    4  A    between atoms: O_3  and  C_23
REMARK    5  A    between atoms: N_4  and  C_10
REMARK    6  A    between atoms: C_10  and  C_13
REMARK                            x       y       z     vdW  Elec       q    Type
REMARK                         _______ _______ _______ _____ _____    ______ ____
ROOT
ATOM      1  O   UNL     1       1.891   0.460  22.689  0.00  0.00    -0.375 OA
ATOM      4  N   UNL     1      -0.617  -0.420  23.794  0.00  0.00    -0.292 NA
ATOM      7  C   UNL     1      -0.219   0.534  24.830  0.00  0.00    +0.131 C 
ATOM      8  C   UNL     1       0.454   1.766  24.210  0.00  0.00    +0.215 C 
ATOM      9  C   UNL     1       0.435  -1.366  23.401  0.00  0.00    +0.113 C 
ATOM     11  C   UNL     1       1.844   1.530  23.624  0.00  0.00    +0.205 C 
ATOM     12  C   UNL     1       1.855  -0.813  23.322  0.00  0.00    +0.175 C 
ENDROOT
BRANCH   8   2
ATOM      2  O   UNL     1       0.555   2.767  25.224  0.00  0.00    -0.468 OA
BRANCH   2  16
ATOM      5  N   UNL     1      -0.490   4.802  24.803  0.00  0.00    -0.219 NA
ATOM      6  N   UNL     1      -2.703   3.939  26.294  0.00  0.00    -0.256 NA
ATOM     16  C   UNL     1      -0.530   3.586  25.383  0.00  0.00    +0.234 A 
ATOM     20  C   UNL     1      -1.617   3.162  26.115  0.00  0.00    +0.177 A 
ATOM     21  C   UNL     1      -1.576   5.578  24.982  0.00  0.00    +0.134 A 
ATOM     22  C   UNL     1      -2.663   5.155  25.715  0.00  0.00    +0.130 A 
ENDBRANCH   2  16
ENDBRANCH   8   2
BRANCH   4  10
ATOM     10  C   UNL     1      -1.828  -1.148  24.173  0.00  0.00    +0.119 C 
BRANCH  10  13
ATOM     13  C   UNL     1      -2.992  -0.220  24.398  0.00  0.00    -0.033 A 
ATOM     14  C   UNL     1      -3.935  -0.510  25.384  0.00  0.00    +0.008 A 
ATOM     15  C   UNL     1      -3.126   0.931  23.621  0.00  0.00    +0.008 A 
ATOM     17  C   UNL     1      -5.014   0.351  25.592  0.00  0.00    +0.046 A 
ATOM     18  C   UNL     1      -4.205   1.792  23.829  0.00  0.00    +0.046 A 
ATOM     19  C   UNL     1      -5.148   1.501  24.815  0.00  0.00    +0.120 A 
BRANCH  19   3
ATOM      3  O   UNL     1      -6.199   2.340  25.020  0.00  0.00    -0.495 OA
ATOM     23  C   UNL     1      -5.924   3.578  25.675  0.00  0.00    +0.277 C 
ENDBRANCH  19   3
ENDBRANCH  10  13
ENDBRANCH   4  10
TORSDOF 5
ENDMDL
MODEL 9
REMARK VINA RESULT:      -2.5     19.495     20.878
REMARK  Name = 75536925
REMARK  6 active torsions:
REMARK  status: ('A' for Active; 'I' for Inactive)
REMARK    1  A    between atoms: O_2  and  C_8
REMARK    2  A    between atoms: O_2  and  C_16
REMARK    3  A    between atoms: O_3  and  C_19
REMARK    4  A    between atoms: O_3  and  C_23
REMARK    5  A    between atoms: N_4  and  C_10
REMARK    6  A    between atoms: C_10  and  C_13
REMARK                            x       y       z     vdW  Elec       q    Type
REMARK                         _______ _______ _______ _____ _____    ______ ____
ROOT
ATOM      1  O   UNL     1      15.823  -2.132  24.565  0.00  0.00    -0.375 OA
ATOM      4  N   UNL     1      16.601  -4.787  25.360  0.00  0.00    -0.292 NA
ATOM      7  C   UNL     1      17.405  -4.008  26.302  0.00  0.00    +0.131 C 
ATOM      8  C   UNL     1      16.629  -2.783  26.804  0.00  0.00    +0.215 C 
ATOM      9  C   UNL     1      16.689  -4.336  23.966  0.00  0.00    +0.113 C 
ATOM     11  C   UNL     1      16.414  -1.676  25.775  0.00  0.00    +0.205 C 
ATOM     12  C   UNL     1      16.750  -2.828  23.740  0.00  0.00    +0.175 C 
ENDROOT
BRANCH   8   2
ATOM      2  O   UNL     1      17.341  -2.236  27.914  0.00  0.00    -0.468 OA
BRANCH   2  16
ATOM      5  N   UNL     1      17.040  -4.068  29.315  0.00  0.00    -0.219 NA
ATOM      6  N   UNL     1      16.364  -2.321  31.403  0.00  0.00    -0.256 NA
ATOM     16  C   UNL     1      17.019  -2.731  29.148  0.00  0.00    +0.234 A 
ATOM     20  C   UNL     1      16.686  -1.873  30.174  0.00  0.00    +0.177 A 
ATOM     21  C   UNL     1      16.717  -4.516  30.544  0.00  0.00    +0.134 A 
ATOM     22  C   UNL     1      16.385  -3.659  31.570  0.00  0.00    +0.130 A 
ENDBRANCH   2  16
ENDBRANCH   8   2
BRANCH   4  10
ATOM     10  C   UNL     1      16.911  -6.214  25.445  0.00  0.00    +0.119 C 
BRANCH  10  13
ATOM     13  C   UNL     1      16.492  -6.801  26.767  0.00  0.00    -0.033 A 
ATOM     14  C   UNL     1      15.268  -6.443  27.333  0.00  0.00    +0.008 A 
ATOM     15  C   UNL     1      17.329  -7.702  27.425  0.00  0.00    +0.008 A 
ATOM     17  C   UNL     1      14.881  -6.987  28.558  0.00  0.00    +0.046 A 
ATOM     18  C   UNL     1      16.942  -8.246  28.651  0.00  0.00    +0.046 A 
ATOM     19  C   UNL     1      15.718  -7.888  29.216  0.00  0.00    +0.120 A 
BRANCH  19   3
ATOM      3  O   UNL     1      15.339  -8.419  30.411  0.00  0.00    -0.495 OA
ATOM     23  C   UNL     1      14.028  -8.980  30.486  0.00  0.00    +0.277 C 
ENDBRANCH  19   3
ENDBRANCH  10  13
ENDBRANCH   4  10
TORSDOF 5
ENDMDL
MODEL 10
REMARK VINA RESULT:      -1.3      2.100      3.034
REMARK  Name = 75536925
REMARK  6 active torsions:
REMARK  status: ('A' for Active; 'I' for Inactive)
REMARK    1  A    between atoms: O_2  and  C_8
REMARK    2  A    between atoms: O_2  and  C_16
REMARK    3  A    between atoms: O_3  and  C_19
REMARK    4  A    between atoms: O_3  and  C_23
REMARK    5  A    between atoms: N_4  and  C_10
REMARK    6  A    between atoms: C_10  and  C_13
REMARK                            x       y       z     vdW  Elec       q    Type
REMARK                         _______ _______ _______ _____ _____    ______ ____
ROOT
ATOM      1  O   UNL     1      -5.393  -1.291  24.384  0.00  0.00    -0.375 OA
ATOM      4  N   UNL     1      -2.840  -0.648  25.547  0.00  0.00    -0.292 NA
ATOM      7  C   UNL     1      -3.128   0.623  24.880  0.00  0.00    +0.131 C 
ATOM      8  C   UNL     1      -4.619   0.972  24.987  0.00  0.00    +0.215 C 
ATOM      9  C   UNL     1      -3.034  -1.834  24.704  0.00  0.00    +0.113 C 
ATOM     11  C   UNL     1      -5.557   0.103  24.154  0.00  0.00    +0.205 C 
ATOM     12  C   UNL     1      -4.227  -1.808  23.753  0.00  0.00    +0.175 C 
ENDROOT
BRANCH   8   2
ATOM      2  O   UNL     1      -4.782   2.331  24.580  0.00  0.00    -0.468 OA
BRANCH   2  16
ATOM      5  N   UNL     1      -2.776   3.262  23.858  0.00  0.00    -0.219 NA
ATOM      6  N   UNL     1      -2.625   4.716  26.252  0.00  0.00    -0.256 NA
ATOM     16  C   UNL     1      -3.724   3.168  24.812  0.00  0.00    +0.234 A 
ATOM     20  C   UNL     1      -3.650   3.883  25.987  0.00  0.00    +0.177 A 
ATOM     21  C   UNL     1      -1.752   4.096  24.123  0.00  0.00    +0.134 A 
ATOM     22  C   UNL     1      -1.677   4.810  25.298  0.00  0.00    +0.130 A 
ENDBRANCH   2  16
ENDBRANCH   8   2
BRANCH   4  10
ATOM     10  C   UNL     1      -1.495  -0.657  26.122  0.00  0.00    +0.119 C 
BRANCH  10  13
ATOM     13  C   UNL     1      -0.454  -0.238  25.119  0.00  0.00    -0.033 A 
ATOM     14  C   UNL     1      -0.041   1.093  25.056  0.00  0.00    +0.008 A 
ATOM     15  C   UNL     1       0.100  -1.181  24.253  0.00  0.00    +0.008 A 
ATOM     17  C   UNL     1       0.924   1.481  24.126  0.00  0.00    +0.046 A 
ATOM     18  C   UNL     1       1.065  -0.794  23.324  0.00  0.00    +0.046 A 
ATOM     19  C   UNL     1       1.477   0.537  23.261  0.00  0.00    +0.120 A 
BRANCH  19   3
ATOM      3  O   UNL     1       2.419   0.916  22.355  0.00  0.00    -0.495 OA
ATOM     23  C   UNL     1       3.784   0.682  22.701  0.00  0.00    +0.277 C 
ENDBRANCH  19   3
ENDBRANCH  10  13
ENDBRANCH   4  10
TORSDOF 5
ENDMDL
