MODEL 1
REMARK VINA RESULT:      -2.6      0.000      0.000
REMARK  Name = 45360628
REMARK  12 active torsions:
REMARK  status: ('A' for Active; 'I' for Inactive)
REMARK    1  A    between atoms: N_5  and  C_9
REMARK    2  A    between atoms: N_5  and  C_17
REMARK    3  A    between atoms: N_6  and  C_22
REMARK    4  A    between atoms: N_7  and  C_25
REMARK    5  A    between atoms: N_7  and  C_28
REMARK    6  A    between atoms: N_7  and  C_29
REMARK    7  A    between atoms: C_10  and  C_15
REMARK    8  A    between atoms: C_15  and  C_16
REMARK    9  A    between atoms: C_16  and  C_18
REMARK   10  A    between atoms: C_17  and  C_19
REMARK   11  A    between atoms: C_22  and  C_26
REMARK   12  A    between atoms: C_22  and  C_27
REMARK                            x       y       z     vdW  Elec       q    Type
REMARK                         _______ _______ _______ _____ _____    ______ ____
ROOT
ATOM      1  O   UNL     1      -1.589   6.039  25.159  0.00  0.00    -0.274 OA
ATOM      3  N   UNL     1      -1.788   2.559  24.072  0.00  0.00    -0.286 NA
ATOM      4  N   UNL     1      -0.210   4.290  25.617  0.00  0.00    -0.313 N 
ATOM      8  C   UNL     1      -2.070   3.999  23.989  0.00  0.00    +0.145 C 
ATOM      9  C   UNL     1      -4.038   2.676  24.508  0.00  0.00    +0.070 C 
ATOM     10  C   UNL     1      -0.383   2.234  24.290  0.00  0.00    +0.075 C 
ATOM     11  C   UNL     1      -3.581   4.111  24.246  0.00  0.00    +0.048 C 
ATOM     12  C   UNL     1      -2.771   1.980  24.985  0.00  0.00    +0.104 C 
ATOM     13  C   UNL     1       0.133   2.888  25.563  0.00  0.00    +0.123 C 
ATOM     14  C   UNL     1      -1.290   4.854  24.983  0.00  0.00    +0.230 C 
ATOM     30  H   UNL     1       0.314   4.876  26.260  0.00  0.00    +0.149 HD
ENDROOT
BRANCH   9   5
ATOM      5  N   UNL     1      -5.137   2.592  25.458  0.00  0.00    -0.308 NA
ATOM     31  H   UNL     1      -4.778   2.761  26.397  0.00  0.00    +0.123 HD
BRANCH   5  17
ATOM     17  C   UNL     1      -5.762   1.276  25.419  0.00  0.00    +0.116 C 
BRANCH  17  19
ATOM     19  C   UNL     1      -4.759   0.188  25.140  0.00  0.00    -0.033 A 
ATOM     20  C   UNL     1      -4.628  -0.326  23.850  0.00  0.00    +0.007 A 
ATOM     21  C   UNL     1      -3.961  -0.306  26.172  0.00  0.00    +0.007 A 
ATOM     23  C   UNL     1      -3.699  -1.334  23.592  0.00  0.00    +0.023 A 
ATOM     24  C   UNL     1      -3.032  -1.314  25.913  0.00  0.00    +0.023 A 
ATOM     25  C   UNL     1      -2.902  -1.828  24.623  0.00  0.00    +0.029 A 
BRANCH  25   7
ATOM      7  N   UNL     1      -1.962  -2.847  24.362  0.00  0.00    -0.336 N 
ATOM     28  C   UNL     1      -2.274  -3.911  23.429  0.00  0.00    +0.129 C 
ATOM     29  C   UNL     1      -0.669  -2.838  25.018  0.00  0.00    +0.129 C 
ENDBRANCH  25   7
ENDBRANCH  17  19
ENDBRANCH   5  17
ENDBRANCH   9   5
BRANCH  10  15
ATOM     15  C   UNL     1      -0.117   0.728  24.299  0.00  0.00    +0.029 C 
BRANCH  15  16
ATOM     16  C   UNL     1      -0.253   0.137  22.903  0.00  0.00    +0.097 C 
BRANCH  16  18
ATOM      2  O   UNL     1       1.233  -0.559  21.123  0.00  0.00    -0.276 OA
ATOM      6  N   UNL     1       2.129  -0.013  23.193  0.00  0.00    -0.313 N 
ATOM     18  C   UNL     1       1.096  -0.188  22.285  0.00  0.00    +0.213 C 
ATOM     32  H   UNL     1       1.922   0.355  24.118  0.00  0.00    +0.149 HD
BRANCH   6  22
ATOM     22  C   UNL     1       3.509  -0.258  22.846  0.00  0.00    +0.067 C 
ATOM     26  C   UNL     1       4.117  -1.288  23.790  0.00  0.00    +0.027 C 
ATOM     27  C   UNL     1       4.304   1.041  22.861  0.00  0.00    +0.027 C 
ENDBRANCH   6  22
ENDBRANCH  16  18
ENDBRANCH  15  16
ENDBRANCH  10  15
TORSDOF 8
ENDMDL
MODEL 2
REMARK VINA RESULT:      -1.2      1.478      1.762
REMARK  Name = 45360628
REMARK  12 active torsions:
REMARK  status: ('A' for Active; 'I' for Inactive)
REMARK    1  A    between atoms: N_5  and  C_9
REMARK    2  A    between atoms: N_5  and  C_17
REMARK    3  A    between atoms: N_6  and  C_22
REMARK    4  A    between atoms: N_7  and  C_25
REMARK    5  A    between atoms: N_7  and  C_28
REMARK    6  A    between atoms: N_7  and  C_29
REMARK    7  A    between atoms: C_10  and  C_15
REMARK    8  A    between atoms: C_15  and  C_16
REMARK    9  A    between atoms: C_16  and  C_18
REMARK   10  A    between atoms: C_17  and  C_19
REMARK   11  A    between atoms: C_22  and  C_26
REMARK   12  A    between atoms: C_22  and  C_27
REMARK                            x       y       z     vdW  Elec       q    Type
REMARK                         _______ _______ _______ _____ _____    ______ ____
ROOT
ATOM      1  O   UNL     1      -0.719   3.082  27.703  0.00  0.00    -0.274 OA
ATOM      3  N   UNL     1      -0.777   2.729  24.070  0.00  0.00    -0.286 NA
ATOM      4  N   UNL     1      -0.187   1.291  26.406  0.00  0.00    -0.313 N 
ATOM      8  C   UNL     1      -0.720   3.474  25.335  0.00  0.00    +0.145 C 
ATOM      9  C   UNL     1      -2.786   3.838  24.114  0.00  0.00    +0.070 C 
ATOM     10  C   UNL     1       0.144   1.601  23.995  0.00  0.00    +0.075 C 
ATOM     11  C   UNL     1      -2.042   4.255  25.382  0.00  0.00    +0.048 C 
ATOM     12  C   UNL     1      -2.187   2.478  23.782  0.00  0.00    +0.104 C 
ATOM     13  C   UNL     1      -0.109   0.620  25.130  0.00  0.00    +0.123 C 
ATOM     14  C   UNL     1      -0.567   2.600  26.576  0.00  0.00    +0.230 C 
ATOM     30  H   UNL     1      -0.068   0.725  27.241  0.00  0.00    +0.149 HD
ENDROOT
BRANCH   9   5
ATOM      5  N   UNL     1      -4.231   3.808  24.284  0.00  0.00    -0.308 NA
ATOM     31  H   UNL     1      -4.560   4.751  24.492  0.00  0.00    +0.123 HD
BRANCH   5  17
ATOM     17  C   UNL     1      -4.611   2.921  25.376  0.00  0.00    +0.116 C 
BRANCH  17  19
ATOM     19  C   UNL     1      -4.243   1.490  25.089  0.00  0.00    -0.033 A 
ATOM     20  C   UNL     1      -4.540   0.929  23.847  0.00  0.00    +0.007 A 
ATOM     21  C   UNL     1      -3.605   0.724  26.065  0.00  0.00    +0.007 A 
ATOM     23  C   UNL     1      -4.200  -0.397  23.581  0.00  0.00    +0.023 A 
ATOM     24  C   UNL     1      -3.265  -0.602  25.798  0.00  0.00    +0.023 A 
ATOM     25  C   UNL     1      -3.563  -1.163  24.556  0.00  0.00    +0.029 A 
BRANCH  25   7
ATOM      7  N   UNL     1      -3.218  -2.504  24.287  0.00  0.00    -0.336 N 
ATOM     28  C   UNL     1      -4.207  -3.425  23.762  0.00  0.00    +0.129 C 
ATOM     29  C   UNL     1      -1.869  -2.977  24.526  0.00  0.00    +0.129 C 
ENDBRANCH  25   7
ENDBRANCH  17  19
ENDBRANCH   5  17
ENDBRANCH   9   5
BRANCH  10  15
ATOM     15  C   UNL     1       0.108   0.895  22.640  0.00  0.00    +0.029 C 
BRANCH  15  16
ATOM     16  C   UNL     1       0.869  -0.423  22.685  0.00  0.00    +0.097 C 
BRANCH  16  18
ATOM      2  O   UNL     1       2.679   0.097  21.164  0.00  0.00    -0.276 OA
ATOM      6  N   UNL     1       3.180  -0.558  23.334  0.00  0.00    -0.313 N 
ATOM     18  C   UNL     1       2.324  -0.258  22.285  0.00  0.00    +0.213 C 
ATOM     32  H   UNL     1       2.790  -0.787  24.244  0.00  0.00    +0.149 HD
BRANCH   6  22
ATOM     22  C   UNL     1       4.616  -0.478  23.204  0.00  0.00    +0.067 C 
ATOM     26  C   UNL     1       5.289  -1.452  24.162  0.00  0.00    +0.027 C 
ATOM     27  C   UNL     1       5.095   0.948  23.439  0.00  0.00    +0.027 C 
ENDBRANCH   6  22
ENDBRANCH  16  18
ENDBRANCH  15  16
ENDBRANCH  10  15
TORSDOF 8
ENDMDL
MODEL 3
REMARK VINA RESULT:      -1.1      2.036      6.204
REMARK  Name = 45360628
REMARK  12 active torsions:
REMARK  status: ('A' for Active; 'I' for Inactive)
REMARK    1  A    between atoms: N_5  and  C_9
REMARK    2  A    between atoms: N_5  and  C_17
REMARK    3  A    between atoms: N_6  and  C_22
REMARK    4  A    between atoms: N_7  and  C_25
REMARK    5  A    between atoms: N_7  and  C_28
REMARK    6  A    between atoms: N_7  and  C_29
REMARK    7  A    between atoms: C_10  and  C_15
REMARK    8  A    between atoms: C_15  and  C_16
REMARK    9  A    between atoms: C_16  and  C_18
REMARK   10  A    between atoms: C_17  and  C_19
REMARK   11  A    between atoms: C_22  and  C_26
REMARK   12  A    between atoms: C_22  and  C_27
REMARK                            x       y       z     vdW  Elec       q    Type
REMARK                         _______ _______ _______ _____ _____    ______ ____
ROOT
ATOM      1  O   UNL     1      -0.602   5.327  25.142  0.00  0.00    -0.274 OA
ATOM      3  N   UNL     1      -2.557   2.247  24.987  0.00  0.00    -0.286 NA
ATOM      4  N   UNL     1      -2.783   5.014  24.577  0.00  0.00    -0.313 N 
ATOM      8  C   UNL     1      -1.444   3.097  25.430  0.00  0.00    +0.145 C 
ATOM      9  C   UNL     1      -0.733   1.280  23.985  0.00  0.00    +0.070 C 
ATOM     10  C   UNL     1      -3.870   2.875  25.090  0.00  0.00    +0.075 C 
ATOM     11  C   UNL     1      -0.197   2.457  24.800  0.00  0.00    +0.048 C 
ATOM     12  C   UNL     1      -2.175   1.674  23.699  0.00  0.00    +0.104 C 
ATOM     13  C   UNL     1      -3.916   4.167  24.287  0.00  0.00    +0.123 C 
ATOM     14  C   UNL     1      -1.563   4.561  25.018  0.00  0.00    +0.230 C 
ATOM     30  H   UNL     1      -2.855   5.995  24.326  0.00  0.00    +0.149 HD
ENDROOT
BRANCH   9   5
ATOM      5  N   UNL     1       0.045   1.016  22.784  0.00  0.00    -0.308 NA
ATOM     31  H   UNL     1      -0.573   1.057  21.973  0.00  0.00    +0.123 HD
BRANCH   5  17
ATOM     17  C   UNL     1       0.665  -0.301  22.843  0.00  0.00    +0.116 C 
BRANCH  17  19
ATOM     19  C   UNL     1       2.161  -0.209  22.992  0.00  0.00    -0.033 A 
ATOM     20  C   UNL     1       2.831   0.950  22.602  0.00  0.00    +0.007 A 
ATOM     21  C   UNL     1       2.876  -1.285  23.518  0.00  0.00    +0.007 A 
ATOM     23  C   UNL     1       4.216   1.035  22.740  0.00  0.00    +0.023 A 
ATOM     24  C   UNL     1       4.262  -1.199  23.654  0.00  0.00    +0.023 A 
ATOM     25  C   UNL     1       4.932  -0.040  23.265  0.00  0.00    +0.029 A 
BRANCH  25   7
ATOM      7  N   UNL     1       6.333   0.046  23.405  0.00  0.00    -0.336 N 
ATOM     28  C   UNL     1       7.197  -0.908  22.739  0.00  0.00    +0.129 C 
ATOM     29  C   UNL     1       6.927   1.094  24.211  0.00  0.00    +0.129 C 
ENDBRANCH  25   7
ENDBRANCH  17  19
ENDBRANCH   5  17
ENDBRANCH   9   5
BRANCH  10  15
ATOM     15  C   UNL     1      -5.009   1.938  24.689  0.00  0.00    +0.029 C 
BRANCH  15  16
ATOM     16  C   UNL     1      -5.018   0.682  25.550  0.00  0.00    +0.097 C 
BRANCH  16  18
ATOM      2  O   UNL     1      -4.425  -0.700  23.653  0.00  0.00    -0.276 OA
ATOM      6  N   UNL     1      -3.636  -1.274  25.759  0.00  0.00    -0.313 N 
ATOM     18  C   UNL     1      -4.343  -0.490  24.860  0.00  0.00    +0.213 C 
ATOM     32  H   UNL     1      -3.578  -0.985  26.732  0.00  0.00    +0.149 HD
BRANCH   6  22
ATOM     22  C   UNL     1      -2.907  -2.450  25.348  0.00  0.00    +0.067 C 
ATOM     26  C   UNL     1      -1.514  -2.068  24.865  0.00  0.00    +0.027 C 
ATOM     27  C   UNL     1      -3.676  -3.208  24.273  0.00  0.00    +0.027 C 
ENDBRANCH   6  22
ENDBRANCH  16  18
ENDBRANCH  15  16
ENDBRANCH  10  15
TORSDOF 8
ENDMDL
MODEL 4
REMARK VINA RESULT:      -1.1      2.154      6.534
REMARK  Name = 45360628
REMARK  12 active torsions:
REMARK  status: ('A' for Active; 'I' for Inactive)
REMARK    1  A    between atoms: N_5  and  C_9
REMARK    2  A    between atoms: N_5  and  C_17
REMARK    3  A    between atoms: N_6  and  C_22
REMARK    4  A    between atoms: N_7  and  C_25
REMARK    5  A    between atoms: N_7  and  C_28
REMARK    6  A    between atoms: N_7  and  C_29
REMARK    7  A    between atoms: C_10  and  C_15
REMARK    8  A    between atoms: C_15  and  C_16
REMARK    9  A    between atoms: C_16  and  C_18
REMARK   10  A    between atoms: C_17  and  C_19
REMARK   11  A    between atoms: C_22  and  C_26
REMARK   12  A    between atoms: C_22  and  C_27
REMARK                            x       y       z     vdW  Elec       q    Type
REMARK                         _______ _______ _______ _____ _____    ______ ____
ROOT
ATOM      1  O   UNL     1       0.934   2.683  26.809  0.00  0.00    -0.274 OA
ATOM      3  N   UNL     1      -2.097   1.674  25.044  0.00  0.00    -0.286 NA
ATOM      4  N   UNL     1      -0.403   3.880  25.413  0.00  0.00    -0.313 N 
ATOM      8  C   UNL     1      -1.076   1.583  26.096  0.00  0.00    +0.145 C 
ATOM      9  C   UNL     1      -1.014  -0.288  24.550  0.00  0.00    +0.070 C 
ATOM     10  C   UNL     1      -2.625   3.017  24.834  0.00  0.00    +0.075 C 
ATOM     11  C   UNL     1      -0.349   0.259  25.813  0.00  0.00    +0.048 C 
ATOM     12  C   UNL     1      -1.582   0.955  23.881  0.00  0.00    +0.104 C 
ATOM     13  C   UNL     1      -1.508   3.990  24.489  0.00  0.00    +0.123 C 
ATOM     14  C   UNL     1      -0.088   2.745  26.119  0.00  0.00    +0.230 C 
ATOM     30  H   UNL     1       0.252   4.655  25.453  0.00  0.00    +0.149 HD
ENDROOT
BRANCH   9   5
ATOM      5  N   UNL     1      -0.099  -1.036  23.702  0.00  0.00    -0.308 NA
ATOM     31  H   UNL     1       0.625  -1.458  24.285  0.00  0.00    +0.123 HD
BRANCH   5  17
ATOM     17  C   UNL     1       0.532  -0.165  22.719  0.00  0.00    +0.116 C 
BRANCH  17  19
ATOM     19  C   UNL     1       2.025  -0.102  22.904  0.00  0.00    -0.033 A 
ATOM     20  C   UNL     1       2.720   1.062  22.576  0.00  0.00    +0.007 A 
ATOM     21  C   UNL     1       2.714  -1.209  23.402  0.00  0.00    +0.007 A 
ATOM     23  C   UNL     1       4.103   1.120  22.747  0.00  0.00    +0.023 A 
ATOM     24  C   UNL     1       4.097  -1.150  23.572  0.00  0.00    +0.023 A 
ATOM     25  C   UNL     1       4.792   0.014  23.244  0.00  0.00    +0.029 A 
BRANCH  25   7
ATOM      7  N   UNL     1       6.190   0.073  23.417  0.00  0.00    -0.336 N 
ATOM     28  C   UNL     1       7.052  -0.889  22.761  0.00  0.00    +0.129 C 
ATOM     29  C   UNL     1       6.784   1.102  24.249  0.00  0.00    +0.129 C 
ENDBRANCH  25   7
ENDBRANCH  17  19
ENDBRANCH   5  17
ENDBRANCH   9   5
BRANCH  10  15
ATOM     15  C   UNL     1      -3.736   3.061  23.783  0.00  0.00    +0.029 C 
BRANCH  15  16
ATOM     16  C   UNL     1      -5.107   2.910  24.425  0.00  0.00    +0.097 C 
BRANCH  16  18
ATOM      2  O   UNL     1      -5.914   1.384  26.122  0.00  0.00    -0.276 OA
ATOM      6  N   UNL     1      -4.658   0.549  24.358  0.00  0.00    -0.313 N 
ATOM     18  C   UNL     1      -5.287   1.552  25.080  0.00  0.00    +0.213 C 
ATOM     32  H   UNL     1      -4.212   0.778  23.474  0.00  0.00    +0.149 HD
BRANCH   6  22
ATOM     22  C   UNL     1      -4.683  -0.833  24.776  0.00  0.00    +0.067 C 
ATOM     26  C   UNL     1      -3.816  -1.026  26.014  0.00  0.00    +0.027 C 
ATOM     27  C   UNL     1      -4.234  -1.743  23.641  0.00  0.00    +0.027 C 
ENDBRANCH   6  22
ENDBRANCH  16  18
ENDBRANCH  15  16
ENDBRANCH  10  15
TORSDOF 8
ENDMDL
MODEL 5
REMARK VINA RESULT:      -0.9      2.310      4.317
REMARK  Name = 45360628
REMARK  12 active torsions:
REMARK  status: ('A' for Active; 'I' for Inactive)
REMARK    1  A    between atoms: N_5  and  C_9
REMARK    2  A    between atoms: N_5  and  C_17
REMARK    3  A    between atoms: N_6  and  C_22
REMARK    4  A    between atoms: N_7  and  C_25
REMARK    5  A    between atoms: N_7  and  C_28
REMARK    6  A    between atoms: N_7  and  C_29
REMARK    7  A    between atoms: C_10  and  C_15
REMARK    8  A    between atoms: C_15  and  C_16
REMARK    9  A    between atoms: C_16  and  C_18
REMARK   10  A    between atoms: C_17  and  C_19
REMARK   11  A    between atoms: C_22  and  C_26
REMARK   12  A    between atoms: C_22  and  C_27
REMARK                            x       y       z     vdW  Elec       q    Type
REMARK                         _______ _______ _______ _____ _____    ______ ____
ROOT
ATOM      1  O   UNL     1      -6.281   3.586  26.083  0.00  0.00    -0.274 OA
ATOM      3  N   UNL     1      -3.297   2.315  24.405  0.00  0.00    -0.286 NA
ATOM      4  N   UNL     1      -4.116   4.260  26.255  0.00  0.00    -0.313 N 
ATOM      8  C   UNL     1      -4.740   2.540  24.568  0.00  0.00    +0.145 C 
ATOM      9  C   UNL     1      -4.110   0.208  24.813  0.00  0.00    +0.070 C 
ATOM     10  C   UNL     1      -2.480   3.509  24.588  0.00  0.00    +0.075 C 
ATOM     11  C   UNL     1      -5.323   1.139  24.813  0.00  0.00    +0.048 C 
ATOM     12  C   UNL     1      -2.956   1.129  25.185  0.00  0.00    +0.104 C 
ATOM     13  C   UNL     1      -2.708   4.115  25.965  0.00  0.00    +0.123 C 
ATOM     14  C   UNL     1      -5.108   3.483  25.709  0.00  0.00    +0.230 C 
ATOM     30  H   UNL     1      -4.377   4.898  27.000  0.00  0.00    +0.149 HD
ENDROOT
BRANCH   9   5
ATOM      5  N   UNL     1      -4.261  -0.925  25.714  0.00  0.00    -0.308 NA
ATOM     31  H   UNL     1      -4.062  -0.620  26.667  0.00  0.00    +0.123 HD
BRANCH   5  17
ATOM     17  C   UNL     1      -3.343  -2.000  25.359  0.00  0.00    +0.116 C 
BRANCH  17  19
ATOM     19  C   UNL     1      -2.097  -1.476  24.696  0.00  0.00    -0.033 A 
ATOM     20  C   UNL     1      -2.187  -0.793  23.483  0.00  0.00    +0.007 A 
ATOM     21  C   UNL     1      -0.852  -1.674  25.294  0.00  0.00    +0.007 A 
ATOM     23  C   UNL     1      -1.032  -0.308  22.868  0.00  0.00    +0.023 A 
ATOM     24  C   UNL     1       0.302  -1.189  24.678  0.00  0.00    +0.023 A 
ATOM     25  C   UNL     1       0.212  -0.507  23.466  0.00  0.00    +0.029 A 
BRANCH  25   7
ATOM      7  N   UNL     1       1.379  -0.016  22.845  0.00  0.00    -0.336 N 
ATOM     28  C   UNL     1       1.793  -0.526  21.553  0.00  0.00    +0.129 C 
ATOM     29  C   UNL     1       2.177   1.010  23.488  0.00  0.00    +0.129 C 
ENDBRANCH  25   7
ENDBRANCH  17  19
ENDBRANCH   5  17
ENDBRANCH   9   5
BRANCH  10  15
ATOM     15  C   UNL     1      -0.993   3.253  24.340  0.00  0.00    +0.029 C 
BRANCH  15  16
ATOM     16  C   UNL     1      -0.142   3.801  25.478  0.00  0.00    +0.097 C 
BRANCH  16  18
ATOM      2  O   UNL     1      -0.156   1.564  26.403  0.00  0.00    -0.276 OA
ATOM      6  N   UNL     1       1.108   3.208  27.445  0.00  0.00    -0.313 N 
ATOM     18  C   UNL     1       0.249   2.721  26.471  0.00  0.00    +0.213 C 
ATOM     32  H   UNL     1       1.434   4.169  27.383  0.00  0.00    +0.149 HD
BRANCH   6  22
ATOM     22  C   UNL     1       1.623   2.375  28.505  0.00  0.00    +0.067 C 
ATOM     26  C   UNL     1       0.759   2.511  29.752  0.00  0.00    +0.027 C 
ATOM     27  C   UNL     1       3.076   2.722  28.800  0.00  0.00    +0.027 C 
ENDBRANCH   6  22
ENDBRANCH  16  18
ENDBRANCH  15  16
ENDBRANCH  10  15
TORSDOF 8
ENDMDL
MODEL 6
REMARK VINA RESULT:      -0.5      2.252      4.481
REMARK  Name = 45360628
REMARK  12 active torsions:
REMARK  status: ('A' for Active; 'I' for Inactive)
REMARK    1  A    between atoms: N_5  and  C_9
REMARK    2  A    between atoms: N_5  and  C_17
REMARK    3  A    between atoms: N_6  and  C_22
REMARK    4  A    between atoms: N_7  and  C_25
REMARK    5  A    between atoms: N_7  and  C_28
REMARK    6  A    between atoms: N_7  and  C_29
REMARK    7  A    between atoms: C_10  and  C_15
REMARK    8  A    between atoms: C_15  and  C_16
REMARK    9  A    between atoms: C_16  and  C_18
REMARK   10  A    between atoms: C_17  and  C_19
REMARK   11  A    between atoms: C_22  and  C_26
REMARK   12  A    between atoms: C_22  and  C_27
REMARK                            x       y       z     vdW  Elec       q    Type
REMARK                         _______ _______ _______ _____ _____    ______ ____
ROOT
ATOM      1  O   UNL     1      -2.864   0.101  26.329  0.00  0.00    -0.274 OA
ATOM      3  N   UNL     1       0.170   0.870  24.450  0.00  0.00    -0.286 NA
ATOM      4  N   UNL     1      -2.376  -0.267  24.139  0.00  0.00    -0.313 N 
ATOM      8  C   UNL     1      -0.613   0.604  25.664  0.00  0.00    +0.145 C 
ATOM      9  C   UNL     1       0.185   2.893  25.533  0.00  0.00    +0.070 C 
ATOM     10  C   UNL     1      -0.053  -0.085  23.371  0.00  0.00    +0.075 C 
ATOM     11  C   UNL     1      -0.597   1.936  26.432  0.00  0.00    +0.048 C 
ATOM     12  C   UNL     1       0.022   2.290  24.144  0.00  0.00    +0.104 C 
ATOM     13  C   UNL     1      -1.523  -0.128  22.982  0.00  0.00    +0.123 C 
ATOM     14  C   UNL     1      -2.046   0.150  25.405  0.00  0.00    +0.230 C 
ATOM     30  H   UNL     1      -3.327  -0.587  23.984  0.00  0.00    +0.149 HD
ENDROOT
BRANCH   9   5
ATOM      5  N   UNL     1      -0.278   4.269  25.625  0.00  0.00    -0.308 NA
ATOM     31  H   UNL     1      -0.729   4.408  26.530  0.00  0.00    +0.123 HD
BRANCH   5  17
ATOM     17  C   UNL     1      -1.235   4.570  24.568  0.00  0.00    +0.116 C 
BRANCH  17  19
ATOM     19  C   UNL     1      -2.561   3.897  24.805  0.00  0.00    -0.033 A 
ATOM     20  C   UNL     1      -3.159   3.157  23.785  0.00  0.00    +0.007 A 
ATOM     21  C   UNL     1      -3.191   4.015  26.043  0.00  0.00    +0.007 A 
ATOM     23  C   UNL     1      -4.388   2.534  24.004  0.00  0.00    +0.023 A 
ATOM     24  C   UNL     1      -4.420   3.392  26.262  0.00  0.00    +0.023 A 
ATOM     25  C   UNL     1      -5.018   2.651  25.242  0.00  0.00    +0.029 A 
BRANCH  25   7
ATOM      7  N   UNL     1      -6.260   2.021  25.464  0.00  0.00    -0.336 N 
ATOM     28  C   UNL     1      -6.685   1.689  26.810  0.00  0.00    +0.129 C 
ATOM     29  C   UNL     1      -7.131   1.702  24.350  0.00  0.00    +0.129 C 
ENDBRANCH  25   7
ENDBRANCH  17  19
ENDBRANCH   5  17
ENDBRANCH   9   5
BRANCH  10  15
ATOM     15  C   UNL     1       0.831   0.180  22.152  0.00  0.00    +0.029 C 
BRANCH  15  16
ATOM     16  C   UNL     1       2.153  -0.567  22.258  0.00  0.00    +0.097 C 
BRANCH  16  18
ATOM      2  O   UNL     1       3.160   1.541  22.892  0.00  0.00    -0.276 OA
ATOM      6  N   UNL     1       4.429  -0.398  23.014  0.00  0.00    -0.313 N 
ATOM     18  C   UNL     1       3.277   0.327  22.751  0.00  0.00    +0.213 C 
ATOM     32  H   UNL     1       4.411  -1.410  22.923  0.00  0.00    +0.149 HD
BRANCH   6  22
ATOM     22  C   UNL     1       5.640   0.225  23.495  0.00  0.00    +0.067 C 
ATOM     26  C   UNL     1       6.862  -0.512  22.963  0.00  0.00    +0.027 C 
ATOM     27  C   UNL     1       5.646   0.279  25.017  0.00  0.00    +0.027 C 
ENDBRANCH   6  22
ENDBRANCH  16  18
ENDBRANCH  15  16
ENDBRANCH  10  15
TORSDOF 8
ENDMDL
MODEL 7
REMARK VINA RESULT:       0.2      1.953      5.080
REMARK  Name = 45360628
REMARK  12 active torsions:
REMARK  status: ('A' for Active; 'I' for Inactive)
REMARK    1  A    between atoms: N_5  and  C_9
REMARK    2  A    between atoms: N_5  and  C_17
REMARK    3  A    between atoms: N_6  and  C_22
REMARK    4  A    between atoms: N_7  and  C_25
REMARK    5  A    between atoms: N_7  and  C_28
REMARK    6  A    between atoms: N_7  and  C_29
REMARK    7  A    between atoms: C_10  and  C_15
REMARK    8  A    between atoms: C_15  and  C_16
REMARK    9  A    between atoms: C_16  and  C_18
REMARK   10  A    between atoms: C_17  and  C_19
REMARK   11  A    between atoms: C_22  and  C_26
REMARK   12  A    between atoms: C_22  and  C_27
REMARK                            x       y       z     vdW  Elec       q    Type
REMARK                         _______ _______ _______ _____ _____    ______ ____
ROOT
ATOM      1  O   UNL     1      -7.055   1.332  27.036  0.00  0.00    -0.274 OA
ATOM      3  N   UNL     1      -4.915   2.256  24.227  0.00  0.00    -0.286 NA
ATOM      4  N   UNL     1      -5.568   3.041  26.841  0.00  0.00    -0.313 N 
ATOM      8  C   UNL     1      -6.072   1.614  24.865  0.00  0.00    +0.145 C 
ATOM      9  C   UNL     1      -4.467   0.018  23.987  0.00  0.00    +0.070 C 
ATOM     10  C   UNL     1      -4.703   3.643  24.625  0.00  0.00    +0.075 C 
ATOM     11  C   UNL     1      -5.819   0.108  24.694  0.00  0.00    +0.048 C 
ATOM     12  C   UNL     1      -3.789   1.333  24.347  0.00  0.00    +0.104 C 
ATOM     13  C   UNL     1      -4.530   3.753  26.132  0.00  0.00    +0.123 C 
ATOM     14  C   UNL     1      -6.257   1.964  26.338  0.00  0.00    +0.230 C 
ATOM     30  H   UNL     1      -5.715   3.277  27.817  0.00  0.00    +0.149 HD
ENDROOT
BRANCH   9   5
ATOM      5  N   UNL     1      -3.697  -1.154  24.373  0.00  0.00    -0.308 NA
ATOM     31  H   UNL     1      -4.327  -1.846  24.780  0.00  0.00    +0.123 HD
BRANCH   5  17
ATOM     17  C   UNL     1      -2.676  -0.810  25.353  0.00  0.00    +0.116 C 
BRANCH  17  19
ATOM     19  C   UNL     1      -1.303  -0.753  24.736  0.00  0.00    -0.033 A 
ATOM     20  C   UNL     1      -0.285  -1.573  25.223  0.00  0.00    +0.007 A 
ATOM     21  C   UNL     1      -1.050   0.120  23.677  0.00  0.00    +0.007 A 
ATOM     23  C   UNL     1       0.986  -1.520  24.651  0.00  0.00    +0.023 A 
ATOM     24  C   UNL     1       0.221   0.172  23.106  0.00  0.00    +0.023 A 
ATOM     25  C   UNL     1       1.239  -0.647  23.593  0.00  0.00    +0.029 A 
BRANCH  25   7
ATOM      7  N   UNL     1       2.525  -0.595  23.015  0.00  0.00    -0.336 N 
ATOM     28  C   UNL     1       2.744   0.132  21.780  0.00  0.00    +0.129 C 
ATOM     29  C   UNL     1       3.644  -1.261  23.651  0.00  0.00    +0.129 C 
ENDBRANCH  25   7
ENDBRANCH  17  19
ENDBRANCH   5  17
ENDBRANCH   9   5
BRANCH  10  15
ATOM     15  C   UNL     1      -3.536   4.301  23.887  0.00  0.00    +0.029 C 
BRANCH  15  16
ATOM     16  C   UNL     1      -2.820   5.308  24.776  0.00  0.00    +0.097 C 
BRANCH  16  18
ATOM      2  O   UNL     1      -0.434   5.711  24.711  0.00  0.00    -0.276 OA
ATOM      6  N   UNL     1      -1.214   3.677  25.512  0.00  0.00    -0.313 N 
ATOM     18  C   UNL     1      -1.359   4.951  24.984  0.00  0.00    +0.213 C 
ATOM     32  H   UNL     1      -2.043   3.144  25.761  0.00  0.00    +0.149 HD
BRANCH   6  22
ATOM     22  C   UNL     1       0.080   3.105  25.800  0.00  0.00    +0.067 C 
ATOM     26  C   UNL     1       0.727   2.589  24.521  0.00  0.00    +0.027 C 
ATOM     27  C   UNL     1      -0.043   2.001  26.842  0.00  0.00    +0.027 C 
ENDBRANCH   6  22
ENDBRANCH  16  18
ENDBRANCH  15  16
ENDBRANCH  10  15
TORSDOF 8
ENDMDL
MODEL 8
REMARK VINA RESULT:       0.7      2.104      6.197
REMARK  Name = 45360628
REMARK  12 active torsions:
REMARK  status: ('A' for Active; 'I' for Inactive)
REMARK    1  A    between atoms: N_5  and  C_9
REMARK    2  A    between atoms: N_5  and  C_17
REMARK    3  A    between atoms: N_6  and  C_22
REMARK    4  A    between atoms: N_7  and  C_25
REMARK    5  A    between atoms: N_7  and  C_28
REMARK    6  A    between atoms: N_7  and  C_29
REMARK    7  A    between atoms: C_10  and  C_15
REMARK    8  A    between atoms: C_15  and  C_16
REMARK    9  A    between atoms: C_16  and  C_18
REMARK   10  A    between atoms: C_17  and  C_19
REMARK   11  A    between atoms: C_22  and  C_26
REMARK   12  A    between atoms: C_22  and  C_27
REMARK                            x       y       z     vdW  Elec       q    Type
REMARK                         _______ _______ _______ _____ _____    ______ ____
ROOT
ATOM      1  O   UNL     1       2.962   0.299  22.370  0.00  0.00    -0.274 OA
ATOM      3  N   UNL     1      -0.215  -0.138  24.114  0.00  0.00    -0.286 NA
ATOM      4  N   UNL     1       2.257  -1.400  23.706  0.00  0.00    -0.313 N 
ATOM      8  C   UNL     1       0.673   0.415  23.083  0.00  0.00    +0.145 C 
ATOM      9  C   UNL     1      -0.070   2.080  24.686  0.00  0.00    +0.070 C 
ATOM     10  C   UNL     1      -0.122  -1.584  24.274  0.00  0.00    +0.075 C 
ATOM     11  C   UNL     1       0.767   1.912  23.418  0.00  0.00    +0.048 C 
ATOM     12  C   UNL     1      -0.057   0.691  25.307  0.00  0.00    +0.104 C 
ATOM     13  C   UNL     1       1.302  -2.002  24.607  0.00  0.00    +0.123 C 
ATOM     14  C   UNL     1       2.062  -0.215  23.041  0.00  0.00    +0.230 C 
ATOM     30  H   UNL     1       3.180  -1.821  23.653  0.00  0.00    +0.149 HD
ENDROOT
BRANCH   9   5
ATOM      5  N   UNL     1       0.438   3.116  25.572  0.00  0.00    -0.308 NA
ATOM     31  H   UNL     1       0.233   2.857  26.537  0.00  0.00    +0.123 HD
BRANCH   5  17
ATOM     17  C   UNL     1      -0.185   4.402  25.285  0.00  0.00    +0.116 C 
BRANCH  17  19
ATOM     19  C   UNL     1      -1.688   4.323  25.350  0.00  0.00    -0.033 A 
ATOM     20  C   UNL     1      -2.311   3.850  26.504  0.00  0.00    +0.007 A 
ATOM     21  C   UNL     1      -2.455   4.720  24.255  0.00  0.00    +0.007 A 
ATOM     23  C   UNL     1      -3.703   3.776  26.565  0.00  0.00    +0.023 A 
ATOM     24  C   UNL     1      -3.847   4.646  24.316  0.00  0.00    +0.023 A 
ATOM     25  C   UNL     1      -4.471   4.174  25.471  0.00  0.00    +0.029 A 
BRANCH  25   7
ATOM      7  N   UNL     1      -5.878   4.100  25.532  0.00  0.00    -0.336 N 
ATOM     28  C   UNL     1      -6.537   2.829  25.763  0.00  0.00    +0.129 C 
ATOM     29  C   UNL     1      -6.683   5.294  25.371  0.00  0.00    +0.129 C 
ENDBRANCH  25   7
ENDBRANCH  17  19
ENDBRANCH   5  17
ENDBRANCH   9   5
BRANCH  10  15
ATOM     15  C   UNL     1      -1.111  -2.132  25.303  0.00  0.00    +0.029 C 
BRANCH  15  16
ATOM     16  C   UNL     1      -2.195  -2.967  24.636  0.00  0.00    +0.097 C 
BRANCH  16  18
ATOM      2  O   UNL     1      -4.452  -2.600  23.840  0.00  0.00    -0.276 OA
ATOM      6  N   UNL     1      -3.090  -0.768  24.255  0.00  0.00    -0.313 N 
ATOM     18  C   UNL     1      -3.379  -2.123  24.198  0.00  0.00    +0.213 C 
ATOM     32  H   UNL     1      -2.191  -0.466  24.621  0.00  0.00    +0.149 HD
BRANCH   6  22
ATOM     22  C   UNL     1      -4.054   0.242  23.887  0.00  0.00    +0.067 C 
ATOM     26  C   UNL     1      -3.350   1.448  23.278  0.00  0.00    +0.027 C 
ATOM     27  C   UNL     1      -4.894   0.643  25.092  0.00  0.00    +0.027 C 
ENDBRANCH   6  22
ENDBRANCH  16  18
ENDBRANCH  15  16
ENDBRANCH  10  15
TORSDOF 8
ENDMDL
