MODEL 1
REMARK VINA RESULT:      -1.6      0.000      0.000
REMARK  Name = 38030436
REMARK  10 active torsions:
REMARK  status: ('A' for Active; 'I' for Inactive)
REMARK    1  A    between atoms: N_2  and  C_11
REMARK    2  A    between atoms: C_6  and  C_10
REMARK    3  A    between atoms: C_7  and  C_11
REMARK    4  A    between atoms: C_9  and  C_17
REMARK    5  A    between atoms: C_10  and  C_20
REMARK    6  A    between atoms: C_10  and  C_21
REMARK    7  A    between atoms: C_13  and  C_22
REMARK    8  A    between atoms: C_16  and  C_23
REMARK    9  A    between atoms: C_17  and  C_24
REMARK   10  A    between atoms: C_25  and  C_26
REMARK                            x       y       z     vdW  Elec       q    Type
REMARK                         _______ _______ _______ _____ _____    ______ ____
ROOT
ATOM      6  C   UNL     1      -2.663   2.701  25.833  0.00  0.00    +0.000 C 
ATOM      7  C   UNL     1      -4.171   2.711  25.486  0.00  0.00    +0.029 C 
ATOM      8  C   UNL     1      -1.869   1.943  24.760  0.00  0.00    +0.012 C 
ATOM      9  C   UNL     1      -2.065   2.511  23.339  0.00  0.00    +0.024 C 
ATOM     12  C   UNL     1      -4.427   3.009  24.031  0.00  0.00    -0.023 C 
ATOM     13  C   UNL     1      -3.499   2.936  23.060  0.00  0.00    -0.073 C 
ATOM     22  C   UNL     1      -3.842   3.338  21.651  0.00  0.00    +0.039 C 
ENDROOT
BRANCH   6  10
ATOM     10  C   UNL     1      -2.122   4.125  26.021  0.00  0.00    -0.013 C 
ATOM     20  C   UNL     1      -0.964   4.386  25.062  0.00  0.00    +0.007 C 
ATOM     21  C   UNL     1      -3.235   5.148  25.815  0.00  0.00    +0.007 C 
ENDBRANCH   6  10
BRANCH   7  11
ATOM     11  C   UNL     1      -4.846   1.387  25.857  0.00  0.00    +0.092 C 
BRANCH  11   2
ATOM      2  N   UNL     1      -4.110   0.256  25.290  0.00  0.00    -0.302 NA
ATOM     14  C   UNL     1      -4.877  -0.360  24.198  0.00  0.00    +0.084 C 
ATOM     15  C   UNL     1      -3.793  -0.727  26.335  0.00  0.00    +0.084 C 
ATOM     16  C   UNL     1      -3.705  -2.565  24.601  0.00  0.00    -0.012 C 
ATOM     18  C   UNL     1      -4.098  -1.512  23.560  0.00  0.00    +0.018 C 
ATOM     19  C   UNL     1      -2.977  -1.891  25.769  0.00  0.00    +0.018 C 
ATOM     23  C   UNL     1      -2.844  -3.660  23.977  0.00  0.00    +0.007 C 
ENDBRANCH  11   2
ENDBRANCH   7  11
BRANCH   9  17
ATOM     17  C   UNL     1      -1.538   1.488  22.326  0.00  0.00    +0.105 C 
BRANCH  17  24
ATOM      1  O   UNL     1       0.780   0.837  22.725  0.00  0.00    -0.420 OA
ATOM      3  N   UNL     1      -0.728  -0.497  23.701  0.00  0.00    -0.112 NA
ATOM      4  N   UNL     1       0.530  -0.979  24.009  0.00  0.00    -0.107 NA
ATOM     24  C   UNL     1      -0.535   0.563  22.952  0.00  0.00    +0.218 A 
ATOM     25  C   UNL     1       1.379  -0.170  23.419  0.00  0.00    +0.250 A 
BRANCH  25  26
ATOM      5  N   UNL     1       4.874  -1.373  23.813  0.00  0.00    -0.263 NA
ATOM     26  C   UNL     1       2.813  -0.183  23.392  0.00  0.00    +0.057 A 
ATOM     27  C   UNL     1       3.532   0.920  22.943  0.00  0.00    +0.016 A 
ATOM     28  C   UNL     1       3.525  -1.295  23.812  0.00  0.00    +0.124 A 
ATOM     29  C   UNL     1       4.922   0.877  22.930  0.00  0.00    +0.020 A 
ATOM     30  C   UNL     1       5.540  -0.282  23.370  0.00  0.00    +0.111 A 
ENDBRANCH  25  26
ENDBRANCH  17  24
ENDBRANCH   9  17
TORSDOF 6
ENDMDL
MODEL 2
REMARK VINA RESULT:      -1.0      1.829      2.805
REMARK  Name = 38030436
REMARK  10 active torsions:
REMARK  status: ('A' for Active; 'I' for Inactive)
REMARK    1  A    between atoms: N_2  and  C_11
REMARK    2  A    between atoms: C_6  and  C_10
REMARK    3  A    between atoms: C_7  and  C_11
REMARK    4  A    between atoms: C_9  and  C_17
REMARK    5  A    between atoms: C_10  and  C_20
REMARK    6  A    between atoms: C_10  and  C_21
REMARK    7  A    between atoms: C_13  and  C_22
REMARK    8  A    between atoms: C_16  and  C_23
REMARK    9  A    between atoms: C_17  and  C_24
REMARK   10  A    between atoms: C_25  and  C_26
REMARK                            x       y       z     vdW  Elec       q    Type
REMARK                         _______ _______ _______ _____ _____    ______ ____
ROOT
ATOM      6  C   UNL     1      -4.999   2.434  26.192  0.00  0.00    +0.000 C 
ATOM      7  C   UNL     1      -4.751   1.180  25.321  0.00  0.00    +0.029 C 
ATOM      8  C   UNL     1      -3.799   3.389  26.117  0.00  0.00    +0.012 C 
ATOM      9  C   UNL     1      -3.453   3.823  24.676  0.00  0.00    +0.024 C 
ATOM     12  C   UNL     1      -4.160   1.517  23.976  0.00  0.00    -0.023 C 
ATOM     13  C   UNL     1      -3.587   2.694  23.665  0.00  0.00    -0.073 C 
ATOM     22  C   UNL     1      -3.105   2.957  22.264  0.00  0.00    +0.039 C 
ENDROOT
BRANCH   6  10
ATOM     10  C   UNL     1      -6.299   3.145  25.791  0.00  0.00    -0.013 C 
ATOM     20  C   UNL     1      -6.013   4.589  25.387  0.00  0.00    +0.007 C 
ATOM     21  C   UNL     1      -6.989   2.394  24.657  0.00  0.00    +0.007 C 
ENDBRANCH   6  10
BRANCH   7  11
ATOM     11  C   UNL     1      -3.844   0.169  26.031  0.00  0.00    +0.092 C 
BRANCH  11   2
ATOM      2  N   UNL     1      -3.198  -0.716  25.061  0.00  0.00    -0.302 NA
ATOM     14  C   UNL     1      -3.951  -1.970  24.928  0.00  0.00    +0.084 C 
ATOM     15  C   UNL     1      -1.804  -0.973  25.449  0.00  0.00    +0.084 C 
ATOM     16  C   UNL     1      -1.848  -3.172  24.203  0.00  0.00    -0.012 C 
ATOM     18  C   UNL     1      -3.317  -2.885  23.879  0.00  0.00    +0.018 C 
ATOM     19  C   UNL     1      -1.098  -1.853  24.416  0.00  0.00    +0.018 C 
ATOM     23  C   UNL     1      -1.195  -4.003  23.101  0.00  0.00    +0.007 C 
ENDBRANCH  11   2
ENDBRANCH   7  11
BRANCH   9  17
ATOM     17  C   UNL     1      -2.057   4.459  24.679  0.00  0.00    +0.105 C 
BRANCH  17  24
ATOM      1  O   UNL     1      -0.388   2.885  23.850  0.00  0.00    -0.420 OA
ATOM      3  N   UNL     1      -0.529   2.980  26.081  0.00  0.00    -0.112 NA
ATOM      4  N   UNL     1       0.447   2.057  25.754  0.00  0.00    -0.107 NA
ATOM     24  C   UNL     1      -0.988   3.437  24.940  0.00  0.00    +0.218 A 
ATOM     25  C   UNL     1       0.495   2.035  24.442  0.00  0.00    +0.250 A 
BRANCH  25  26
ATOM      5  N   UNL     1       1.500  -0.507  21.922  0.00  0.00    -0.263 NA
ATOM     26  C   UNL     1       1.319   1.267  23.554  0.00  0.00    +0.057 A 
ATOM     27  C   UNL     1       2.683   1.516  23.446  0.00  0.00    +0.016 A 
ATOM     28  C   UNL     1       0.781   0.253  22.778  0.00  0.00    +0.124 A 
ATOM     29  C   UNL     1       3.456   0.755  22.576  0.00  0.00    +0.020 A 
ATOM     30  C   UNL     1       2.822  -0.236  21.844  0.00  0.00    +0.111 A 
ENDBRANCH  25  26
ENDBRANCH  17  24
ENDBRANCH   9  17
TORSDOF 6
ENDMDL
MODEL 3
REMARK VINA RESULT:      -0.1      1.384      4.209
REMARK  Name = 38030436
REMARK  10 active torsions:
REMARK  status: ('A' for Active; 'I' for Inactive)
REMARK    1  A    between atoms: N_2  and  C_11
REMARK    2  A    between atoms: C_6  and  C_10
REMARK    3  A    between atoms: C_7  and  C_11
REMARK    4  A    between atoms: C_9  and  C_17
REMARK    5  A    between atoms: C_10  and  C_20
REMARK    6  A    between atoms: C_10  and  C_21
REMARK    7  A    between atoms: C_13  and  C_22
REMARK    8  A    between atoms: C_16  and  C_23
REMARK    9  A    between atoms: C_17  and  C_24
REMARK   10  A    between atoms: C_25  and  C_26
REMARK                            x       y       z     vdW  Elec       q    Type
REMARK                         _______ _______ _______ _____ _____    ______ ____
ROOT
ATOM      6  C   UNL     1      -4.152  -0.685  24.133  0.00  0.00    +0.000 C 
ATOM      7  C   UNL     1      -4.433   0.299  25.293  0.00  0.00    +0.029 C 
ATOM      8  C   UNL     1      -3.109  -0.099  23.171  0.00  0.00    +0.012 C 
ATOM      9  C   UNL     1      -1.780   0.273  23.863  0.00  0.00    +0.024 C 
ATOM     12  C   UNL     1      -3.173   0.909  25.853  0.00  0.00    -0.023 C 
ATOM     13  C   UNL     1      -1.978   0.898  25.236  0.00  0.00    -0.073 C 
ATOM     22  C   UNL     1      -0.764   1.461  25.923  0.00  0.00    +0.039 C 
ENDROOT
BRANCH   6  10
ATOM     10  C   UNL     1      -3.711  -2.059  24.660  0.00  0.00    -0.013 C 
ATOM     20  C   UNL     1      -4.400  -3.174  23.878  0.00  0.00    +0.007 C 
ATOM     21  C   UNL     1      -2.195  -2.199  24.579  0.00  0.00    +0.007 C 
ENDBRANCH   6  10
BRANCH   7  11
ATOM     11  C   UNL     1      -5.388   1.418  24.866  0.00  0.00    +0.092 C 
BRANCH  11   2
ATOM      2  N   UNL     1      -4.715   2.716  24.909  0.00  0.00    -0.302 NA
ATOM     14  C   UNL     1      -3.839   2.880  23.741  0.00  0.00    +0.084 C 
ATOM     15  C   UNL     1      -3.961   2.863  26.162  0.00  0.00    +0.084 C 
ATOM     16  C   UNL     1      -2.385   4.491  25.040  0.00  0.00    -0.012 C 
ATOM     18  C   UNL     1      -3.167   4.255  23.744  0.00  0.00    +0.018 C 
ATOM     19  C   UNL     1      -3.295   4.238  26.247  0.00  0.00    +0.018 C 
ATOM     23  C   UNL     1      -1.801   5.901  25.080  0.00  0.00    +0.007 C 
ENDBRANCH  11   2
ENDBRANCH   7  11
BRANCH   9  17
ATOM     17  C   UNL     1      -0.967   1.163  22.914  0.00  0.00    +0.105 C 
BRANCH  17  24
ATOM      1  O   UNL     1       1.380   0.579  23.233  0.00  0.00    -0.420 OA
ATOM      3  N   UNL     1       0.477  -0.248  21.361  0.00  0.00    -0.112 NA
ATOM      4  N   UNL     1       1.798  -0.652  21.413  0.00  0.00    -0.107 NA
ATOM     24  C   UNL     1       0.278   0.468  22.443  0.00  0.00    +0.218 A 
ATOM     25  C   UNL     1       2.285  -0.147  22.522  0.00  0.00    +0.250 A 
BRANCH  25  26
ATOM      5  N   UNL     1       5.266  -1.569  24.229  0.00  0.00    -0.263 NA
ATOM     26  C   UNL     1       3.600  -0.241  23.089  0.00  0.00    +0.057 A 
ATOM     27  C   UNL     1       4.470   0.844  23.064  0.00  0.00    +0.016 A 
ATOM     28  C   UNL     1       4.042  -1.414  23.678  0.00  0.00    +0.124 A 
ATOM     29  C   UNL     1       5.739   0.722  23.621  0.00  0.00    +0.020 A 
ATOM     30  C   UNL     1       6.085  -0.494  24.186  0.00  0.00    +0.111 A 
ENDBRANCH  25  26
ENDBRANCH  17  24
ENDBRANCH   9  17
TORSDOF 6
ENDMDL
MODEL 4
REMARK VINA RESULT:       0.1      2.134      5.668
REMARK  Name = 38030436
REMARK  10 active torsions:
REMARK  status: ('A' for Active; 'I' for Inactive)
REMARK    1  A    between atoms: N_2  and  C_11
REMARK    2  A    between atoms: C_6  and  C_10
REMARK    3  A    between atoms: C_7  and  C_11
REMARK    4  A    between atoms: C_9  and  C_17
REMARK    5  A    between atoms: C_10  and  C_20
REMARK    6  A    between atoms: C_10  and  C_21
REMARK    7  A    between atoms: C_13  and  C_22
REMARK    8  A    between atoms: C_16  and  C_23
REMARK    9  A    between atoms: C_17  and  C_24
REMARK   10  A    between atoms: C_25  and  C_26
REMARK                            x       y       z     vdW  Elec       q    Type
REMARK                         _______ _______ _______ _____ _____    ______ ____
ROOT
ATOM      6  C   UNL     1      -0.775   3.359  24.361  0.00  0.00    +0.000 C 
ATOM      7  C   UNL     1      -0.792   2.824  25.812  0.00  0.00    +0.029 C 
ATOM      8  C   UNL     1      -2.199   3.412  23.790  0.00  0.00    +0.012 C 
ATOM      9  C   UNL     1      -3.167   4.262  24.640  0.00  0.00    +0.024 C 
ATOM     12  C   UNL     1      -1.896   3.430  26.640  0.00  0.00    -0.023 C 
ATOM     13  C   UNL     1      -2.958   4.085  26.137  0.00  0.00    -0.073 C 
ATOM     22  C   UNL     1      -3.960   4.726  27.058  0.00  0.00    +0.039 C 
ENDROOT
BRANCH   6  10
ATOM     10  C   UNL     1      -0.093   4.732  24.279  0.00  0.00    -0.013 C 
ATOM     20  C   UNL     1       0.311   5.041  22.840  0.00  0.00    +0.007 C 
ATOM     21  C   UNL     1      -1.015   5.818  24.826  0.00  0.00    +0.007 C 
ENDBRANCH   6  10
BRANCH   7  11
ATOM     11  C   UNL     1      -0.913   1.297  25.850  0.00  0.00    +0.092 C 
BRANCH  11   2
ATOM      2  N   UNL     1       0.060   0.679  24.948  0.00  0.00    -0.302 NA
ATOM     14  C   UNL     1       0.958   1.697  24.385  0.00  0.00    +0.084 C 
ATOM     15  C   UNL     1      -0.627  -0.068  23.885  0.00  0.00    +0.084 C 
ATOM     16  C   UNL     1       1.368   0.235  22.362  0.00  0.00    -0.012 C 
ATOM     18  C   UNL     1       2.014   1.060  23.480  0.00  0.00    +0.018 C 
ATOM     19  C   UNL     1       0.376  -0.765  22.965  0.00  0.00    +0.018 C 
ATOM     23  C   UNL     1       2.426  -0.477  21.524  0.00  0.00    +0.007 C 
ENDBRANCH  11   2
ENDBRANCH   7  11
BRANCH   9  17
ATOM     17  C   UNL     1      -4.604   3.956  24.198  0.00  0.00    +0.105 C 
BRANCH  17  24
ATOM      1  O   UNL     1      -4.189   1.562  24.422  0.00  0.00    -0.420 OA
ATOM      3  N   UNL     1      -6.147   2.236  25.269  0.00  0.00    -0.112 NA
ATOM      4  N   UNL     1      -6.045   0.871  25.463  0.00  0.00    -0.107 NA
ATOM     24  C   UNL     1      -5.042   2.596  24.659  0.00  0.00    +0.218 A 
ATOM     25  C   UNL     1      -4.887   0.521  24.954  0.00  0.00    +0.250 A 
BRANCH  25  26
ATOM      5  N   UNL     1      -3.883  -2.806  23.634  0.00  0.00    -0.263 NA
ATOM     26  C   UNL     1      -4.256  -0.764  24.873  0.00  0.00    +0.057 A 
ATOM     27  C   UNL     1      -3.433  -1.225  25.895  0.00  0.00    +0.016 A 
ATOM     28  C   UNL     1      -4.447  -1.586  23.773  0.00  0.00    +0.124 A 
ATOM     29  C   UNL     1      -2.835  -2.476  25.788  0.00  0.00    +0.020 A 
ATOM     30  C   UNL     1      -3.090  -3.220  24.648  0.00  0.00    +0.111 A 
ENDBRANCH  25  26
ENDBRANCH  17  24
ENDBRANCH   9  17
TORSDOF 6
ENDMDL
MODEL 5
REMARK VINA RESULT:       1.6      2.280      5.874
REMARK  Name = 38030436
REMARK  10 active torsions:
REMARK  status: ('A' for Active; 'I' for Inactive)
REMARK    1  A    between atoms: N_2  and  C_11
REMARK    2  A    between atoms: C_6  and  C_10
REMARK    3  A    between atoms: C_7  and  C_11
REMARK    4  A    between atoms: C_9  and  C_17
REMARK    5  A    between atoms: C_10  and  C_20
REMARK    6  A    between atoms: C_10  and  C_21
REMARK    7  A    between atoms: C_13  and  C_22
REMARK    8  A    between atoms: C_16  and  C_23
REMARK    9  A    between atoms: C_17  and  C_24
REMARK   10  A    between atoms: C_25  and  C_26
REMARK                            x       y       z     vdW  Elec       q    Type
REMARK                         _______ _______ _______ _____ _____    ______ ____
ROOT
ATOM      6  C   UNL     1      -3.656  -1.897  23.491  0.00  0.00    +0.000 C 
ATOM      7  C   UNL     1      -4.103  -0.660  24.304  0.00  0.00    +0.029 C 
ATOM      8  C   UNL     1      -2.131  -2.061  23.554  0.00  0.00    +0.012 C 
ATOM      9  C   UNL     1      -1.587  -2.168  24.994  0.00  0.00    +0.024 C 
ATOM     12  C   UNL     1      -3.405  -0.560  25.636  0.00  0.00    -0.023 C 
ATOM     13  C   UNL     1      -2.289  -1.233  25.968  0.00  0.00    -0.073 C 
ATOM     22  C   UNL     1      -1.723  -1.125  27.357  0.00  0.00    +0.039 C 
ENDROOT
BRANCH   6  10
ATOM     10  C   UNL     1      -4.371  -3.169  23.969  0.00  0.00    -0.013 C 
ATOM     20  C   UNL     1      -5.634  -3.411  23.147  0.00  0.00    +0.007 C 
ATOM     21  C   UNL     1      -3.433  -4.370  23.885  0.00  0.00    +0.007 C 
ENDBRANCH   6  10
BRANCH   7  11
ATOM     11  C   UNL     1      -3.886   0.640  23.522  0.00  0.00    +0.092 C 
BRANCH  11   2
ATOM      2  N   UNL     1      -4.224   1.801  24.346  0.00  0.00    -0.302 NA
ATOM     14  C   UNL     1      -5.543   1.623  24.968  0.00  0.00    +0.084 C 
ATOM     15  C   UNL     1      -4.178   3.031  23.543  0.00  0.00    +0.084 C 
ATOM     16  C   UNL     1      -5.830   4.132  25.109  0.00  0.00    -0.012 C 
ATOM     18  C   UNL     1      -5.889   2.806  25.874  0.00  0.00    +0.018 C 
ATOM     19  C   UNL     1      -4.477   4.261  24.401  0.00  0.00    +0.018 C 
ATOM     23  C   UNL     1      -6.078   5.315  26.040  0.00  0.00    +0.007 C 
ENDBRANCH  11   2
ENDBRANCH   7  11
BRANCH   9  17
ATOM     17  C   UNL     1      -0.068  -1.963  24.960  0.00  0.00    +0.105 C 
BRANCH  17  24
ATOM      1  O   UNL     1      -0.412   0.452  24.962  0.00  0.00    -0.420 OA
ATOM      3  N   UNL     1       1.198  -0.242  23.573  0.00  0.00    -0.112 NA
ATOM      4  N   UNL     1       1.112   1.134  23.472  0.00  0.00    -0.107 NA
ATOM     24  C   UNL     1       0.291  -0.596  24.453  0.00  0.00    +0.218 A 
ATOM     25  C   UNL     1       0.160   1.496  24.301  0.00  0.00    +0.250 A 
BRANCH  25  26
ATOM      5  N   UNL     1      -0.496   5.147  24.067  0.00  0.00    -0.263 NA
ATOM     26  C   UNL     1      -0.361   2.796  24.610  0.00  0.00    +0.057 A 
ATOM     27  C   UNL     1      -1.203   2.991  25.700  0.00  0.00    +0.016 A 
ATOM     28  C   UNL     1      -0.040   3.897  23.832  0.00  0.00    +0.124 A 
ATOM     29  C   UNL     1      -1.692   4.264  25.974  0.00  0.00    +0.020 A 
ATOM     30  C   UNL     1      -1.312   5.298  25.135  0.00  0.00    +0.111 A 
ENDBRANCH  25  26
ENDBRANCH  17  24
ENDBRANCH   9  17
TORSDOF 6
ENDMDL
MODEL 6
REMARK VINA RESULT:       1.8      2.738      6.354
REMARK  Name = 38030436
REMARK  10 active torsions:
REMARK  status: ('A' for Active; 'I' for Inactive)
REMARK    1  A    between atoms: N_2  and  C_11
REMARK    2  A    between atoms: C_6  and  C_10
REMARK    3  A    between atoms: C_7  and  C_11
REMARK    4  A    between atoms: C_9  and  C_17
REMARK    5  A    between atoms: C_10  and  C_20
REMARK    6  A    between atoms: C_10  and  C_21
REMARK    7  A    between atoms: C_13  and  C_22
REMARK    8  A    between atoms: C_16  and  C_23
REMARK    9  A    between atoms: C_17  and  C_24
REMARK   10  A    between atoms: C_25  and  C_26
REMARK                            x       y       z     vdW  Elec       q    Type
REMARK                         _______ _______ _______ _____ _____    ______ ____
ROOT
ATOM      6  C   UNL     1      -0.694   0.466  24.176  0.00  0.00    +0.000 C 
ATOM      7  C   UNL     1      -1.137   0.224  25.638  0.00  0.00    +0.029 C 
ATOM      8  C   UNL     1      -0.583   1.970  23.888  0.00  0.00    +0.012 C 
ATOM      9  C   UNL     1       0.380   2.705  24.845  0.00  0.00    +0.024 C 
ATOM     12  C   UNL     1      -0.410   1.110  26.617  0.00  0.00    -0.023 C 
ATOM     13  C   UNL     1       0.282   2.214  26.282  0.00  0.00    -0.073 C 
ATOM     22  C   UNL     1       1.044   2.979  27.330  0.00  0.00    +0.039 C 
ENDROOT
BRANCH   6  10
ATOM     10  C   UNL     1       0.623  -0.258  23.863  0.00  0.00    -0.013 C 
ATOM     20  C   UNL     1       0.558  -1.707  24.336  0.00  0.00    +0.007 C 
ATOM     21  C   UNL     1       0.927  -0.189  22.370  0.00  0.00    +0.007 C 
ENDBRANCH   6  10
BRANCH   7  11
ATOM     11  C   UNL     1      -2.647   0.416  25.811  0.00  0.00    +0.092 C 
BRANCH  11   2
ATOM      2  N   UNL     1      -3.375  -0.766  25.347  0.00  0.00    -0.302 NA
ATOM     14  C   UNL     1      -2.528  -1.962  25.448  0.00  0.00    +0.084 C 
ATOM     15  C   UNL     1      -3.853  -0.568  23.971  0.00  0.00    +0.084 C 
ATOM     16  C   UNL     1      -3.848  -3.069  23.596  0.00  0.00    -0.012 C 
ATOM     18  C   UNL     1      -3.292  -3.216  25.016  0.00  0.00    +0.018 C 
ATOM     19  C   UNL     1      -4.662  -1.775  23.491  0.00  0.00    +0.018 C 
ATOM     23  C   UNL     1      -4.692  -4.280  23.209  0.00  0.00    +0.007 C 
ENDBRANCH  11   2
ENDBRANCH   7  11
BRANCH   9  17
ATOM     17  C   UNL     1       0.144   4.214  24.713  0.00  0.00    +0.105 C 
BRANCH  17  24
ATOM      1  O   UNL     1      -2.178   3.541  25.041  0.00  0.00    -0.420 OA
ATOM      3  N   UNL     1      -1.838   5.749  25.164  0.00  0.00    -0.112 NA
ATOM      4  N   UNL     1      -3.185   5.513  25.367  0.00  0.00    -0.107 NA
ATOM     24  C   UNL     1      -1.290   4.571  24.978  0.00  0.00    +0.218 A 
ATOM     25  C   UNL     1      -3.338   4.211  25.287  0.00  0.00    +0.250 A 
BRANCH  25  26
ATOM      5  N   UNL     1      -6.321   2.592  26.802  0.00  0.00    -0.263 NA
ATOM     26  C   UNL     1      -4.515   3.403  25.415  0.00  0.00    +0.057 A 
ATOM     27  C   UNL     1      -4.998   2.664  24.340  0.00  0.00    +0.016 A 
ATOM     28  C   UNL     1      -5.206   3.333  26.614  0.00  0.00    +0.124 A 
ATOM     29  C   UNL     1      -6.143   1.889  24.496  0.00  0.00    +0.020 A 
ATOM     30  C   UNL     1      -6.761   1.887  25.735  0.00  0.00    +0.111 A 
ENDBRANCH  25  26
ENDBRANCH  17  24
ENDBRANCH   9  17
TORSDOF 6
ENDMDL
