MODEL 1
REMARK VINA RESULT:       3.5      0.000      0.000
REMARK  Name = 26745474
REMARK  9 active torsions:
REMARK  status: ('A' for Active; 'I' for Inactive)
REMARK    1  A    between atoms: S_2  and  N_8
REMARK    2  A    between atoms: S_2  and  C_19
REMARK    3  A    between atoms: O_5  and  C_16
REMARK    4  A    between atoms: O_5  and  C_28
REMARK    5  A    between atoms: N_9  and  C_17
REMARK    6  A    between atoms: C_11  and  C_16
REMARK    7  A    between atoms: C_17  and  C_20
REMARK    8  A    between atoms: C_27  and  C_32
REMARK    9  A    between atoms: C_32  and  C_33
REMARK                            x       y       z     vdW  Elec       q    Type
REMARK                         _______ _______ _______ _____ _____    ______ ____
ROOT
ATOM      8  N   UNL     1      -4.321   3.018  25.311  0.00  0.00    -0.157 NA
ATOM      9  N   UNL     1      -0.627   3.551  25.559  0.00  0.00    -0.328 N 
ATOM     10  N   UNL     1      -1.120   5.653  24.980  0.00  0.00    -0.240 NA
ATOM     11  C   UNL     1      -4.543   4.143  24.332  0.00  0.00    +0.194 C 
ATOM     12  C   UNL     1      -2.922   2.456  25.377  0.00  0.00    +0.165 C 
ATOM     13  C   UNL     1      -3.605   5.338  24.607  0.00  0.00    +0.089 C 
ATOM     14  C   UNL     1      -1.966   3.577  25.309  0.00  0.00    +0.057 A 
ATOM     15  C   UNL     1      -2.243   4.875  24.952  0.00  0.00    +0.066 A 
ATOM     18  C   UNL     1      -0.161   4.825  25.349  0.00  0.00    +0.200 A 
ENDROOT
BRANCH   8   2
ATOM      2  S   UNL     1      -5.582   1.867  25.454  0.00  0.00    +0.062 S 
ATOM      3  O   UNL     1      -6.516   2.054  24.366  0.00  0.00    -0.153 OA
ATOM      4  O   UNL     1      -6.032   1.833  26.828  0.00  0.00    -0.153 OA
BRANCH   2  19
ATOM     19  C   UNL     1      -4.678   0.382  25.140  0.00  0.00    +0.106 A 
ATOM     21  C   UNL     1      -3.923  -0.201  26.158  0.00  0.00    +0.029 A 
ATOM     22  C   UNL     1      -4.718  -0.205  23.877  0.00  0.00    +0.029 A 
ATOM     23  C   UNL     1      -3.207  -1.373  25.910  0.00  0.00    +0.013 A 
ATOM     24  C   UNL     1      -4.003  -1.377  23.628  0.00  0.00    +0.013 A 
ATOM     27  C   UNL     1      -3.247  -1.961  24.646  0.00  0.00    +0.017 A 
BRANCH  27  32
ATOM      7  O   UNL     1      -3.000  -4.127  23.747  0.00  0.00    -0.292 OA
ATOM     32  C   UNL     1      -2.501  -3.181  24.387  0.00  0.00    +0.160 C 
ATOM     33  C   UNL     1      -1.072  -3.332  24.902  0.00  0.00    +0.091 C 
ENDBRANCH  27  32
ENDBRANCH   2  19
ENDBRANCH   8   2
BRANCH  11  16
ATOM      6  O   UNL     1      -4.793   4.188  21.942  0.00  0.00    -0.249 OA
ATOM     16  C   UNL     1      -4.386   3.614  22.943  0.00  0.00    +0.326 C 
BRANCH  16   5
ATOM      5  O   UNL     1      -3.732   2.419  22.981  0.00  0.00    -0.467 OA
ATOM     28  C   UNL     1      -2.680   2.262  22.021  0.00  0.00    +0.280 C 
ENDBRANCH  16   5
ENDBRANCH  11  16
BRANCH   9  17
ATOM     17  C   UNL     1       0.164   2.414  25.960  0.00  0.00    +0.158 C 
BRANCH  17  20
ATOM      1 CL   UNL     1       1.507  -1.283  21.404  0.00  0.00    -0.084 Cl
ATOM     20  C   UNL     1       0.501   1.487  24.819  0.00  0.00    -0.028 A 
ATOM     25  C   UNL     1      -0.297   0.372  24.566  0.00  0.00    +0.007 A 
ATOM     26  C   UNL     1       1.613   1.746  24.015  0.00  0.00    +0.007 A 
ATOM     29  C   UNL     1       0.014  -0.485  23.511  0.00  0.00    +0.020 A 
ATOM     30  C   UNL     1       1.924   0.888  22.960  0.00  0.00    +0.020 A 
ATOM     31  C   UNL     1       1.125  -0.226  22.707  0.00  0.00    +0.041 A 
ENDBRANCH  17  20
ENDBRANCH   9  17
TORSDOF 7
ENDMDL
MODEL 2
REMARK VINA RESULT:       4.7      2.463      4.574
REMARK  Name = 26745474
REMARK  9 active torsions:
REMARK  status: ('A' for Active; 'I' for Inactive)
REMARK    1  A    between atoms: S_2  and  N_8
REMARK    2  A    between atoms: S_2  and  C_19
REMARK    3  A    between atoms: O_5  and  C_16
REMARK    4  A    between atoms: O_5  and  C_28
REMARK    5  A    between atoms: N_9  and  C_17
REMARK    6  A    between atoms: C_11  and  C_16
REMARK    7  A    between atoms: C_17  and  C_20
REMARK    8  A    between atoms: C_27  and  C_32
REMARK    9  A    between atoms: C_32  and  C_33
REMARK                            x       y       z     vdW  Elec       q    Type
REMARK                         _______ _______ _______ _____ _____    ______ ____
ROOT
ATOM      8  N   UNL     1      -3.840  -0.180  25.799  0.00  0.00    -0.157 NA
ATOM      9  N   UNL     1      -4.153   3.541  25.999  0.00  0.00    -0.328 N 
ATOM     10  N   UNL     1      -6.205   3.186  25.189  0.00  0.00    -0.240 NA
ATOM     11  C   UNL     1      -4.862  -0.332  24.701  0.00  0.00    +0.194 C 
ATOM     12  C   UNL     1      -3.198   1.179  25.932  0.00  0.00    +0.165 C 
ATOM     13  C   UNL     1      -6.015   0.684  24.845  0.00  0.00    +0.089 C 
ATOM     14  C   UNL     1      -4.239   2.206  25.743  0.00  0.00    +0.057 A 
ATOM     15  C   UNL     1      -5.504   2.014  25.243  0.00  0.00    +0.066 A 
ATOM     18  C   UNL     1      -5.362   4.090  25.651  0.00  0.00    +0.200 A 
ENDROOT
BRANCH   8   2
ATOM      2  S   UNL     1      -2.797  -1.513  26.064  0.00  0.00    +0.062 S 
ATOM      3  O   UNL     1      -3.411  -2.707  25.524  0.00  0.00    -0.153 OA
ATOM      4  O   UNL     1      -2.320  -1.471  27.429  0.00  0.00    -0.153 OA
BRANCH   2  19
ATOM     19  C   UNL     1      -1.455  -1.069  25.006  0.00  0.00    +0.106 A 
ATOM     21  C   UNL     1      -0.754   0.116  25.230  0.00  0.00    +0.029 A 
ATOM     22  C   UNL     1      -1.100  -1.900  23.945  0.00  0.00    +0.029 A 
ATOM     23  C   UNL     1       0.305   0.468  24.392  0.00  0.00    +0.013 A 
ATOM     24  C   UNL     1      -0.041  -1.548  23.107  0.00  0.00    +0.013 A 
ATOM     27  C   UNL     1       0.662  -0.364  23.331  0.00  0.00    +0.017 A 
BRANCH  27  32
ATOM      7  O   UNL     1       1.766  -0.301  21.248  0.00  0.00    -0.292 OA
ATOM     32  C   UNL     1       1.764   0.004  22.457  0.00  0.00    +0.160 C 
ATOM     33  C   UNL     1       2.957   0.778  23.009  0.00  0.00    +0.091 C 
ENDBRANCH  27  32
ENDBRANCH   2  19
ENDBRANCH   8   2
BRANCH  11  16
ATOM      6  O   UNL     1      -3.926  -1.166  22.650  0.00  0.00    -0.249 OA
ATOM     16  C   UNL     1      -4.172  -0.215  23.379  0.00  0.00    +0.326 C 
BRANCH  16   5
ATOM      5  O   UNL     1      -3.875   1.092  23.133  0.00  0.00    -0.467 OA
ATOM     28  C   UNL     1      -2.646   1.322  22.434  0.00  0.00    +0.280 C 
ENDBRANCH  16   5
ENDBRANCH  11  16
BRANCH   9  17
ATOM     17  C   UNL     1      -3.018   4.258  26.526  0.00  0.00    +0.158 C 
BRANCH  17  20
ATOM      1 CL   UNL     1       1.210   5.397  22.396  0.00  0.00    -0.084 Cl
ATOM     20  C   UNL     1      -1.958   4.544  25.492  0.00  0.00    -0.028 A 
ATOM     25  C   UNL     1      -1.142   3.513  25.025  0.00  0.00    +0.007 A 
ATOM     26  C   UNL     1      -1.792   5.840  25.001  0.00  0.00    +0.007 A 
ATOM     29  C   UNL     1      -0.162   3.777  24.069  0.00  0.00    +0.020 A 
ATOM     30  C   UNL     1      -0.812   6.104  24.045  0.00  0.00    +0.020 A 
ATOM     31  C   UNL     1       0.003   5.073  23.578  0.00  0.00    +0.041 A 
ENDBRANCH  17  20
ENDBRANCH   9  17
TORSDOF 7
ENDMDL
MODEL 3
REMARK VINA RESULT:       6.4      2.768      5.395
REMARK  Name = 26745474
REMARK  9 active torsions:
REMARK  status: ('A' for Active; 'I' for Inactive)
REMARK    1  A    between atoms: S_2  and  N_8
REMARK    2  A    between atoms: S_2  and  C_19
REMARK    3  A    between atoms: O_5  and  C_16
REMARK    4  A    between atoms: O_5  and  C_28
REMARK    5  A    between atoms: N_9  and  C_17
REMARK    6  A    between atoms: C_11  and  C_16
REMARK    7  A    between atoms: C_17  and  C_20
REMARK    8  A    between atoms: C_27  and  C_32
REMARK    9  A    between atoms: C_32  and  C_33
REMARK                            x       y       z     vdW  Elec       q    Type
REMARK                         _______ _______ _______ _____ _____    ______ ____
ROOT
ATOM      8  N   UNL     1      -3.002   1.198  24.096  0.00  0.00    -0.157 NA
ATOM      9  N   UNL     1      -1.624  -2.234  24.650  0.00  0.00    -0.328 N 
ATOM     10  N   UNL     1      -3.606  -2.911  23.869  0.00  0.00    -0.240 NA
ATOM     11  C   UNL     1      -4.443   0.776  24.227  0.00  0.00    +0.194 C 
ATOM     12  C   UNL     1      -1.978   0.289  24.730  0.00  0.00    +0.165 C 
ATOM     13  C   UNL     1      -4.686  -0.631  23.640  0.00  0.00    +0.089 C 
ATOM     14  C   UNL     1      -2.368  -1.109  24.462  0.00  0.00    +0.057 A 
ATOM     15  C   UNL     1      -3.580  -1.549  23.988  0.00  0.00    +0.066 A 
ATOM     18  C   UNL     1      -2.412  -3.295  24.278  0.00  0.00    +0.200 A 
ENDROOT
BRANCH   8   2
ATOM      2  S   UNL     1      -2.679   2.875  24.236  0.00  0.00    +0.062 S 
ATOM      3  O   UNL     1      -3.847   3.536  24.778  0.00  0.00    -0.153 OA
ATOM      4  O   UNL     1      -2.061   3.336  23.012  0.00  0.00    -0.153 OA
BRANCH   2  19
ATOM     19  C   UNL     1      -1.441   2.846  25.494  0.00  0.00    +0.106 A 
ATOM     21  C   UNL     1      -0.114   2.577  25.158  0.00  0.00    +0.029 A 
ATOM     22  C   UNL     1      -1.790   3.088  26.821  0.00  0.00    +0.029 A 
ATOM     23  C   UNL     1       0.864   2.552  26.153  0.00  0.00    +0.013 A 
ATOM     24  C   UNL     1      -0.812   3.063  27.816  0.00  0.00    +0.013 A 
ATOM     27  C   UNL     1       0.516   2.795  27.481  0.00  0.00    +0.017 A 
BRANCH  27  32
ATOM      7  O   UNL     1       2.725   3.044  28.269  0.00  0.00    -0.292 OA
ATOM     32  C   UNL     1       1.535   2.768  28.518  0.00  0.00    +0.160 C 
ATOM     33  C   UNL     1       1.166   2.392  29.950  0.00  0.00    +0.091 C 
ENDBRANCH  27  32
ENDBRANCH   2  19
ENDBRANCH   8   2
BRANCH  11  16
ATOM      6  O   UNL     1      -4.414   0.120  26.540  0.00  0.00    -0.249 OA
ATOM     16  C   UNL     1      -4.844   0.860  25.665  0.00  0.00    +0.326 C 
BRANCH  16   5
ATOM      5  O   UNL     1      -5.742   1.872  25.830  0.00  0.00    -0.467 OA
ATOM     28  C   UNL     1      -6.723   1.998  24.795  0.00  0.00    +0.280 C 
ENDBRANCH  16   5
ENDBRANCH  11  16
BRANCH   9  17
ATOM     17  C   UNL     1      -0.273  -2.316  25.148  0.00  0.00    +0.158 C 
BRANCH  17  20
ATOM      1 CL   UNL     1       3.687   0.767  21.825  0.00  0.00    -0.084 Cl
ATOM     20  C   UNL     1       0.719  -1.543  24.316  0.00  0.00    -0.028 A 
ATOM     25  C   UNL     1       2.080  -1.834  24.403  0.00  0.00    +0.007 A 
ATOM     26  C   UNL     1       0.276  -0.535  23.458  0.00  0.00    +0.007 A 
ATOM     29  C   UNL     1       2.998  -1.119  23.634  0.00  0.00    +0.020 A 
ATOM     30  C   UNL     1       1.193   0.180  22.689  0.00  0.00    +0.020 A 
ATOM     31  C   UNL     1       2.554  -0.113  22.776  0.00  0.00    +0.041 A 
ENDBRANCH  17  20
ENDBRANCH   9  17
TORSDOF 7
ENDMDL
MODEL 4
REMARK VINA RESULT:       6.6      2.965      5.603
REMARK  Name = 26745474
REMARK  9 active torsions:
REMARK  status: ('A' for Active; 'I' for Inactive)
REMARK    1  A    between atoms: S_2  and  N_8
REMARK    2  A    between atoms: S_2  and  C_19
REMARK    3  A    between atoms: O_5  and  C_16
REMARK    4  A    between atoms: O_5  and  C_28
REMARK    5  A    between atoms: N_9  and  C_17
REMARK    6  A    between atoms: C_11  and  C_16
REMARK    7  A    between atoms: C_17  and  C_20
REMARK    8  A    between atoms: C_27  and  C_32
REMARK    9  A    between atoms: C_32  and  C_33
REMARK                            x       y       z     vdW  Elec       q    Type
REMARK                         _______ _______ _______ _____ _____    ______ ____
ROOT
ATOM      8  N   UNL     1      -2.036   2.538  24.135  0.00  0.00    -0.157 NA
ATOM      9  N   UNL     1      -5.040   0.765  25.487  0.00  0.00    -0.328 N 
ATOM     10  N   UNL     1      -6.158   2.529  24.692  0.00  0.00    -0.240 NA
ATOM     11  C   UNL     1      -2.652   3.911  24.225  0.00  0.00    +0.194 C 
ATOM     12  C   UNL     1      -2.636   1.477  25.026  0.00  0.00    +0.165 C 
ATOM     13  C   UNL     1      -4.165   3.884  23.915  0.00  0.00    +0.089 C 
ATOM     14  C   UNL     1      -4.103   1.633  25.013  0.00  0.00    +0.057 A 
ATOM     15  C   UNL     1      -4.812   2.708  24.535  0.00  0.00    +0.066 A 
ATOM     18  C   UNL     1      -6.263   1.348  25.271  0.00  0.00    +0.200 A 
ENDROOT
BRANCH   8   2
ATOM      2  S   UNL     1      -0.333   2.472  23.960  0.00  0.00    +0.062 S 
ATOM      3  O   UNL     1       0.132   3.724  23.406  0.00  0.00    -0.153 OA
ATOM      4  O   UNL     1       0.027   1.208  23.356  0.00  0.00    -0.153 OA
BRANCH   2  19
ATOM     19  C   UNL     1       0.148   2.420  25.658  0.00  0.00    +0.106 A 
ATOM     21  C   UNL     1       1.094   3.324  26.142  0.00  0.00    +0.029 A 
ATOM     22  C   UNL     1      -0.414   1.474  26.514  0.00  0.00    +0.029 A 
ATOM     23  C   UNL     1       1.476   3.281  27.483  0.00  0.00    +0.013 A 
ATOM     24  C   UNL     1      -0.032   1.431  27.855  0.00  0.00    +0.013 A 
ATOM     27  C   UNL     1       0.913   2.335  28.340  0.00  0.00    +0.017 A 
BRANCH  27  32
ATOM      7  O   UNL     1       2.325   1.663  30.105  0.00  0.00    -0.292 OA
ATOM     32  C   UNL     1       1.313   2.290  29.737  0.00  0.00    +0.160 C 
ATOM     33  C   UNL     1       0.488   3.016  30.796  0.00  0.00    +0.091 C 
ENDBRANCH  27  32
ENDBRANCH   2  19
ENDBRANCH   8   2
BRANCH  11  16
ATOM      6  O   UNL     1      -2.945   4.143  26.600  0.00  0.00    -0.249 OA
ATOM     16  C   UNL     1      -2.366   4.483  25.576  0.00  0.00    +0.326 C 
BRANCH  16   5
ATOM      5  O   UNL     1      -1.380   5.419  25.477  0.00  0.00    -0.467 OA
ATOM     28  C   UNL     1      -1.623   6.469  24.534  0.00  0.00    +0.280 C 
ENDBRANCH  16   5
ENDBRANCH  11  16
BRANCH   9  17
ATOM     17  C   UNL     1      -4.809  -0.517  26.105  0.00  0.00    +0.158 C 
BRANCH  17  20
ATOM      1 CL   UNL     1      -1.075  -4.042  22.966  0.00  0.00    -0.084 Cl
ATOM     20  C   UNL     1      -3.874  -1.401  25.319  0.00  0.00    -0.028 A 
ATOM     25  C   UNL     1      -4.351  -2.127  24.228  0.00  0.00    +0.007 A 
ATOM     26  C   UNL     1      -2.529  -1.493  25.683  0.00  0.00    +0.007 A 
ATOM     29  C   UNL     1      -3.486  -2.944  23.501  0.00  0.00    +0.020 A 
ATOM     30  C   UNL     1      -1.664  -2.310  24.956  0.00  0.00    +0.020 A 
ATOM     31  C   UNL     1      -2.142  -3.035  23.865  0.00  0.00    +0.041 A 
ENDBRANCH  17  20
ENDBRANCH   9  17
TORSDOF 7
ENDMDL
MODEL 5
REMARK VINA RESULT:       6.8      3.524      6.980
REMARK  Name = 26745474
REMARK  9 active torsions:
REMARK  status: ('A' for Active; 'I' for Inactive)
REMARK    1  A    between atoms: S_2  and  N_8
REMARK    2  A    between atoms: S_2  and  C_19
REMARK    3  A    between atoms: O_5  and  C_16
REMARK    4  A    between atoms: O_5  and  C_28
REMARK    5  A    between atoms: N_9  and  C_17
REMARK    6  A    between atoms: C_11  and  C_16
REMARK    7  A    between atoms: C_17  and  C_20
REMARK    8  A    between atoms: C_27  and  C_32
REMARK    9  A    between atoms: C_32  and  C_33
REMARK                            x       y       z     vdW  Elec       q    Type
REMARK                         _______ _______ _______ _____ _____    ______ ____
ROOT
ATOM      8  N   UNL     1      -0.368   0.569  24.849  0.00  0.00    -0.157 NA
ATOM      9  N   UNL     1      -3.114  -1.754  23.823  0.00  0.00    -0.328 N 
ATOM     10  N   UNL     1      -1.677  -3.356  24.427  0.00  0.00    -0.240 NA
ATOM     11  C   UNL     1       0.736  -0.430  24.609  0.00  0.00    +0.194 C 
ATOM     12  C   UNL     1      -1.664   0.322  24.117  0.00  0.00    +0.165 C 
ATOM     13  C   UNL     1       0.299  -1.867  24.966  0.00  0.00    +0.089 C 
ATOM     14  C   UNL     1      -1.953  -1.124  24.156  0.00  0.00    +0.057 A 
ATOM     15  C   UNL     1      -1.087  -2.127  24.518  0.00  0.00    +0.066 A 
ATOM     18  C   UNL     1      -2.900  -3.098  24.003  0.00  0.00    +0.200 A 
ENDROOT
BRANCH   8   2
ATOM      2  S   UNL     1       0.100   2.212  24.977  0.00  0.00    +0.062 S 
ATOM      3  O   UNL     1       0.749   2.614  23.748  0.00  0.00    -0.153 OA
ATOM      4  O   UNL     1       0.736   2.419  26.260  0.00  0.00    -0.153 OA
BRANCH   2  19
ATOM     19  C   UNL     1      -1.488   2.981  25.027  0.00  0.00    +0.106 A 
ATOM     21  C   UNL     1      -2.324   2.926  23.912  0.00  0.00    +0.029 A 
ATOM     22  C   UNL     1      -1.905   3.645  26.180  0.00  0.00    +0.029 A 
ATOM     23  C   UNL     1      -3.578   3.536  23.951  0.00  0.00    +0.013 A 
ATOM     24  C   UNL     1      -3.160   4.254  26.219  0.00  0.00    +0.013 A 
ATOM     27  C   UNL     1      -3.997   4.199  25.104  0.00  0.00    +0.017 A 
BRANCH  27  32
ATOM      7  O   UNL     1      -6.129   4.573  26.041  0.00  0.00    -0.292 OA
ATOM     32  C   UNL     1      -5.303   4.835  25.144  0.00  0.00    +0.160 C 
ATOM     33  C   UNL     1      -5.698   5.850  24.074  0.00  0.00    +0.091 C 
ENDBRANCH  27  32
ENDBRANCH   2  19
ENDBRANCH   8   2
BRANCH  11  16
ATOM      6  O   UNL     1       0.438  -0.111  22.245  0.00  0.00    -0.249 OA
ATOM     16  C   UNL     1       1.189  -0.318  23.188  0.00  0.00    +0.326 C 
BRANCH  16   5
ATOM      5  O   UNL     1       2.540  -0.482  23.126  0.00  0.00    -0.467 OA
ATOM     28  C   UNL     1       3.263   0.596  22.521  0.00  0.00    +0.280 C 
ENDBRANCH  16   5
ENDBRANCH  11  16
BRANCH   9  17
ATOM     17  C   UNL     1      -4.337  -1.145  23.362  0.00  0.00    +0.158 C 
BRANCH  17  20
ATOM      1 CL   UNL     1      -6.807   2.593  27.381  0.00  0.00    -0.084 Cl
ATOM     20  C   UNL     1      -4.955  -0.208  24.368  0.00  0.00    -0.028 A 
ATOM     25  C   UNL     1      -6.037   0.593  24.004  0.00  0.00    +0.007 A 
ATOM     26  C   UNL     1      -4.445  -0.142  25.666  0.00  0.00    +0.007 A 
ATOM     29  C   UNL     1      -6.609   1.460  24.935  0.00  0.00    +0.020 A 
ATOM     30  C   UNL     1      -5.017   0.725  26.597  0.00  0.00    +0.020 A 
ATOM     31  C   UNL     1      -6.099   1.525  26.232  0.00  0.00    +0.041 A 
ENDBRANCH  17  20
ENDBRANCH   9  17
TORSDOF 7
ENDMDL
MODEL 6
REMARK VINA RESULT:       7.2      2.842      5.858
REMARK  Name = 26745474
REMARK  9 active torsions:
REMARK  status: ('A' for Active; 'I' for Inactive)
REMARK    1  A    between atoms: S_2  and  N_8
REMARK    2  A    between atoms: S_2  and  C_19
REMARK    3  A    between atoms: O_5  and  C_16
REMARK    4  A    between atoms: O_5  and  C_28
REMARK    5  A    between atoms: N_9  and  C_17
REMARK    6  A    between atoms: C_11  and  C_16
REMARK    7  A    between atoms: C_17  and  C_20
REMARK    8  A    between atoms: C_27  and  C_32
REMARK    9  A    between atoms: C_32  and  C_33
REMARK                            x       y       z     vdW  Elec       q    Type
REMARK                         _______ _______ _______ _____ _____    ______ ____
ROOT
ATOM      8  N   UNL     1      -2.426  -0.594  24.318  0.00  0.00    -0.157 NA
ATOM      9  N   UNL     1       0.710   1.408  24.699  0.00  0.00    -0.328 N 
ATOM     10  N   UNL     1       1.475   0.101  23.055  0.00  0.00    -0.240 NA
ATOM     11  C   UNL     1      -1.731  -1.809  23.758  0.00  0.00    +0.194 C 
ATOM     12  C   UNL     1      -1.572   0.354  25.123  0.00  0.00    +0.165 C 
ATOM     13  C   UNL     1      -0.537  -1.424  22.857  0.00  0.00    +0.089 C 
ATOM     14  C   UNL     1      -0.267   0.493  24.449  0.00  0.00    +0.057 A 
ATOM     15  C   UNL     1       0.227  -0.300  23.441  0.00  0.00    +0.066 A 
ATOM     18  C   UNL     1       1.740   1.133  23.834  0.00  0.00    +0.200 A 
ENDROOT
BRANCH   8   2
ATOM      2  S   UNL     1      -4.018  -0.826  24.906  0.00  0.00    +0.062 S 
ATOM      3  O   UNL     1      -3.951  -1.339  26.257  0.00  0.00    -0.153 OA
ATOM      4  O   UNL     1      -4.800  -1.496  23.891  0.00  0.00    -0.153 OA
BRANCH   2  19
ATOM     19  C   UNL     1      -4.562   0.852  24.991  0.00  0.00    +0.106 A 
ATOM     21  C   UNL     1      -5.519   1.227  25.934  0.00  0.00    +0.029 A 
ATOM     22  C   UNL     1      -4.036   1.800  24.115  0.00  0.00    +0.029 A 
ATOM     23  C   UNL     1      -5.950   2.552  25.999  0.00  0.00    +0.013 A 
ATOM     24  C   UNL     1      -4.467   3.126  24.181  0.00  0.00    +0.013 A 
ATOM     27  C   UNL     1      -5.424   3.502  25.123  0.00  0.00    +0.017 A 
BRANCH  27  32
ATOM      7  O   UNL     1      -6.554   5.300  26.149  0.00  0.00    -0.292 OA
ATOM     32  C   UNL     1      -5.874   4.882  25.191  0.00  0.00    +0.160 C 
ATOM     33  C   UNL     1      -5.521   5.862  24.075  0.00  0.00    +0.091 C 
ENDBRANCH  27  32
ENDBRANCH   2  19
ENDBRANCH   8   2
BRANCH  11  16
ATOM      6  O   UNL     1      -0.230  -2.630  25.447  0.00  0.00    -0.249 OA
ATOM     16  C   UNL     1      -1.317  -2.694  24.889  0.00  0.00    +0.326 C 
BRANCH  16   5
ATOM      5  O   UNL     1      -2.328  -3.560  25.184  0.00  0.00    -0.467 OA
ATOM     28  C   UNL     1      -3.211  -3.867  24.099  0.00  0.00    +0.280 C 
ENDBRANCH  16   5
ENDBRANCH  11  16
BRANCH   9  17
ATOM     17  C   UNL     1       0.688   2.463  25.682  0.00  0.00    +0.158 C 
BRANCH  17  20
ATOM      1 CL   UNL     1      -2.791   7.118  24.116  0.00  0.00    -0.084 Cl
ATOM     20  C   UNL     1      -0.184   3.629  25.289  0.00  0.00    -0.028 A 
ATOM     25  C   UNL     1      -1.355   3.894  25.998  0.00  0.00    +0.007 A 
ATOM     26  C   UNL     1       0.181   4.443  24.216  0.00  0.00    +0.007 A 
ATOM     29  C   UNL     1      -2.162   4.972  25.635  0.00  0.00    +0.020 A 
ATOM     30  C   UNL     1      -0.626   5.521  23.853  0.00  0.00    +0.020 A 
ATOM     31  C   UNL     1      -1.797   5.786  24.562  0.00  0.00    +0.041 A 
ENDBRANCH  17  20
ENDBRANCH   9  17
TORSDOF 7
ENDMDL
MODEL 7
REMARK VINA RESULT:       7.2      2.569      5.040
REMARK  Name = 26745474
REMARK  9 active torsions:
REMARK  status: ('A' for Active; 'I' for Inactive)
REMARK    1  A    between atoms: S_2  and  N_8
REMARK    2  A    between atoms: S_2  and  C_19
REMARK    3  A    between atoms: O_5  and  C_16
REMARK    4  A    between atoms: O_5  and  C_28
REMARK    5  A    between atoms: N_9  and  C_17
REMARK    6  A    between atoms: C_11  and  C_16
REMARK    7  A    between atoms: C_17  and  C_20
REMARK    8  A    between atoms: C_27  and  C_32
REMARK    9  A    between atoms: C_32  and  C_33
REMARK                            x       y       z     vdW  Elec       q    Type
REMARK                         _______ _______ _______ _____ _____    ______ ____
ROOT
ATOM      8  N   UNL     1      -2.490   2.925  24.882  0.00  0.00    -0.157 NA
ATOM      9  N   UNL     1      -4.963   0.132  25.137  0.00  0.00    -0.328 N 
ATOM     10  N   UNL     1      -6.257   1.466  23.895  0.00  0.00    -0.240 NA
ATOM     11  C   UNL     1      -3.531   3.994  24.667  0.00  0.00    +0.194 C 
ATOM     12  C   UNL     1      -2.962   1.656  25.548  0.00  0.00    +0.165 C 
ATOM     13  C   UNL     1      -4.720   3.477  23.828  0.00  0.00    +0.089 C 
ATOM     14  C   UNL     1      -4.282   1.302  24.992  0.00  0.00    +0.057 A 
ATOM     15  C   UNL     1      -5.096   2.105  24.231  0.00  0.00    +0.066 A 
ATOM     18  C   UNL     1      -6.147   0.277  24.458  0.00  0.00    +0.200 A 
ENDROOT
BRANCH   8   2
ATOM      2  S   UNL     1      -0.929   3.459  25.345  0.00  0.00    +0.062 S 
ATOM      3  O   UNL     1      -0.725   3.160  26.746  0.00  0.00    -0.153 OA
ATOM      4  O   UNL     1      -0.717   4.793  24.828  0.00  0.00    -0.153 OA
BRANCH   2  19
ATOM     19  C   UNL     1       0.068   2.346  24.404  0.00  0.00    +0.106 A 
ATOM     21  C   UNL     1      -0.520   1.251  23.770  0.00  0.00    +0.029 A 
ATOM     22  C   UNL     1       1.441   2.560  24.298  0.00  0.00    +0.029 A 
ATOM     23  C   UNL     1       0.268   0.371  23.028  0.00  0.00    +0.013 A 
ATOM     24  C   UNL     1       2.229   1.679  23.556  0.00  0.00    +0.013 A 
ATOM     27  C   UNL     1       1.642   0.584  22.920  0.00  0.00    +0.017 A 
BRANCH  27  32
ATOM      7  O   UNL     1       2.185  -0.621  20.967  0.00  0.00    -0.292 OA
ATOM     32  C   UNL     1       2.463  -0.334  22.148  0.00  0.00    +0.160 C 
ATOM     33  C   UNL     1       3.696  -0.978  22.777  0.00  0.00    +0.091 C 
ENDBRANCH  27  32
ENDBRANCH   2  19
ENDBRANCH   8   2
BRANCH  11  16
ATOM      6  O   UNL     1      -3.226   5.089  26.785  0.00  0.00    -0.249 OA
ATOM     16  C   UNL     1      -3.968   4.519  25.997  0.00  0.00    +0.326 C 
BRANCH  16   5
ATOM      5  O   UNL     1      -5.294   4.260  26.176  0.00  0.00    -0.467 OA
ATOM     28  C   UNL     1      -6.189   5.248  25.652  0.00  0.00    +0.280 C 
ENDBRANCH  16   5
ENDBRANCH  11  16
BRANCH   9  17
ATOM     17  C   UNL     1      -4.542  -1.040  25.865  0.00  0.00    +0.158 C 
BRANCH  17  20
ATOM      1 CL   UNL     1       1.246  -2.443  24.997  0.00  0.00    -0.084 Cl
ATOM     20  C   UNL     1      -3.092  -1.391  25.646  0.00  0.00    -0.028 A 
ATOM     25  C   UNL     1      -2.113  -0.868  26.491  0.00  0.00    +0.007 A 
ATOM     26  C   UNL     1      -2.728  -2.240  24.599  0.00  0.00    +0.007 A 
ATOM     29  C   UNL     1      -0.771  -1.192  26.289  0.00  0.00    +0.020 A 
ATOM     30  C   UNL     1      -1.387  -2.564  24.398  0.00  0.00    +0.020 A 
ATOM     31  C   UNL     1      -0.409  -2.041  25.243  0.00  0.00    +0.041 A 
ENDBRANCH  17  20
ENDBRANCH   9  17
TORSDOF 7
ENDMDL
