MODEL 1
REMARK VINA RESULT:      -3.4      0.000      0.000
REMARK  Name = 75536564
REMARK  9 active torsions:
REMARK  status: ('A' for Active; 'I' for Inactive)
REMARK    1  A    between atoms: S_1  and  C_24
REMARK    2  A    between atoms: S_1  and  C_27
REMARK    3  A    between atoms: O_3  and  C_10
REMARK    4  A    between atoms: N_7  and  C_18
REMARK    5  A    between atoms: N_8  and  C_12
REMARK    6  A    between atoms: N_8  and  C_20
REMARK    7  A    between atoms: C_9  and  C_18
REMARK    8  A    between atoms: C_11  and  C_19
REMARK    9  A    between atoms: C_20  and  C_21
REMARK                            x       y       z     vdW  Elec       q    Type
REMARK                         _______ _______ _______ _____ _____    ______ ____
ROOT
ATOM      2  O   UNL     1      -5.490   3.044  26.271  0.00  0.00    -0.371 OA
ATOM      9  C   UNL     1      -5.627   2.706  24.880  0.00  0.00    +0.165 C 
ATOM     10  C   UNL     1      -4.280   3.009  24.239  0.00  0.00    +0.164 C 
ATOM     12  C   UNL     1      -3.847   4.230  25.031  0.00  0.00    +0.111 C 
ATOM     17  C   UNL     1      -4.318   3.863  26.429  0.00  0.00    +0.181 C 
ENDROOT
BRANCH  10   3
ATOM      3  O   UNL     1      -4.403   3.272  22.855  0.00  0.00    -0.388 OA
ATOM     30  H   UNL     1      -4.547   4.226  22.736  0.00  0.00    +0.210 HD
ENDBRANCH  10   3
BRANCH  12   8
ATOM      8  N   UNL     1      -2.419   4.490  24.965  0.00  0.00    -0.305 NA
ATOM     29  H   UNL     1      -2.240   5.448  25.268  0.00  0.00    +0.123 HD
BRANCH   8  20
ATOM     20  C   UNL     1      -1.678   3.578  25.828  0.00  0.00    +0.116 C 
BRANCH  20  21
ATOM     21  C   UNL     1      -0.785   2.659  25.038  0.00  0.00    -0.033 A 
ATOM     22  C   UNL     1      -1.260   2.058  23.871  0.00  0.00    +0.007 A 
ATOM     23  C   UNL     1       0.516   2.408  25.471  0.00  0.00    +0.007 A 
ATOM     24  C   UNL     1       0.869   0.956  23.572  0.00  0.00    +0.088 A 
ATOM     25  C   UNL     1      -0.434   1.207  23.138  0.00  0.00    +0.027 A 
ATOM     26  C   UNL     1       1.344   1.556  24.738  0.00  0.00    +0.027 A 
BRANCH  24   1
ATOM      1  S   UNL     1       1.905  -0.106  22.653  0.00  0.00    -0.006 S 
ATOM      5  O   UNL     1       2.260  -1.252  23.480  0.00  0.00    -0.170 OA
ATOM      6  O   UNL     1       1.288  -0.319  21.351  0.00  0.00    -0.170 OA
ATOM     27  C   UNL     1       3.394   0.834  22.405  0.00  0.00    +0.200 C 
ENDBRANCH  24   1
ENDBRANCH  20  21
ENDBRANCH   8  20
ENDBRANCH  12   8
BRANCH   9  18
ATOM     18  C   UNL     1      -6.044   1.252  24.744  0.00  0.00    +0.138 C 
BRANCH  18   7
ATOM      4  O   UNL     1      -3.977  -0.386  23.531  0.00  0.00    -0.276 OA
ATOM      7  N   UNL     1      -5.120   0.380  25.410  0.00  0.00    -0.313 N 
ATOM     19  C   UNL     1      -4.157  -0.371  24.745  0.00  0.00    +0.216 C 
ATOM     28  H   UNL     1      -5.182   0.319  26.422  0.00  0.00    +0.149 HD
BRANCH  19  11
ATOM     11  C   UNL     1      -3.309  -1.177  25.681  0.00  0.00    +0.075 C 
ATOM     13  C   UNL     1      -3.063  -2.577  25.116  0.00  0.00    +0.013 C 
ATOM     14  C   UNL     1      -1.929  -0.529  25.838  0.00  0.00    +0.013 C 
ATOM     15  C   UNL     1      -1.676  -2.502  24.494  0.00  0.00    +0.001 C 
ATOM     16  C   UNL     1      -0.918  -1.604  25.456  0.00  0.00    +0.001 C 
ENDBRANCH  19  11
ENDBRANCH  18   7
ENDBRANCH   9  18
TORSDOF 8
ENDMDL
MODEL 2
REMARK VINA RESULT:      -3.3      2.752      6.724
REMARK  Name = 75536564
REMARK  9 active torsions:
REMARK  status: ('A' for Active; 'I' for Inactive)
REMARK    1  A    between atoms: S_1  and  C_24
REMARK    2  A    between atoms: S_1  and  C_27
REMARK    3  A    between atoms: O_3  and  C_10
REMARK    4  A    between atoms: N_7  and  C_18
REMARK    5  A    between atoms: N_8  and  C_12
REMARK    6  A    between atoms: N_8  and  C_20
REMARK    7  A    between atoms: C_9  and  C_18
REMARK    8  A    between atoms: C_11  and  C_19
REMARK    9  A    between atoms: C_20  and  C_21
REMARK                            x       y       z     vdW  Elec       q    Type
REMARK                         _______ _______ _______ _____ _____    ______ ____
ROOT
ATOM      2  O   UNL     1      -1.146  -0.456  25.985  0.00  0.00    -0.371 OA
ATOM      9  C   UNL     1      -0.524  -1.071  24.845  0.00  0.00    +0.165 C 
ATOM     10  C   UNL     1      -1.617  -1.871  24.150  0.00  0.00    +0.164 C 
ATOM     12  C   UNL     1      -2.434  -2.344  25.339  0.00  0.00    +0.111 C 
ATOM     17  C   UNL     1      -2.400  -1.116  26.234  0.00  0.00    +0.181 C 
ENDROOT
BRANCH  10   3
ATOM      3  O   UNL     1      -1.086  -2.941  23.392  0.00  0.00    -0.388 OA
ATOM     30  H   UNL     1      -0.116  -2.916  23.464  0.00  0.00    +0.210 HD
ENDBRANCH  10   3
BRANCH  12   8
ATOM      8  N   UNL     1      -3.785  -2.755  24.991  0.00  0.00    -0.305 NA
ATOM     29  H   UNL     1      -4.396  -2.603  25.793  0.00  0.00    +0.123 HD
BRANCH   8  20
ATOM     20  C   UNL     1      -4.292  -1.986  23.860  0.00  0.00    +0.116 C 
BRANCH  20  21
ATOM     21  C   UNL     1      -4.307  -0.508  24.148  0.00  0.00    -0.033 A 
ATOM     22  C   UNL     1      -5.123  -0.004  25.162  0.00  0.00    +0.007 A 
ATOM     23  C   UNL     1      -3.506   0.356  23.403  0.00  0.00    +0.007 A 
ATOM     24  C   UNL     1      -4.336   2.229  24.683  0.00  0.00    +0.088 A 
ATOM     25  C   UNL     1      -5.137   1.364  25.429  0.00  0.00    +0.027 A 
ATOM     26  C   UNL     1      -3.520   1.725  23.669  0.00  0.00    +0.027 A 
BRANCH  24   1
ATOM      1  S   UNL     1      -4.351   3.942  25.020  0.00  0.00    -0.006 S 
ATOM      5  O   UNL     1      -3.970   4.664  23.814  0.00  0.00    -0.170 OA
ATOM      6  O   UNL     1      -5.608   4.258  25.684  0.00  0.00    -0.170 OA
ATOM     27  C   UNL     1      -3.038   4.173  26.197  0.00  0.00    +0.200 C 
ENDBRANCH  24   1
ENDBRANCH  20  21
ENDBRANCH   8  20
ENDBRANCH  12   8
BRANCH   9  18
ATOM     18  C   UNL     1       0.095  -0.004  23.959  0.00  0.00    +0.138 C 
BRANCH  18   7
ATOM      4  O   UNL     1       2.340   1.712  23.295  0.00  0.00    -0.276 OA
ATOM      7  N   UNL     1       1.387  -0.404  23.484  0.00  0.00    -0.313 N 
ATOM     19  C   UNL     1       2.409   0.491  23.190  0.00  0.00    +0.216 C 
ATOM     28  H   UNL     1       1.553  -1.399  23.363  0.00  0.00    +0.149 HD
BRANCH  19  11
ATOM     11  C   UNL     1       3.662  -0.194  22.736  0.00  0.00    +0.075 C 
ATOM     13  C   UNL     1       4.852   0.767  22.789  0.00  0.00    +0.013 C 
ATOM     14  C   UNL     1       4.005  -1.353  23.679  0.00  0.00    +0.013 C 
ATOM     15  C   UNL     1       5.564   0.427  24.090  0.00  0.00    +0.001 C 
ATOM     16  C   UNL     1       5.422  -1.083  24.172  0.00  0.00    +0.001 C 
ENDBRANCH  19  11
ENDBRANCH  18   7
ENDBRANCH   9  18
TORSDOF 8
ENDMDL
MODEL 3
REMARK VINA RESULT:      -2.3      2.590      5.789
REMARK  Name = 75536564
REMARK  9 active torsions:
REMARK  status: ('A' for Active; 'I' for Inactive)
REMARK    1  A    between atoms: S_1  and  C_24
REMARK    2  A    between atoms: S_1  and  C_27
REMARK    3  A    between atoms: O_3  and  C_10
REMARK    4  A    between atoms: N_7  and  C_18
REMARK    5  A    between atoms: N_8  and  C_12
REMARK    6  A    between atoms: N_8  and  C_20
REMARK    7  A    between atoms: C_9  and  C_18
REMARK    8  A    between atoms: C_11  and  C_19
REMARK    9  A    between atoms: C_20  and  C_21
REMARK                            x       y       z     vdW  Elec       q    Type
REMARK                         _______ _______ _______ _____ _____    ______ ____
ROOT
ATOM      2  O   UNL     1       1.658   0.081  22.926  0.00  0.00    -0.371 OA
ATOM      9  C   UNL     1       0.649  -0.514  23.758  0.00  0.00    +0.165 C 
ATOM     10  C   UNL     1      -0.067   0.641  24.443  0.00  0.00    +0.164 C 
ATOM     12  C   UNL     1       1.078   1.619  24.641  0.00  0.00    +0.111 C 
ATOM     17  C   UNL     1       1.848   1.445  23.342  0.00  0.00    +0.181 C 
ENDROOT
BRANCH  10   3
ATOM      3  O   UNL     1      -0.661   0.244  25.663  0.00  0.00    -0.388 OA
ATOM     30  H   UNL     1      -1.591   0.017  25.492  0.00  0.00    +0.210 HD
ENDBRANCH  10   3
BRANCH  12   8
ATOM      8  N   UNL     1       0.643   2.988  24.863  0.00  0.00    -0.305 NA
ATOM     29  H   UNL     1       1.455   3.604  24.834  0.00  0.00    +0.123 HD
BRANCH   8  20
ATOM     20  C   UNL     1      -0.305   3.410  23.839  0.00  0.00    +0.116 C 
BRANCH  20  21
ATOM     21  C   UNL     1      -1.726   3.352  24.333  0.00  0.00    -0.033 A 
ATOM     22  C   UNL     1      -2.732   2.846  23.508  0.00  0.00    +0.007 A 
ATOM     23  C   UNL     1      -2.038   3.806  25.614  0.00  0.00    +0.007 A 
ATOM     24  C   UNL     1      -4.360   3.246  25.248  0.00  0.00    +0.088 A 
ATOM     25  C   UNL     1      -4.048   2.792  23.965  0.00  0.00    +0.027 A 
ATOM     26  C   UNL     1      -3.355   3.753  26.073  0.00  0.00    +0.027 A 
BRANCH  24   1
ATOM      1  S   UNL     1      -6.007   3.175  25.822  0.00  0.00    -0.006 S 
ATOM      5  O   UNL     1      -6.031   2.482  27.103  0.00  0.00    -0.170 OA
ATOM      6  O   UNL     1      -6.578   4.510  25.713  0.00  0.00    -0.170 OA
ATOM     27  C   UNL     1      -6.839   2.127  24.650  0.00  0.00    +0.200 C 
ENDBRANCH  24   1
ENDBRANCH  20  21
ENDBRANCH   8  20
ENDBRANCH  12   8
BRANCH   9  18
ATOM     18  C   UNL     1      -0.272  -1.375  22.912  0.00  0.00    +0.138 C 
BRANCH  18   7
ATOM      4  O   UNL     1      -0.955  -3.192  25.070  0.00  0.00    -0.276 OA
ATOM      7  N   UNL     1      -1.552  -1.543  23.538  0.00  0.00    -0.313 N 
ATOM     19  C   UNL     1      -1.789  -2.442  24.572  0.00  0.00    +0.216 C 
ATOM     28  H   UNL     1      -2.316  -0.965  23.201  0.00  0.00    +0.149 HD
BRANCH  19  11
ATOM     11  C   UNL     1      -3.205  -2.397  25.060  0.00  0.00    +0.075 C 
ATOM     13  C   UNL     1      -3.369  -1.326  26.140  0.00  0.00    +0.013 C 
ATOM     14  C   UNL     1      -4.148  -2.003  23.918  0.00  0.00    +0.013 C 
ATOM     15  C   UNL     1      -3.961  -0.130  25.408  0.00  0.00    +0.001 C 
ATOM     16  C   UNL     1      -4.905  -0.774  24.409  0.00  0.00    +0.001 C 
ENDBRANCH  19  11
ENDBRANCH  18   7
ENDBRANCH   9  18
TORSDOF 8
ENDMDL
MODEL 4
REMARK VINA RESULT:      -1.8      2.520      5.653
REMARK  Name = 75536564
REMARK  9 active torsions:
REMARK  status: ('A' for Active; 'I' for Inactive)
REMARK    1  A    between atoms: S_1  and  C_24
REMARK    2  A    between atoms: S_1  and  C_27
REMARK    3  A    between atoms: O_3  and  C_10
REMARK    4  A    between atoms: N_7  and  C_18
REMARK    5  A    between atoms: N_8  and  C_12
REMARK    6  A    between atoms: N_8  and  C_20
REMARK    7  A    between atoms: C_9  and  C_18
REMARK    8  A    between atoms: C_11  and  C_19
REMARK    9  A    between atoms: C_20  and  C_21
REMARK                            x       y       z     vdW  Elec       q    Type
REMARK                         _______ _______ _______ _____ _____    ______ ____
ROOT
ATOM      2  O   UNL     1       0.117   3.299  23.462  0.00  0.00    -0.371 OA
ATOM      9  C   UNL     1       0.330   2.484  24.627  0.00  0.00    +0.165 C 
ATOM     10  C   UNL     1      -0.898   2.678  25.506  0.00  0.00    +0.164 C 
ATOM     12  C   UNL     1      -1.224   4.136  25.236  0.00  0.00    +0.111 C 
ATOM     17  C   UNL     1      -0.938   4.236  23.747  0.00  0.00    +0.181 C 
ENDROOT
BRANCH  10   3
ATOM      3  O   UNL     1      -0.614   2.426  26.869  0.00  0.00    -0.388 OA
ATOM     30  H   UNL     1      -1.222   1.736  27.186  0.00  0.00    +0.210 HD
ENDBRANCH  10   3
BRANCH  12   8
ATOM      8  N   UNL     1      -2.590   4.500  25.576  0.00  0.00    -0.305 NA
ATOM     29  H   UNL     1      -2.665   5.516  25.610  0.00  0.00    +0.123 HD
BRANCH   8  20
ATOM     20  C   UNL     1      -3.531   3.990  24.585  0.00  0.00    +0.116 C 
BRANCH  20  21
ATOM     21  C   UNL     1      -3.539   2.485  24.542  0.00  0.00    -0.033 A 
ATOM     22  C   UNL     1      -3.036   1.818  23.424  0.00  0.00    +0.007 A 
ATOM     23  C   UNL     1      -4.049   1.759  25.617  0.00  0.00    +0.007 A 
ATOM     24  C   UNL     1      -3.554  -0.303  24.460  0.00  0.00    +0.088 A 
ATOM     25  C   UNL     1      -3.044   0.424  23.383  0.00  0.00    +0.027 A 
ATOM     26  C   UNL     1      -4.057   0.365  25.577  0.00  0.00    +0.027 A 
BRANCH  24   1
ATOM      1  S   UNL     1      -3.560  -2.048  24.410  0.00  0.00    -0.006 S 
ATOM      5  O   UNL     1      -3.726  -2.558  25.765  0.00  0.00    -0.170 OA
ATOM      6  O   UNL     1      -4.483  -2.465  23.364  0.00  0.00    -0.170 OA
ATOM     27  C   UNL     1      -1.914  -2.481  23.893  0.00  0.00    +0.200 C 
ENDBRANCH  24   1
ENDBRANCH  20  21
ENDBRANCH   8  20
ENDBRANCH  12   8
BRANCH   9  18
ATOM     18  C   UNL     1       0.548   1.040  24.209  0.00  0.00    +0.138 C 
BRANCH  18   7
ATOM      4  O   UNL     1       1.351  -0.529  21.903  0.00  0.00    -0.276 OA
ATOM      7  N   UNL     1       1.879   0.836  23.715  0.00  0.00    -0.313 N 
ATOM     19  C   UNL     1       2.173   0.064  22.596  0.00  0.00    +0.216 C 
ATOM     28  H   UNL     1       2.638   1.287  24.217  0.00  0.00    +0.149 HD
BRANCH  19  11
ATOM     11  C   UNL     1       3.638   0.038  22.284  0.00  0.00    +0.075 C 
ATOM     13  C   UNL     1       4.308   1.339  22.731  0.00  0.00    +0.013 C 
ATOM     14  C   UNL     1       4.326  -1.089  23.062  0.00  0.00    +0.013 C 
ATOM     15  C   UNL     1       4.951   1.000  24.068  0.00  0.00    +0.001 C 
ATOM     16  C   UNL     1       5.441  -0.422  23.861  0.00  0.00    +0.001 C 
ENDBRANCH  19  11
ENDBRANCH  18   7
ENDBRANCH   9  18
TORSDOF 8
ENDMDL
MODEL 5
REMARK VINA RESULT:      -0.9      2.667      6.557
REMARK  Name = 75536564
REMARK  9 active torsions:
REMARK  status: ('A' for Active; 'I' for Inactive)
REMARK    1  A    between atoms: S_1  and  C_24
REMARK    2  A    between atoms: S_1  and  C_27
REMARK    3  A    between atoms: O_3  and  C_10
REMARK    4  A    between atoms: N_7  and  C_18
REMARK    5  A    between atoms: N_8  and  C_12
REMARK    6  A    between atoms: N_8  and  C_20
REMARK    7  A    between atoms: C_9  and  C_18
REMARK    8  A    between atoms: C_11  and  C_19
REMARK    9  A    between atoms: C_20  and  C_21
REMARK                            x       y       z     vdW  Elec       q    Type
REMARK                         _______ _______ _______ _____ _____    ______ ____
ROOT
ATOM      2  O   UNL     1      -0.954  -0.886  26.118  0.00  0.00    -0.371 OA
ATOM      9  C   UNL     1      -0.412  -1.529  24.952  0.00  0.00    +0.165 C 
ATOM     10  C   UNL     1      -1.602  -2.093  24.190  0.00  0.00    +0.164 C 
ATOM     12  C   UNL     1      -2.519  -2.492  25.333  0.00  0.00    +0.111 C 
ATOM     17  C   UNL     1      -2.306  -1.341  26.304  0.00  0.00    +0.181 C 
ENDROOT
BRANCH  10   3
ATOM      3  O   UNL     1      -1.236  -3.191  23.378  0.00  0.00    -0.388 OA
ATOM     30  H   UNL     1      -1.268  -3.998  23.919  0.00  0.00    +0.210 HD
ENDBRANCH  10   3
BRANCH  12   8
ATOM      8  N   UNL     1      -3.909  -2.649  24.938  0.00  0.00    -0.305 NA
ATOM     29  H   UNL     1      -4.510  -2.367  25.713  0.00  0.00    +0.123 HD
BRANCH   8  20
ATOM     20  C   UNL     1      -4.220  -1.826  23.776  0.00  0.00    +0.116 C 
BRANCH  20  21
ATOM     21  C   UNL     1      -4.379  -0.375  24.143  0.00  0.00    -0.033 A 
ATOM     22  C   UNL     1      -3.664   0.602  23.449  0.00  0.00    +0.007 A 
ATOM     23  C   UNL     1      -5.241  -0.007  25.176  0.00  0.00    +0.007 A 
ATOM     24  C   UNL     1      -4.673   2.315  24.823  0.00  0.00    +0.088 A 
ATOM     25  C   UNL     1      -3.811   1.947  23.789  0.00  0.00    +0.027 A 
ATOM     26  C   UNL     1      -5.389   1.338  25.516  0.00  0.00    +0.027 A 
BRANCH  24   1
ATOM      1  S   UNL     1      -4.861   3.998  25.246  0.00  0.00    -0.006 S 
ATOM      5  O   UNL     1      -4.284   4.817  24.188  0.00  0.00    -0.170 OA
ATOM      6  O   UNL     1      -6.244   4.209  25.649  0.00  0.00    -0.170 OA
ATOM     27  C   UNL     1      -3.834   4.210  26.682  0.00  0.00    +0.200 C 
ENDBRANCH  24   1
ENDBRANCH  20  21
ENDBRANCH   8  20
ENDBRANCH  12   8
BRANCH   9  18
ATOM     18  C   UNL     1       0.399  -0.530  24.146  0.00  0.00    +0.138 C 
BRANCH  18   7
ATOM      4  O   UNL     1       0.812   2.036  25.440  0.00  0.00    -0.276 OA
ATOM      7  N   UNL     1      -0.334   0.684  23.929  0.00  0.00    -0.313 N 
ATOM     19  C   UNL     1      -0.065   1.873  24.597  0.00  0.00    +0.216 C 
ATOM     28  H   UNL     1      -1.085   0.660  23.245  0.00  0.00    +0.149 HD
BRANCH  19  11
ATOM     11  C   UNL     1      -0.963   2.992  24.163  0.00  0.00    +0.075 C 
ATOM     13  C   UNL     1      -1.394   3.834  25.366  0.00  0.00    +0.013 C 
ATOM     14  C   UNL     1      -0.214   3.940  23.222  0.00  0.00    +0.013 C 
ATOM     15  C   UNL     1      -0.470   5.043  25.339  0.00  0.00    +0.001 C 
ATOM     16  C   UNL     1      -0.318   5.324  23.854  0.00  0.00    +0.001 C 
ENDBRANCH  19  11
ENDBRANCH  18   7
ENDBRANCH   9  18
TORSDOF 8
ENDMDL
MODEL 6
REMARK VINA RESULT:      -0.8      2.698      5.349
REMARK  Name = 75536564
REMARK  9 active torsions:
REMARK  status: ('A' for Active; 'I' for Inactive)
REMARK    1  A    between atoms: S_1  and  C_24
REMARK    2  A    between atoms: S_1  and  C_27
REMARK    3  A    between atoms: O_3  and  C_10
REMARK    4  A    between atoms: N_7  and  C_18
REMARK    5  A    between atoms: N_8  and  C_12
REMARK    6  A    between atoms: N_8  and  C_20
REMARK    7  A    between atoms: C_9  and  C_18
REMARK    8  A    between atoms: C_11  and  C_19
REMARK    9  A    between atoms: C_20  and  C_21
REMARK                            x       y       z     vdW  Elec       q    Type
REMARK                         _______ _______ _______ _____ _____    ______ ____
ROOT
ATOM      2  O   UNL     1      -2.523  -3.215  23.517  0.00  0.00    -0.371 OA
ATOM      9  C   UNL     1      -3.313  -2.630  24.566  0.00  0.00    +0.165 C 
ATOM     10  C   UNL     1      -2.385  -1.682  25.313  0.00  0.00    +0.164 C 
ATOM     12  C   UNL     1      -1.068  -2.431  25.223  0.00  0.00    +0.111 C 
ATOM     17  C   UNL     1      -1.133  -2.986  23.809  0.00  0.00    +0.181 C 
ENDROOT
BRANCH  10   3
ATOM      3  O   UNL     1      -2.805  -1.476  26.647  0.00  0.00    -0.388 OA
ATOM     30  H   UNL     1      -3.516  -0.812  26.646  0.00  0.00    +0.210 HD
ENDBRANCH  10   3
BRANCH  12   8
ATOM      8  N   UNL     1       0.097  -1.592  25.449  0.00  0.00    -0.305 NA
ATOM     29  H   UNL     1       0.918  -2.185  25.571  0.00  0.00    +0.123 HD
BRANCH   8  20
ATOM     20  C   UNL     1       0.326  -0.698  24.319  0.00  0.00    +0.116 C 
BRANCH  20  21
ATOM     21  C   UNL     1      -0.276   0.663  24.550  0.00  0.00    -0.033 A 
ATOM     22  C   UNL     1      -0.517   1.511  23.469  0.00  0.00    +0.007 A 
ATOM     23  C   UNL     1      -0.592   1.075  25.844  0.00  0.00    +0.007 A 
ATOM     24  C   UNL     1      -1.391   3.184  24.977  0.00  0.00    +0.088 A 
ATOM     25  C   UNL     1      -1.075   2.771  23.682  0.00  0.00    +0.027 A 
ATOM     26  C   UNL     1      -1.151   2.336  26.058  0.00  0.00    +0.027 A 
BRANCH  24   1
ATOM      1  S   UNL     1      -2.093   4.760  25.243  0.00  0.00    -0.006 S 
ATOM      5  O   UNL     1      -2.844   4.737  26.491  0.00  0.00    -0.170 OA
ATOM      6  O   UNL     1      -1.049   5.756  25.047  0.00  0.00    -0.170 OA
ATOM     27  C   UNL     1      -3.278   4.944  23.930  0.00  0.00    +0.200 C 
ENDBRANCH  24   1
ENDBRANCH  20  21
ENDBRANCH   8  20
ENDBRANCH  12   8
BRANCH   9  18
ATOM     18  C   UNL     1      -4.526  -1.938  23.970  0.00  0.00    +0.138 C 
BRANCH  18   7
ATOM      4  O   UNL     1      -3.373   0.513  22.924  0.00  0.00    -0.276 OA
ATOM      7  N   UNL     1      -4.679  -0.610  24.492  0.00  0.00    -0.313 N 
ATOM     19  C   UNL     1      -4.087   0.512  23.922  0.00  0.00    +0.216 C 
ATOM     28  H   UNL     1      -5.256  -0.498  25.320  0.00  0.00    +0.149 HD
BRANCH  19  11
ATOM     11  C   UNL     1      -4.430   1.775  24.652  0.00  0.00    +0.075 C 
ATOM     13  C   UNL     1      -5.672   2.429  24.042  0.00  0.00    +0.013 C 
ATOM     14  C   UNL     1      -4.780   1.468  26.111  0.00  0.00    +0.013 C 
ATOM     15  C   UNL     1      -6.814   2.014  24.958  0.00  0.00    +0.001 C 
ATOM     16  C   UNL     1      -6.175   2.042  26.335  0.00  0.00    +0.001 C 
ENDBRANCH  19  11
ENDBRANCH  18   7
ENDBRANCH   9  18
TORSDOF 8
ENDMDL
MODEL 7
REMARK VINA RESULT:      -0.8      2.412      5.011
REMARK  Name = 75536564
REMARK  9 active torsions:
REMARK  status: ('A' for Active; 'I' for Inactive)
REMARK    1  A    between atoms: S_1  and  C_24
REMARK    2  A    between atoms: S_1  and  C_27
REMARK    3  A    between atoms: O_3  and  C_10
REMARK    4  A    between atoms: N_7  and  C_18
REMARK    5  A    between atoms: N_8  and  C_12
REMARK    6  A    between atoms: N_8  and  C_20
REMARK    7  A    between atoms: C_9  and  C_18
REMARK    8  A    between atoms: C_11  and  C_19
REMARK    9  A    between atoms: C_20  and  C_21
REMARK                            x       y       z     vdW  Elec       q    Type
REMARK                         _______ _______ _______ _____ _____    ______ ____
ROOT
ATOM      2  O   UNL     1      -0.655   4.466  24.804  0.00  0.00    -0.371 OA
ATOM      9  C   UNL     1      -0.847   3.856  26.091  0.00  0.00    +0.165 C 
ATOM     10  C   UNL     1      -2.335   3.555  26.197  0.00  0.00    +0.164 C 
ATOM     12  C   UNL     1      -2.926   4.735  25.447  0.00  0.00    +0.111 C 
ATOM     17  C   UNL     1      -1.936   4.891  24.304  0.00  0.00    +0.181 C 
ENDROOT
BRANCH  10   3
ATOM      3  O   UNL     1      -2.765   3.493  27.543  0.00  0.00    -0.388 OA
ATOM     30  H   UNL     1      -3.709   3.261  27.553  0.00  0.00    +0.210 HD
ENDBRANCH  10   3
BRANCH  12   8
ATOM      8  N   UNL     1      -4.288   4.512  24.990  0.00  0.00    -0.305 NA
ATOM     29  H   UNL     1      -4.754   5.413  24.878  0.00  0.00    +0.123 HD
BRANCH   8  20
ATOM     20  C   UNL     1      -4.304   3.811  23.712  0.00  0.00    +0.116 C 
BRANCH  20  21
ATOM     21  C   UNL     1      -4.054   2.336  23.878  0.00  0.00    -0.033 A 
ATOM     22  C   UNL     1      -3.113   1.693  23.074  0.00  0.00    +0.007 A 
ATOM     23  C   UNL     1      -4.764   1.612  24.836  0.00  0.00    +0.007 A 
ATOM     24  C   UNL     1      -3.591  -0.398  24.186  0.00  0.00    +0.088 A 
ATOM     25  C   UNL     1      -2.881   0.326  23.228  0.00  0.00    +0.027 A 
ATOM     26  C   UNL     1      -4.533   0.245  24.991  0.00  0.00    +0.027 A 
BRANCH  24   1
ATOM      1  S   UNL     1      -3.299  -2.108  24.382  0.00  0.00    -0.006 S 
ATOM      5  O   UNL     1      -4.436  -2.845  23.847  0.00  0.00    -0.170 OA
ATOM      6  O   UNL     1      -1.958  -2.393  23.891  0.00  0.00    -0.170 OA
ATOM     27  C   UNL     1      -3.301  -2.358  26.142  0.00  0.00    +0.200 C 
ENDBRANCH  24   1
ENDBRANCH  20  21
ENDBRANCH   8  20
ENDBRANCH  12   8
BRANCH   9  18
ATOM     18  C   UNL     1       0.027   2.618  26.207  0.00  0.00    +0.138 C 
BRANCH  18   7
ATOM      4  O   UNL     1      -0.175   0.047  24.875  0.00  0.00    -0.276 OA
ATOM      7  N   UNL     1       0.580   2.249  24.936  0.00  0.00    -0.313 N 
ATOM     19  C   UNL     1       0.432   0.987  24.371  0.00  0.00    +0.216 C 
ATOM     28  H   UNL     1       1.103   2.959  24.431  0.00  0.00    +0.149 HD
BRANCH  19  11
ATOM     11  C   UNL     1       1.088   0.878  23.028  0.00  0.00    +0.075 C 
ATOM     13  C   UNL     1       2.422   1.627  23.017  0.00  0.00    +0.013 C 
ATOM     14  C   UNL     1       1.414  -0.586  22.714  0.00  0.00    +0.013 C 
ATOM     15  C   UNL     1       3.472   0.544  23.219  0.00  0.00    +0.001 C 
ATOM     16  C   UNL     1       2.912  -0.626  22.430  0.00  0.00    +0.001 C 
ENDBRANCH  19  11
ENDBRANCH  18   7
ENDBRANCH   9  18
TORSDOF 8
ENDMDL
MODEL 8
REMARK VINA RESULT:      -0.7      1.671      4.250
REMARK  Name = 75536564
REMARK  9 active torsions:
REMARK  status: ('A' for Active; 'I' for Inactive)
REMARK    1  A    between atoms: S_1  and  C_24
REMARK    2  A    between atoms: S_1  and  C_27
REMARK    3  A    between atoms: O_3  and  C_10
REMARK    4  A    between atoms: N_7  and  C_18
REMARK    5  A    between atoms: N_8  and  C_12
REMARK    6  A    between atoms: N_8  and  C_20
REMARK    7  A    between atoms: C_9  and  C_18
REMARK    8  A    between atoms: C_11  and  C_19
REMARK    9  A    between atoms: C_20  and  C_21
REMARK                            x       y       z     vdW  Elec       q    Type
REMARK                         _______ _______ _______ _____ _____    ______ ____
ROOT
ATOM      2  O   UNL     1      -3.914   2.187  23.456  0.00  0.00    -0.371 OA
ATOM      9  C   UNL     1      -5.010   2.345  24.371  0.00  0.00    +0.165 C 
ATOM     10  C   UNL     1      -4.942   1.157  25.320  0.00  0.00    +0.164 C 
ATOM     12  C   UNL     1      -4.444   0.067  24.388  0.00  0.00    +0.111 C 
ATOM     17  C   UNL     1      -3.438   0.831  23.543  0.00  0.00    +0.181 C 
ENDROOT
BRANCH  10   3
ATOM      3  O   UNL     1      -6.205   0.859  25.882  0.00  0.00    -0.388 OA
ATOM     30  H   UNL     1      -6.432   1.560  26.516  0.00  0.00    +0.210 HD
ENDBRANCH  10   3
BRANCH  12   8
ATOM      8  N   UNL     1      -3.855  -1.068  25.080  0.00  0.00    -0.305 NA
ATOM     29  H   UNL     1      -3.508  -1.735  24.392  0.00  0.00    +0.123 HD
BRANCH   8  20
ATOM     20  C   UNL     1      -2.747  -0.647  25.929  0.00  0.00    +0.116 C 
BRANCH  20  21
ATOM     21  C   UNL     1      -1.477  -0.460  25.141  0.00  0.00    -0.033 A 
ATOM     22  C   UNL     1      -0.774   0.742  25.226  0.00  0.00    +0.007 A 
ATOM     23  C   UNL     1      -1.004  -1.488  24.327  0.00  0.00    +0.007 A 
ATOM     24  C   UNL     1       0.875  -0.113  23.681  0.00  0.00    +0.088 A 
ATOM     25  C   UNL     1       0.401   0.916  24.496  0.00  0.00    +0.027 A 
ATOM     26  C   UNL     1       0.172  -1.316  23.596  0.00  0.00    +0.027 A 
BRANCH  24   1
ATOM      1  S   UNL     1       2.348   0.103  22.771  0.00  0.00    -0.006 S 
ATOM      5  O   UNL     1       2.098  -0.242  21.378  0.00  0.00    -0.170 OA
ATOM      6  O   UNL     1       2.895   1.411  23.104  0.00  0.00    -0.170 OA
ATOM     27  C   UNL     1       3.453  -1.132  23.419  0.00  0.00    +0.200 C 
ENDBRANCH  24   1
ENDBRANCH  20  21
ENDBRANCH   8  20
ENDBRANCH  12   8
BRANCH   9  18
ATOM     18  C   UNL     1      -4.899   3.685  25.077  0.00  0.00    +0.138 C 
BRANCH  18   7
ATOM      4  O   UNL     1      -3.015   3.813  27.282  0.00  0.00    -0.276 OA
ATOM      7  N   UNL     1      -3.553   4.182  25.046  0.00  0.00    -0.313 N 
ATOM     19  C   UNL     1      -2.717   4.204  26.157  0.00  0.00    +0.216 C 
ATOM     28  H   UNL     1      -3.204   4.529  24.158  0.00  0.00    +0.149 HD
BRANCH  19  11
ATOM     11  C   UNL     1      -1.357   4.749  25.842  0.00  0.00    +0.075 C 
ATOM     13  C   UNL     1      -0.412   3.625  25.412  0.00  0.00    +0.013 C 
ATOM     14  C   UNL     1      -1.435   5.720  24.660  0.00  0.00    +0.013 C 
ATOM     15  C   UNL     1      -0.399   3.695  23.892  0.00  0.00    +0.001 C 
ATOM     16  C   UNL     1      -0.457   5.187  23.618  0.00  0.00    +0.001 C 
ENDBRANCH  19  11
ENDBRANCH  18   7
ENDBRANCH   9  18
TORSDOF 8
ENDMDL
MODEL 9
REMARK VINA RESULT:       0.0      1.971      4.515
REMARK  Name = 75536564
REMARK  9 active torsions:
REMARK  status: ('A' for Active; 'I' for Inactive)
REMARK    1  A    between atoms: S_1  and  C_24
REMARK    2  A    between atoms: S_1  and  C_27
REMARK    3  A    between atoms: O_3  and  C_10
REMARK    4  A    between atoms: N_7  and  C_18
REMARK    5  A    between atoms: N_8  and  C_12
REMARK    6  A    between atoms: N_8  and  C_20
REMARK    7  A    between atoms: C_9  and  C_18
REMARK    8  A    between atoms: C_11  and  C_19
REMARK    9  A    between atoms: C_20  and  C_21
REMARK                            x       y       z     vdW  Elec       q    Type
REMARK                         _______ _______ _______ _____ _____    ______ ____
ROOT
ATOM      2  O   UNL     1      -5.183  -0.876  23.875  0.00  0.00    -0.371 OA
ATOM      9  C   UNL     1      -4.697  -0.202  25.048  0.00  0.00    +0.165 C 
ATOM     10  C   UNL     1      -3.245  -0.629  25.208  0.00  0.00    +0.164 C 
ATOM     12  C   UNL     1      -3.307  -2.065  24.718  0.00  0.00    +0.111 C 
ATOM     17  C   UNL     1      -4.273  -1.942  23.551  0.00  0.00    +0.181 C 
ENDROOT
BRANCH  10   3
ATOM      3  O   UNL     1      -2.811  -0.529  26.550  0.00  0.00    -0.388 OA
ATOM     30  H   UNL     1      -2.047  -1.119  26.670  0.00  0.00    +0.210 HD
ENDBRANCH  10   3
BRANCH  12   8
ATOM      8  N   UNL     1      -2.014  -2.604  24.328  0.00  0.00    -0.305 NA
ATOM     29  H   UNL     1      -1.777  -2.262  23.397  0.00  0.00    +0.123 HD
BRANCH   8  20
ATOM     20  C   UNL     1      -0.971  -2.191  25.260  0.00  0.00    +0.116 C 
BRANCH  20  21
ATOM     21  C   UNL     1       0.150  -1.468  24.563  0.00  0.00    -0.033 A 
ATOM     22  C   UNL     1      -0.105  -0.277  23.882  0.00  0.00    +0.007 A 
ATOM     23  C   UNL     1       1.443  -1.988  24.596  0.00  0.00    +0.007 A 
ATOM     24  C   UNL     1       2.227  -0.127  23.269  0.00  0.00    +0.088 A 
ATOM     25  C   UNL     1       0.933   0.394  23.236  0.00  0.00    +0.027 A 
ATOM     26  C   UNL     1       2.482  -1.318  23.950  0.00  0.00    +0.027 A 
BRANCH  24   1
ATOM      1  S   UNL     1       3.527   0.714  22.464  0.00  0.00    -0.006 S 
ATOM      5  O   UNL     1       3.546   0.321  21.061  0.00  0.00    -0.170 OA
ATOM      6  O   UNL     1       3.438   2.123  22.818  0.00  0.00    -0.170 OA
ATOM     27  C   UNL     1       5.005   0.056  23.204  0.00  0.00    +0.200 C 
ENDBRANCH  24   1
ENDBRANCH  20  21
ENDBRANCH   8  20
ENDBRANCH  12   8
BRANCH   9  18
ATOM     18  C   UNL     1      -4.868   1.298  24.885  0.00  0.00    +0.138 C 
BRANCH  18   7
ATOM      4  O   UNL     1      -4.587   4.163  25.262  0.00  0.00    -0.276 OA
ATOM      7  N   UNL     1      -3.707   2.009  25.338  0.00  0.00    -0.313 N 
ATOM     19  C   UNL     1      -3.662   3.390  25.491  0.00  0.00    +0.216 C 
ATOM     28  H   UNL     1      -2.881   1.460  25.559  0.00  0.00    +0.149 HD
BRANCH  19  11
ATOM     11  C   UNL     1      -2.338   3.869  26.002  0.00  0.00    +0.075 C 
ATOM     13  C   UNL     1      -1.244   2.838  25.715  0.00  0.00    +0.013 C 
ATOM     14  C   UNL     1      -1.920   5.152  25.274  0.00  0.00    +0.013 C 
ATOM     15  C   UNL     1      -0.546   3.356  24.466  0.00  0.00    +0.001 C 
ATOM     16  C   UNL     1      -0.550   4.861  24.671  0.00  0.00    +0.001 C 
ENDBRANCH  19  11
ENDBRANCH  18   7
ENDBRANCH   9  18
TORSDOF 8
ENDMDL
MODEL 10
REMARK VINA RESULT:       0.0      2.561      6.769
REMARK  Name = 75536564
REMARK  9 active torsions:
REMARK  status: ('A' for Active; 'I' for Inactive)
REMARK    1  A    between atoms: S_1  and  C_24
REMARK    2  A    between atoms: S_1  and  C_27
REMARK    3  A    between atoms: O_3  and  C_10
REMARK    4  A    between atoms: N_7  and  C_18
REMARK    5  A    between atoms: N_8  and  C_12
REMARK    6  A    between atoms: N_8  and  C_20
REMARK    7  A    between atoms: C_9  and  C_18
REMARK    8  A    between atoms: C_11  and  C_19
REMARK    9  A    between atoms: C_20  and  C_21
REMARK                            x       y       z     vdW  Elec       q    Type
REMARK                         _______ _______ _______ _____ _____    ______ ____
ROOT
ATOM      2  O   UNL     1       0.729  -0.657  22.460  0.00  0.00    -0.371 OA
ATOM      9  C   UNL     1       0.225   0.311  23.396  0.00  0.00    +0.165 C 
ATOM     10  C   UNL     1      -0.367  -0.487  24.549  0.00  0.00    +0.164 C 
ATOM     12  C   UNL     1      -0.925  -1.692  23.815  0.00  0.00    +0.111 C 
ATOM     17  C   UNL     1       0.157  -1.939  22.776  0.00  0.00    +0.181 C 
ENDROOT
BRANCH  10   3
ATOM      3  O   UNL     1      -1.364   0.243  25.238  0.00  0.00    -0.388 OA
ATOM     30  H   UNL     1      -1.322   0.006  26.180  0.00  0.00    +0.210 HD
ENDBRANCH  10   3
BRANCH  12   8
ATOM      8  N   UNL     1      -1.158  -2.841  24.674  0.00  0.00    -0.305 NA
ATOM     29  H   UNL     1      -0.756  -2.657  25.593  0.00  0.00    +0.123 HD
BRANCH   8  20
ATOM     20  C   UNL     1      -2.585  -3.101  24.827  0.00  0.00    +0.116 C 
BRANCH  20  21
ATOM     21  C   UNL     1      -3.382  -1.826  24.906  0.00  0.00    -0.033 A 
ATOM     22  C   UNL     1      -3.945  -1.284  23.750  0.00  0.00    +0.007 A 
ATOM     23  C   UNL     1      -3.556  -1.188  26.133  0.00  0.00    +0.007 A 
ATOM     24  C   UNL     1      -4.858   0.536  25.050  0.00  0.00    +0.088 A 
ATOM     25  C   UNL     1      -4.683  -0.103  23.822  0.00  0.00    +0.027 A 
ATOM     26  C   UNL     1      -4.295  -0.006  26.206  0.00  0.00    +0.027 A 
BRANCH  24   1
ATOM      1  S   UNL     1      -5.785   2.012  25.141  0.00  0.00    -0.006 S 
ATOM      5  O   UNL     1      -7.065   1.807  24.476  0.00  0.00    -0.170 OA
ATOM      6  O   UNL     1      -5.755   2.478  26.520  0.00  0.00    -0.170 OA
ATOM     27  C   UNL     1      -4.869   3.172  24.152  0.00  0.00    +0.200 C 
ENDBRANCH  24   1
ENDBRANCH  20  21
ENDBRANCH   8  20
ENDBRANCH  12   8
BRANCH   9  18
ATOM     18  C   UNL     1       1.346   1.244  23.822  0.00  0.00    +0.138 C 
BRANCH  18   7
ATOM      4  O   UNL     1      -1.125   2.746  23.564  0.00  0.00    -0.276 OA
ATOM      7  N   UNL     1       0.861   2.280  24.688  0.00  0.00    -0.313 N 
ATOM     19  C   UNL     1      -0.341   2.949  24.487  0.00  0.00    +0.216 C 
ATOM     28  H   UNL     1       1.436   2.526  25.489  0.00  0.00    +0.149 HD
BRANCH  19  11
ATOM     11  C   UNL     1      -0.618   3.966  25.552  0.00  0.00    +0.075 C 
ATOM     13  C   UNL     1      -0.868   5.342  24.931  0.00  0.00    +0.013 C 
ATOM     14  C   UNL     1      -1.896   3.602  26.315  0.00  0.00    +0.013 C 
ATOM     15  C   UNL     1      -2.383   5.483  24.904  0.00  0.00    +0.001 C 
ATOM     16  C   UNL     1      -2.810   4.817  26.200  0.00  0.00    +0.001 C 
ENDBRANCH  19  11
ENDBRANCH  18   7
ENDBRANCH   9  18
TORSDOF 8
ENDMDL
