MODEL 1
REMARK VINA RESULT:      -2.7      0.000      0.000
REMARK  Name = 75536713
REMARK  11 active torsions:
REMARK  status: ('A' for Active; 'I' for Inactive)
REMARK    1  A    between atoms: S_1  and  N_10
REMARK    2  A    between atoms: S_1  and  C_18
REMARK    3  A    between atoms: S_2  and  C_21
REMARK    4  A    between atoms: S_2  and  C_29
REMARK    5  A    between atoms: O_4  and  C_12
REMARK    6  A    between atoms: N_9  and  C_11
REMARK    7  A    between atoms: N_9  and  C_16
REMARK    8  A    between atoms: N_10  and  C_15
REMARK    9  A    between atoms: C_13  and  C_15
REMARK   10  A    between atoms: C_16  and  C_17
REMARK   11  A    between atoms: C_28  and  C_30
REMARK                            x       y       z     vdW  Elec       q    Type
REMARK                         _______ _______ _______ _____ _____    ______ ____
ROOT
ATOM      3  O   UNL     1      -0.264   4.728  24.607  0.00  0.00    -0.371 OA
ATOM     11  C   UNL     1      -2.545   4.516  25.207  0.00  0.00    +0.111 C 
ATOM     12  C   UNL     1      -1.810   3.292  25.724  0.00  0.00    +0.164 C 
ATOM     13  C   UNL     1      -0.412   3.389  25.116  0.00  0.00    +0.164 C 
ATOM     14  C   UNL     1      -1.404   5.500  25.003  0.00  0.00    +0.181 C 
ENDROOT
BRANCH  12   4
ATOM      4  O   UNL     1      -1.711   3.411  27.145  0.00  0.00    -0.388 OA
ATOM     32  H   UNL     1      -1.035   4.086  27.332  0.00  0.00    +0.210 HD
ENDBRANCH  12   4
BRANCH  11   9
ATOM      9  N   UNL     1      -3.225   4.243  23.944  0.00  0.00    -0.305 NA
ATOM     31  H   UNL     1      -3.441   5.114  23.458  0.00  0.00    +0.123 HD
BRANCH   9  16
ATOM     16  C   UNL     1      -4.467   3.510  24.164  0.00  0.00    +0.116 C 
BRANCH  16  17
ATOM     17  C   UNL     1      -4.233   2.027  24.262  0.00  0.00    -0.033 A 
ATOM     19  C   UNL     1      -4.836   1.291  25.282  0.00  0.00    +0.007 A 
ATOM     20  C   UNL     1      -3.411   1.387  23.333  0.00  0.00    +0.007 A 
ATOM     21  C   UNL     1      -3.798  -0.723  24.444  0.00  0.00    +0.088 A 
ATOM     22  C   UNL     1      -4.620  -0.084  25.373  0.00  0.00    +0.027 A 
ATOM     23  C   UNL     1      -3.195   0.012  23.424  0.00  0.00    +0.027 A 
BRANCH  21   2
ATOM      2  S   UNL     1      -3.524  -2.443  24.560  0.00  0.00    -0.006 S 
ATOM      7  O   UNL     1      -3.472  -2.820  25.964  0.00  0.00    -0.170 OA
ATOM      8  O   UNL     1      -4.464  -3.108  23.667  0.00  0.00    -0.170 OA
ATOM     29  C   UNL     1      -1.888  -2.676  23.901  0.00  0.00    +0.200 C 
ENDBRANCH  21   2
ENDBRANCH  16  17
ENDBRANCH   9  16
ENDBRANCH  11   9
BRANCH  13  15
ATOM     15  C   UNL     1      -0.177   2.415  23.973  0.00  0.00    +0.140 C 
BRANCH  15  10
ATOM     10  N   UNL     1       0.592   1.253  24.460  0.00  0.00    -0.187 NA
ATOM     33  H   UNL     1       1.276   1.451  25.202  0.00  0.00    +0.148 HD
BRANCH  10   1
ATOM      1  S   UNL     1       0.870  -0.077  23.436  0.00  0.00    +0.058 S 
ATOM      5  O   UNL     1       0.390   0.235  22.104  0.00  0.00    -0.153 OA
ATOM      6  O   UNL     1       0.431  -1.287  24.105  0.00  0.00    -0.153 OA
BRANCH   1  18
ATOM     18  C   UNL     1       2.636  -0.129  23.382  0.00  0.00    +0.105 A 
ATOM     24  C   UNL     1       3.313  -1.268  23.817  0.00  0.00    +0.029 A 
ATOM     25  C   UNL     1       3.352   0.970  22.907  0.00  0.00    +0.029 A 
ATOM     26  C   UNL     1       4.707  -1.308  23.778  0.00  0.00    +0.005 A 
ATOM     27  C   UNL     1       4.745   0.929  22.867  0.00  0.00    +0.005 A 
ATOM     28  C   UNL     1       5.423  -0.209  23.302  0.00  0.00    -0.050 A 
ATOM     30  C   UNL     1       6.914  -0.252  23.260  0.00  0.00    +0.044 C 
ENDBRANCH   1  18
ENDBRANCH  10   1
ENDBRANCH  15  10
ENDBRANCH  13  15
TORSDOF 9
ENDMDL
MODEL 2
REMARK VINA RESULT:      -2.7      2.540      6.622
REMARK  Name = 75536713
REMARK  11 active torsions:
REMARK  status: ('A' for Active; 'I' for Inactive)
REMARK    1  A    between atoms: S_1  and  N_10
REMARK    2  A    between atoms: S_1  and  C_18
REMARK    3  A    between atoms: S_2  and  C_21
REMARK    4  A    between atoms: S_2  and  C_29
REMARK    5  A    between atoms: O_4  and  C_12
REMARK    6  A    between atoms: N_9  and  C_11
REMARK    7  A    between atoms: N_9  and  C_16
REMARK    8  A    between atoms: N_10  and  C_15
REMARK    9  A    between atoms: C_13  and  C_15
REMARK   10  A    between atoms: C_16  and  C_17
REMARK   11  A    between atoms: C_28  and  C_30
REMARK                            x       y       z     vdW  Elec       q    Type
REMARK                         _______ _______ _______ _____ _____    ______ ____
ROOT
ATOM      3  O   UNL     1      -2.732   3.278  26.487  0.00  0.00    -0.371 OA
ATOM     11  C   UNL     1      -1.335   3.415  24.581  0.00  0.00    +0.111 C 
ATOM     12  C   UNL     1      -2.089   4.727  24.703  0.00  0.00    +0.164 C 
ATOM     13  C   UNL     1      -3.118   4.487  25.805  0.00  0.00    +0.164 C 
ATOM     14  C   UNL     1      -1.458   2.854  25.989  0.00  0.00    +0.181 C 
ENDROOT
BRANCH  12   4
ATOM      4  O   UNL     1      -1.162   5.724  25.139  0.00  0.00    -0.388 OA
ATOM     32  H   UNL     1      -0.308   5.282  25.284  0.00  0.00    +0.210 HD
ENDBRANCH  12   4
BRANCH  11   9
ATOM      9  N   UNL     1      -1.961   2.521  23.611  0.00  0.00    -0.305 NA
ATOM     31  H   UNL     1      -2.977   2.603  23.654  0.00  0.00    +0.123 HD
BRANCH   9  16
ATOM     16  C   UNL     1      -1.592   1.132  23.861  0.00  0.00    +0.116 C 
BRANCH  16  17
ATOM     17  C   UNL     1      -0.120   0.898  23.655  0.00  0.00    -0.033 A 
ATOM     19  C   UNL     1       0.336  -0.349  23.227  0.00  0.00    +0.007 A 
ATOM     20  C   UNL     1       0.790   1.929  23.893  0.00  0.00    +0.007 A 
ATOM     21  C   UNL     1       2.609   0.465  23.273  0.00  0.00    +0.088 A 
ATOM     22  C   UNL     1       1.700  -0.566  23.035  0.00  0.00    +0.027 A 
ATOM     23  C   UNL     1       2.155   1.712  23.701  0.00  0.00    +0.027 A 
BRANCH  21   2
ATOM      2  S   UNL     1       4.318   0.192  23.037  0.00  0.00    -0.006 S 
ATOM      7  O   UNL     1       4.599   0.163  21.610  0.00  0.00    -0.170 OA
ATOM      8  O   UNL     1       5.042   1.118  23.898  0.00  0.00    -0.170 OA
ATOM     29  C   UNL     1       4.593  -1.453  23.653  0.00  0.00    +0.200 C 
ENDBRANCH  21   2
ENDBRANCH  16  17
ENDBRANCH   9  16
ENDBRANCH  11   9
BRANCH  13  15
ATOM     15  C   UNL     1      -4.536   4.310  25.285  0.00  0.00    +0.140 C 
BRANCH  15  10
ATOM     10  N   UNL     1      -4.667   2.989  24.639  0.00  0.00    -0.187 NA
ATOM     33  H   UNL     1      -4.475   2.967  23.629  0.00  0.00    +0.148 HD
BRANCH  10   1
ATOM      1  S   UNL     1      -5.720   1.822  25.289  0.00  0.00    +0.058 S 
ATOM      5  O   UNL     1      -6.897   1.717  24.450  0.00  0.00    -0.153 OA
ATOM      6  O   UNL     1      -5.859   2.054  26.715  0.00  0.00    -0.153 OA
BRANCH   1  18
ATOM     18  C   UNL     1      -4.778   0.338  25.098  0.00  0.00    +0.105 A 
ATOM     24  C   UNL     1      -3.984  -0.124  26.147  0.00  0.00    +0.029 A 
ATOM     25  C   UNL     1      -4.827  -0.368  23.896  0.00  0.00    +0.029 A 
ATOM     26  C   UNL     1      -3.239  -1.292  25.994  0.00  0.00    +0.005 A 
ATOM     27  C   UNL     1      -4.082  -1.537  23.744  0.00  0.00    +0.005 A 
ATOM     28  C   UNL     1      -3.287  -2.000  24.793  0.00  0.00    -0.050 A 
ATOM     30  C   UNL     1      -2.490  -3.250  24.630  0.00  0.00    +0.044 C 
ENDBRANCH   1  18
ENDBRANCH  10   1
ENDBRANCH  15  10
ENDBRANCH  13  15
TORSDOF 9
ENDMDL
MODEL 3
REMARK VINA RESULT:      -1.3      2.636      7.085
REMARK  Name = 75536713
REMARK  11 active torsions:
REMARK  status: ('A' for Active; 'I' for Inactive)
REMARK    1  A    between atoms: S_1  and  N_10
REMARK    2  A    between atoms: S_1  and  C_18
REMARK    3  A    between atoms: S_2  and  C_21
REMARK    4  A    between atoms: S_2  and  C_29
REMARK    5  A    between atoms: O_4  and  C_12
REMARK    6  A    between atoms: N_9  and  C_11
REMARK    7  A    between atoms: N_9  and  C_16
REMARK    8  A    between atoms: N_10  and  C_15
REMARK    9  A    between atoms: C_13  and  C_15
REMARK   10  A    between atoms: C_16  and  C_17
REMARK   11  A    between atoms: C_28  and  C_30
REMARK                            x       y       z     vdW  Elec       q    Type
REMARK                         _______ _______ _______ _____ _____    ______ ____
ROOT
ATOM      3  O   UNL     1      -3.251  -2.410  25.109  0.00  0.00    -0.371 OA
ATOM     11  C   UNL     1      -1.643  -0.811  24.428  0.00  0.00    +0.111 C 
ATOM     12  C   UNL     1      -2.023  -0.508  25.867  0.00  0.00    +0.164 C 
ATOM     13  C   UNL     1      -3.207  -1.427  26.161  0.00  0.00    +0.164 C 
ATOM     14  C   UNL     1      -2.087  -2.258  24.288  0.00  0.00    +0.181 C 
ENDROOT
BRANCH  12   4
ATOM      4  O   UNL     1      -0.922  -0.886  26.697  0.00  0.00    -0.388 OA
ATOM     32  H   UNL     1      -0.300  -1.388  26.143  0.00  0.00    +0.210 HD
ENDBRANCH  12   4
BRANCH  11   9
ATOM      9  N   UNL     1      -2.362   0.045  23.489  0.00  0.00    -0.305 NA
ATOM     31  H   UNL     1      -2.541  -0.453  22.616  0.00  0.00    +0.123 HD
BRANCH   9  16
ATOM     16  C   UNL     1      -1.602   1.254  23.191  0.00  0.00    +0.116 C 
BRANCH  16  17
ATOM     17  C   UNL     1      -0.120   0.994  23.179  0.00  0.00    -0.033 A 
ATOM     19  C   UNL     1       0.733   1.780  23.954  0.00  0.00    +0.007 A 
ATOM     20  C   UNL     1       0.402  -0.034  22.392  0.00  0.00    +0.007 A 
ATOM     21  C   UNL     1       2.628   0.511  23.157  0.00  0.00    +0.088 A 
ATOM     22  C   UNL     1       2.107   1.538  23.943  0.00  0.00    +0.027 A 
ATOM     23  C   UNL     1       1.775  -0.275  22.382  0.00  0.00    +0.027 A 
BRANCH  21   2
ATOM      2  S   UNL     1       4.348   0.211  23.140  0.00  0.00    -0.006 S 
ATOM      7  O   UNL     1       4.806   0.166  21.759  0.00  0.00    -0.170 OA
ATOM      8  O   UNL     1       4.973   1.133  24.079  0.00  0.00    -0.170 OA
ATOM     29  C   UNL     1       4.517  -1.433  23.796  0.00  0.00    +0.200 C 
ENDBRANCH  21   2
ENDBRANCH  16  17
ENDBRANCH   9  16
ENDBRANCH  11   9
BRANCH  13  15
ATOM     15  C   UNL     1      -4.545  -0.703  26.193  0.00  0.00    +0.140 C 
BRANCH  15  10
ATOM     10  N   UNL     1      -4.609   0.271  25.086  0.00  0.00    -0.187 NA
ATOM     33  H   UNL     1      -3.849   0.212  24.396  0.00  0.00    +0.148 HD
BRANCH  10   1
ATOM      1  S   UNL     1      -5.384   1.769  25.313  0.00  0.00    +0.058 S 
ATOM      5  O   UNL     1      -5.890   1.847  26.669  0.00  0.00    -0.153 OA
ATOM      6  O   UNL     1      -6.269   2.016  24.190  0.00  0.00    -0.153 OA
BRANCH   1  18
ATOM     18  C   UNL     1      -4.035   2.901  25.166  0.00  0.00    +0.105 A 
ATOM     24  C   UNL     1      -3.984   3.790  24.093  0.00  0.00    +0.029 A 
ATOM     25  C   UNL     1      -3.018   2.902  26.121  0.00  0.00    +0.029 A 
ATOM     26  C   UNL     1      -2.918   4.681  23.975  0.00  0.00    +0.005 A 
ATOM     27  C   UNL     1      -1.952   3.793  26.004  0.00  0.00    +0.005 A 
ATOM     28  C   UNL     1      -1.901   4.683  24.931  0.00  0.00    -0.050 A 
ATOM     30  C   UNL     1      -0.761   5.635  24.805  0.00  0.00    +0.044 C 
ENDBRANCH   1  18
ENDBRANCH  10   1
ENDBRANCH  15  10
ENDBRANCH  13  15
TORSDOF 9
ENDMDL
MODEL 4
REMARK VINA RESULT:      -0.6      2.114      4.710
REMARK  Name = 75536713
REMARK  11 active torsions:
REMARK  status: ('A' for Active; 'I' for Inactive)
REMARK    1  A    between atoms: S_1  and  N_10
REMARK    2  A    between atoms: S_1  and  C_18
REMARK    3  A    between atoms: S_2  and  C_21
REMARK    4  A    between atoms: S_2  and  C_29
REMARK    5  A    between atoms: O_4  and  C_12
REMARK    6  A    between atoms: N_9  and  C_11
REMARK    7  A    between atoms: N_9  and  C_16
REMARK    8  A    between atoms: N_10  and  C_15
REMARK    9  A    between atoms: C_13  and  C_15
REMARK   10  A    between atoms: C_16  and  C_17
REMARK   11  A    between atoms: C_28  and  C_30
REMARK                            x       y       z     vdW  Elec       q    Type
REMARK                         _______ _______ _______ _____ _____    ______ ____
ROOT
ATOM      3  O   UNL     1      -2.457  -0.939  26.336  0.00  0.00    -0.371 OA
ATOM     11  C   UNL     1      -3.221  -2.447  24.678  0.00  0.00    +0.111 C 
ATOM     12  C   UNL     1      -1.711  -2.582  24.773  0.00  0.00    +0.164 C 
ATOM     13  C   UNL     1      -1.273  -1.440  25.687  0.00  0.00    +0.164 C 
ATOM     14  C   UNL     1      -3.559  -1.795  26.009  0.00  0.00    +0.181 C 
ENDROOT
BRANCH  12   4
ATOM      4  O   UNL     1      -1.424  -3.828  25.412  0.00  0.00    -0.388 OA
ATOM     32  H   UNL     1      -1.462  -3.677  26.372  0.00  0.00    +0.210 HD
ENDBRANCH  12   4
BRANCH  11   9
ATOM      9  N   UNL     1      -3.615  -1.587  23.565  0.00  0.00    -0.305 NA
ATOM     31  H   UNL     1      -2.819  -1.043  23.234  0.00  0.00    +0.123 HD
BRANCH   9  16
ATOM     16  C   UNL     1      -4.678  -0.670  23.960  0.00  0.00    +0.116 C 
BRANCH  16  17
ATOM     17  C   UNL     1      -4.151   0.713  24.234  0.00  0.00    -0.033 A 
ATOM     19  C   UNL     1      -3.063   1.201  23.511  0.00  0.00    +0.007 A 
ATOM     20  C   UNL     1      -4.751   1.508  25.211  0.00  0.00    +0.007 A 
ATOM     21  C   UNL     1      -3.175   3.277  24.741  0.00  0.00    +0.088 A 
ATOM     22  C   UNL     1      -2.575   2.483  23.763  0.00  0.00    +0.027 A 
ATOM     23  C   UNL     1      -4.263   2.790  25.464  0.00  0.00    +0.027 A 
BRANCH  21   2
ATOM      2  S   UNL     1      -2.561   4.880  25.060  0.00  0.00    -0.006 S 
ATOM      7  O   UNL     1      -2.939   5.758  23.962  0.00  0.00    -0.170 OA
ATOM      8  O   UNL     1      -2.923   5.234  26.426  0.00  0.00    -0.170 OA
ATOM     29  C   UNL     1      -0.793   4.700  24.993  0.00  0.00    +0.200 C 
ENDBRANCH  21   2
ENDBRANCH  16  17
ENDBRANCH   9  16
ENDBRANCH  11   9
BRANCH  13  15
ATOM     15  C   UNL     1      -0.610  -0.288  24.948  0.00  0.00    +0.140 C 
BRANCH  15  10
ATOM     10  N   UNL     1       0.376  -0.818  23.985  0.00  0.00    -0.187 NA
ATOM     33  H   UNL     1       0.934  -1.616  24.313  0.00  0.00    +0.148 HD
BRANCH  10   1
ATOM      1  S   UNL     1       1.040   0.203  22.797  0.00  0.00    +0.058 S 
ATOM      5  O   UNL     1       0.687   1.577  23.092  0.00  0.00    -0.153 OA
ATOM      6  O   UNL     1       0.763  -0.356  21.487  0.00  0.00    -0.153 OA
BRANCH   1  18
ATOM     18  C   UNL     1       2.774   0.011  23.084  0.00  0.00    +0.105 A 
ATOM     24  C   UNL     1       3.271  -1.200  23.566  0.00  0.00    +0.029 A 
ATOM     25  C   UNL     1       3.644   1.071  22.831  0.00  0.00    +0.029 A 
ATOM     26  C   UNL     1       4.638  -1.350  23.795  0.00  0.00    +0.005 A 
ATOM     27  C   UNL     1       5.011   0.920  23.060  0.00  0.00    +0.005 A 
ATOM     28  C   UNL     1       5.509  -0.290  23.542  0.00  0.00    -0.050 A 
ATOM     30  C   UNL     1       6.971  -0.451  23.787  0.00  0.00    +0.044 C 
ENDBRANCH   1  18
ENDBRANCH  10   1
ENDBRANCH  15  10
ENDBRANCH  13  15
TORSDOF 9
ENDMDL
MODEL 5
REMARK VINA RESULT:       0.7      2.337      5.364
REMARK  Name = 75536713
REMARK  11 active torsions:
REMARK  status: ('A' for Active; 'I' for Inactive)
REMARK    1  A    between atoms: S_1  and  N_10
REMARK    2  A    between atoms: S_1  and  C_18
REMARK    3  A    between atoms: S_2  and  C_21
REMARK    4  A    between atoms: S_2  and  C_29
REMARK    5  A    between atoms: O_4  and  C_12
REMARK    6  A    between atoms: N_9  and  C_11
REMARK    7  A    between atoms: N_9  and  C_16
REMARK    8  A    between atoms: N_10  and  C_15
REMARK    9  A    between atoms: C_13  and  C_15
REMARK   10  A    between atoms: C_16  and  C_17
REMARK   11  A    between atoms: C_28  and  C_30
REMARK                            x       y       z     vdW  Elec       q    Type
REMARK                         _______ _______ _______ _____ _____    ______ ____
ROOT
ATOM      3  O   UNL     1      -4.916   3.034  27.315  0.00  0.00    -0.371 OA
ATOM     11  C   UNL     1      -4.252   4.376  25.481  0.00  0.00    +0.111 C 
ATOM     12  C   UNL     1      -5.689   3.942  25.247  0.00  0.00    +0.164 C 
ATOM     13  C   UNL     1      -5.970   2.914  26.341  0.00  0.00    +0.164 C 
ATOM     14  C   UNL     1      -4.105   4.166  26.980  0.00  0.00    +0.181 C 
ENDROOT
BRANCH  12   4
ATOM      4  O   UNL     1      -6.527   5.081  25.449  0.00  0.00    -0.388 OA
ATOM     32  H   UNL     1      -5.964   5.871  25.380  0.00  0.00    +0.210 HD
ENDBRANCH  12   4
BRANCH  11   9
ATOM      9  N   UNL     1      -3.309   3.538  24.745  0.00  0.00    -0.305 NA
ATOM     31  H   UNL     1      -3.565   2.554  24.829  0.00  0.00    +0.123 HD
BRANCH   9  16
ATOM     16  C   UNL     1      -1.950   3.712  25.246  0.00  0.00    +0.116 C 
BRANCH  16  17
ATOM     17  C   UNL     1      -0.985   2.760  24.592  0.00  0.00    -0.033 A 
ATOM     19  C   UNL     1      -1.323   2.143  23.388  0.00  0.00    +0.007 A 
ATOM     20  C   UNL     1       0.248   2.496  25.189  0.00  0.00    +0.007 A 
ATOM     21  C   UNL     1       0.803   0.997  23.378  0.00  0.00    +0.088 A 
ATOM     22  C   UNL     1      -0.429   1.261  22.780  0.00  0.00    +0.027 A 
ATOM     23  C   UNL     1       1.142   1.615  24.582  0.00  0.00    +0.027 A 
BRANCH  21   2
ATOM      2  S   UNL     1       1.922  -0.109  22.620  0.00  0.00    -0.006 S 
ATOM      7  O   UNL     1       2.242  -1.174  23.559  0.00  0.00    -0.170 OA
ATOM      8  O   UNL     1       1.399  -0.441  21.301  0.00  0.00    -0.170 OA
ATOM     29  C   UNL     1       3.405   0.845  22.394  0.00  0.00    +0.200 C 
ENDBRANCH  21   2
ENDBRANCH  16  17
ENDBRANCH   9  16
ENDBRANCH  11   9
BRANCH  13  15
ATOM     15  C   UNL     1      -5.993   1.479  25.837  0.00  0.00    +0.140 C 
BRANCH  15  10
ATOM     10  N   UNL     1      -4.617   1.034  25.541  0.00  0.00    -0.187 NA
ATOM     33  H   UNL     1      -3.866   1.628  25.918  0.00  0.00    +0.148 HD
BRANCH  10   1
ATOM      1  S   UNL     1      -4.299   0.115  24.146  0.00  0.00    +0.058 S 
ATOM      5  O   UNL     1      -3.952   1.003  23.054  0.00  0.00    -0.153 OA
ATOM      6  O   UNL     1      -5.353  -0.869  23.979  0.00  0.00    -0.153 OA
BRANCH   1  18
ATOM     18  C   UNL     1      -2.841  -0.766  24.617  0.00  0.00    +0.105 A 
ATOM     24  C   UNL     1      -2.068  -0.314  25.686  0.00  0.00    +0.029 A 
ATOM     25  C   UNL     1      -2.462  -1.913  23.918  0.00  0.00    +0.029 A 
ATOM     26  C   UNL     1      -0.916  -1.007  26.056  0.00  0.00    +0.005 A 
ATOM     27  C   UNL     1      -1.311  -2.606  24.289  0.00  0.00    +0.005 A 
ATOM     28  C   UNL     1      -0.537  -2.154  25.358  0.00  0.00    -0.050 A 
ATOM     30  C   UNL     1       0.695  -2.895  25.754  0.00  0.00    +0.044 C 
ENDBRANCH   1  18
ENDBRANCH  10   1
ENDBRANCH  15  10
ENDBRANCH  13  15
TORSDOF 9
ENDMDL
MODEL 6
REMARK VINA RESULT:       1.0      2.410      5.831
REMARK  Name = 75536713
REMARK  11 active torsions:
REMARK  status: ('A' for Active; 'I' for Inactive)
REMARK    1  A    between atoms: S_1  and  N_10
REMARK    2  A    between atoms: S_1  and  C_18
REMARK    3  A    between atoms: S_2  and  C_21
REMARK    4  A    between atoms: S_2  and  C_29
REMARK    5  A    between atoms: O_4  and  C_12
REMARK    6  A    between atoms: N_9  and  C_11
REMARK    7  A    between atoms: N_9  and  C_16
REMARK    8  A    between atoms: N_10  and  C_15
REMARK    9  A    between atoms: C_13  and  C_15
REMARK   10  A    between atoms: C_16  and  C_17
REMARK   11  A    between atoms: C_28  and  C_30
REMARK                            x       y       z     vdW  Elec       q    Type
REMARK                         _______ _______ _______ _____ _____    ______ ____
ROOT
ATOM      3  O   UNL     1      -3.871   3.872  26.518  0.00  0.00    -0.371 OA
ATOM     11  C   UNL     1      -2.412   3.666  24.665  0.00  0.00    +0.111 C 
ATOM     12  C   UNL     1      -3.833   3.747  24.135  0.00  0.00    +0.164 C 
ATOM     13  C   UNL     1      -4.719   3.654  25.375  0.00  0.00    +0.164 C 
ATOM     14  C   UNL     1      -2.568   4.251  26.059  0.00  0.00    +0.181 C 
ENDROOT
BRANCH  12   4
ATOM      4  O   UNL     1      -4.003   5.033  23.534  0.00  0.00    -0.388 OA
ATOM     32  H   UNL     1      -3.143   5.486  23.573  0.00  0.00    +0.210 HD
ENDBRANCH  12   4
BRANCH  11   9
ATOM      9  N   UNL     1      -1.939   2.286  24.731  0.00  0.00    -0.305 NA
ATOM     31  H   UNL     1      -1.125   2.217  25.342  0.00  0.00    +0.123 HD
BRANCH   9  16
ATOM     16  C   UNL     1      -1.574   1.792  23.408  0.00  0.00    +0.116 C 
BRANCH  16  17
ATOM     17  C   UNL     1      -0.128   1.380  23.342  0.00  0.00    -0.033 A 
ATOM     19  C   UNL     1       0.850   2.168  23.948  0.00  0.00    +0.007 A 
ATOM     20  C   UNL     1       0.234   0.209  22.675  0.00  0.00    +0.007 A 
ATOM     21  C   UNL     1       2.552   0.617  23.222  0.00  0.00    +0.088 A 
ATOM     22  C   UNL     1       2.190   1.787  23.889  0.00  0.00    +0.027 A 
ATOM     23  C   UNL     1       1.574  -0.172  22.615  0.00  0.00    +0.027 A 
BRANCH  21   2
ATOM      2  S   UNL     1       4.230   0.140  23.143  0.00  0.00    -0.006 S 
ATOM      7  O   UNL     1       4.652   0.124  21.750  0.00  0.00    -0.170 OA
ATOM      8  O   UNL     1       4.968   0.939  24.112  0.00  0.00    -0.170 OA
ATOM     29  C   UNL     1       4.239  -1.546  23.707  0.00  0.00    +0.200 C 
ENDBRANCH  21   2
ENDBRANCH  16  17
ENDBRANCH   9  16
ENDBRANCH  11   9
BRANCH  13  15
ATOM     15  C   UNL     1      -5.401   2.304  25.537  0.00  0.00    +0.140 C 
BRANCH  15  10
ATOM     10  N   UNL     1      -4.384   1.234  25.562  0.00  0.00    -0.187 NA
ATOM     33  H   UNL     1      -3.487   1.483  26.000  0.00  0.00    +0.148 HD
BRANCH  10   1
ATOM      1  S   UNL     1      -4.396   0.017  24.373  0.00  0.00    +0.058 S 
ATOM      5  O   UNL     1      -4.240   0.623  23.065  0.00  0.00    -0.153 OA
ATOM      6  O   UNL     1      -5.503  -0.884  24.632  0.00  0.00    -0.153 OA
BRANCH   1  18
ATOM     18  C   UNL     1      -2.912  -0.867  24.746  0.00  0.00    +0.105 A 
ATOM     24  C   UNL     1      -2.077  -0.426  25.772  0.00  0.00    +0.029 A 
ATOM     25  C   UNL     1      -2.574  -2.004  24.010  0.00  0.00    +0.029 A 
ATOM     26  C   UNL     1      -0.904  -1.122  26.064  0.00  0.00    +0.005 A 
ATOM     27  C   UNL     1      -1.402  -2.700  24.303  0.00  0.00    +0.005 A 
ATOM     28  C   UNL     1      -0.566  -2.259  25.329  0.00  0.00    -0.050 A 
ATOM     30  C   UNL     1       0.688  -3.004  25.641  0.00  0.00    +0.044 C 
ENDBRANCH   1  18
ENDBRANCH  10   1
ENDBRANCH  15  10
ENDBRANCH  13  15
TORSDOF 9
ENDMDL
MODEL 7
REMARK VINA RESULT:       1.2      2.227      6.698
REMARK  Name = 75536713
REMARK  11 active torsions:
REMARK  status: ('A' for Active; 'I' for Inactive)
REMARK    1  A    between atoms: S_1  and  N_10
REMARK    2  A    between atoms: S_1  and  C_18
REMARK    3  A    between atoms: S_2  and  C_21
REMARK    4  A    between atoms: S_2  and  C_29
REMARK    5  A    between atoms: O_4  and  C_12
REMARK    6  A    between atoms: N_9  and  C_11
REMARK    7  A    between atoms: N_9  and  C_16
REMARK    8  A    between atoms: N_10  and  C_15
REMARK    9  A    between atoms: C_13  and  C_15
REMARK   10  A    between atoms: C_16  and  C_17
REMARK   11  A    between atoms: C_28  and  C_30
REMARK                            x       y       z     vdW  Elec       q    Type
REMARK                         _______ _______ _______ _____ _____    ______ ____
ROOT
ATOM      3  O   UNL     1       2.463  -0.027  21.074  0.00  0.00    -0.371 OA
ATOM     11  C   UNL     1       3.233   0.831  23.142  0.00  0.00    +0.111 C 
ATOM     12  C   UNL     1       2.736  -0.585  23.379  0.00  0.00    +0.164 C 
ATOM     13  C   UNL     1       2.060  -0.987  22.070  0.00  0.00    +0.164 C 
ATOM     14  C   UNL     1       3.460   0.833  21.639  0.00  0.00    +0.181 C 
ENDROOT
BRANCH  12   4
ATOM      4  O   UNL     1       3.879  -1.418  23.590  0.00  0.00    -0.388 OA
ATOM     32  H   UNL     1       4.479  -0.940  24.187  0.00  0.00    +0.210 HD
ENDBRANCH  12   4
BRANCH  11   9
ATOM      9  N   UNL     1       2.229   1.823  23.516  0.00  0.00    -0.305 NA
ATOM     31  H   UNL     1       2.649   2.751  23.575  0.00  0.00    +0.123 HD
BRANCH   9  16
ATOM     16  C   UNL     1       1.624   1.500  24.804  0.00  0.00    +0.116 C 
BRANCH  16  17
ATOM     17  C   UNL     1       0.337   2.248  25.022  0.00  0.00    -0.033 A 
ATOM     19  C   UNL     1      -0.136   3.124  24.044  0.00  0.00    +0.007 A 
ATOM     20  C   UNL     1      -0.386   2.065  26.202  0.00  0.00    +0.007 A 
ATOM     21  C   UNL     1      -2.051   3.634  25.425  0.00  0.00    +0.088 A 
ATOM     22  C   UNL     1      -1.329   3.817  24.246  0.00  0.00    +0.027 A 
ATOM     23  C   UNL     1      -1.579   2.758  26.403  0.00  0.00    +0.027 A 
BRANCH  21   2
ATOM      2  S   UNL     1      -3.543   4.504  25.679  0.00  0.00    -0.006 S 
ATOM      7  O   UNL     1      -4.437   3.684  26.485  0.00  0.00    -0.170 OA
ATOM      8  O   UNL     1      -3.207   5.851  26.118  0.00  0.00    -0.170 OA
ATOM     29  C   UNL     1      -4.268   4.622  24.060  0.00  0.00    +0.200 C 
ENDBRANCH  21   2
ENDBRANCH  16  17
ENDBRANCH   9  16
ENDBRANCH  11   9
BRANCH  13  15
ATOM     15  C   UNL     1       0.541  -0.989  22.145  0.00  0.00    +0.140 C 
BRANCH  15  10
ATOM     10  N   UNL     1       0.110  -0.543  23.484  0.00  0.00    -0.187 NA
ATOM     33  H   UNL     1       0.729   0.132  23.950  0.00  0.00    +0.148 HD
BRANCH  10   1
ATOM      1  S   UNL     1      -0.856  -1.558  24.450  0.00  0.00    +0.058 S 
ATOM      5  O   UNL     1      -0.279  -1.648  25.778  0.00  0.00    -0.153 OA
ATOM      6  O   UNL     1      -1.163  -2.765  23.706  0.00  0.00    -0.153 OA
BRANCH   1  18
ATOM     18  C   UNL     1      -2.354  -0.628  24.567  0.00  0.00    +0.105 A 
ATOM     24  C   UNL     1      -3.267  -0.903  25.585  0.00  0.00    +0.029 A 
ATOM     25  C   UNL     1      -2.625   0.378  23.640  0.00  0.00    +0.029 A 
ATOM     26  C   UNL     1      -4.451  -0.171  25.675  0.00  0.00    +0.005 A 
ATOM     27  C   UNL     1      -3.808   1.110  23.731  0.00  0.00    +0.005 A 
ATOM     28  C   UNL     1      -4.722   0.836  24.748  0.00  0.00    -0.050 A 
ATOM     30  C   UNL     1      -5.988   1.618  24.845  0.00  0.00    +0.044 C 
ENDBRANCH   1  18
ENDBRANCH  10   1
ENDBRANCH  15  10
ENDBRANCH  13  15
TORSDOF 9
ENDMDL
