MODEL 1
REMARK VINA RESULT:       5.4      0.000      0.000
REMARK  Name = 40778181
REMARK  10 active torsions:
REMARK  status: ('A' for Active; 'I' for Inactive)
REMARK    1  A    between atoms: S_1  and  N_11
REMARK    2  A    between atoms: S_1  and  C_24
REMARK    3  A    between atoms: O_4  and  C_13
REMARK    4  A    between atoms: O_5  and  C_14
REMARK    5  A    between atoms: N_10  and  C_23
REMARK    6  A    between atoms: N_11  and  C_17
REMARK    7  A    between atoms: C_12  and  C_16
REMARK    8  A    between atoms: C_15  and  C_17
REMARK    9  A    between atoms: C_16  and  C_18
REMARK   10  A    between atoms: C_34  and  C_35
REMARK                            x       y       z     vdW  Elec       q    Type
REMARK                         _______ _______ _______ _____ _____    ______ ____
ROOT
ATOM      3  O   UNL     1      -4.050   1.783  24.322  0.00  0.00    -0.366 OA
ATOM     12  C   UNL     1      -4.877   0.913  25.115  0.00  0.00    +0.158 C 
ATOM     13  C   UNL     1      -5.416   1.777  26.245  0.00  0.00    +0.175 C 
ATOM     14  C   UNL     1      -5.601   3.108  25.546  0.00  0.00    +0.175 C 
ATOM     15  C   UNL     1      -4.385   3.157  24.628  0.00  0.00    +0.165 C 
ENDROOT
BRANCH  13   4
ATOM      4  O   UNL     1      -6.613   1.256  26.783  0.00  0.00    -0.387 OA
ATOM     36  H   UNL     1      -7.150   0.932  26.039  0.00  0.00    +0.210 HD
ENDBRANCH  13   4
BRANCH  14   5
ATOM      5  O   UNL     1      -6.772   3.081  24.731  0.00  0.00    -0.387 OA
ATOM     37  H   UNL     1      -7.508   3.420  25.268  0.00  0.00    +0.210 HD
ENDBRANCH  14   5
BRANCH  12  16
ATOM     16  C   UNL     1      -4.058  -0.269  25.601  0.00  0.00    +0.130 C 
BRANCH  16  18
ATOM      6  O   UNL     1      -4.173  -1.609  23.645  0.00  0.00    -0.276 OA
ATOM      9  N   UNL     1      -2.059  -0.902  24.301  0.00  0.00    -0.298 N 
ATOM     10  N   UNL     1       0.782  -0.610  23.827  0.00  0.00    -0.327 N 
ATOM     18  C   UNL     1      -3.446  -0.989  24.424  0.00  0.00    +0.218 C 
ATOM     19  C   UNL     1      -1.391  -1.576  23.191  0.00  0.00    +0.126 C 
ATOM     20  C   UNL     1      -1.199  -0.155  25.222  0.00  0.00    +0.126 C 
ATOM     21  C   UNL     1      -0.156  -0.814  22.719  0.00  0.00    +0.124 C 
ATOM     22  C   UNL     1       0.253  -0.634  25.193  0.00  0.00    +0.124 C 
BRANCH  10  23
ATOM      2  F   UNL     1       6.175   0.079  22.867  0.00  0.00    -0.205 F 
ATOM     23  C   UNL     1       2.142  -0.436  23.585  0.00  0.00    +0.030 A 
ATOM     25  C   UNL     1       2.599   0.739  22.990  0.00  0.00    +0.026 A 
ATOM     26  C   UNL     1       3.047  -1.437  23.937  0.00  0.00    +0.026 A 
ATOM     29  C   UNL     1       3.962   0.914  22.748  0.00  0.00    +0.040 A 
ATOM     30  C   UNL     1       4.410  -1.263  23.696  0.00  0.00    +0.040 A 
ATOM     31  C   UNL     1       4.867  -0.087  23.101  0.00  0.00    +0.124 A 
ENDBRANCH  10  23
ENDBRANCH  16  18
ENDBRANCH  12  16
BRANCH  15  17
ATOM     17  C   UNL     1      -3.170   3.798  25.282  0.00  0.00    +0.140 C 
BRANCH  17  11
ATOM     11  N   UNL     1      -2.035   2.856  25.241  0.00  0.00    -0.187 NA
ATOM     38  H   UNL     1      -2.173   1.972  25.746  0.00  0.00    +0.148 HD
BRANCH  11   1
ATOM      1  S   UNL     1      -0.448   3.439  25.052  0.00  0.00    +0.058 S 
ATOM      7  O   UNL     1      -0.475   4.887  24.957  0.00  0.00    -0.153 OA
ATOM      8  O   UNL     1       0.225   2.655  24.034  0.00  0.00    -0.153 OA
BRANCH   1  24
ATOM     24  C   UNL     1       0.283   3.009  26.603  0.00  0.00    +0.105 A 
ATOM     27  C   UNL     1      -0.479   2.368  27.579  0.00  0.00    +0.029 A 
ATOM     28  C   UNL     1       1.621   3.314  26.851  0.00  0.00    +0.029 A 
ATOM     32  C   UNL     1       0.097   2.032  28.804  0.00  0.00    +0.005 A 
ATOM     33  C   UNL     1       2.198   2.977  28.077  0.00  0.00    +0.005 A 
ATOM     34  C   UNL     1       1.435   2.336  29.053  0.00  0.00    -0.050 A 
ATOM     35  C   UNL     1       2.051   1.975  30.362  0.00  0.00    +0.044 C 
ENDBRANCH   1  24
ENDBRANCH  11   1
ENDBRANCH  17  11
ENDBRANCH  15  17
TORSDOF 9
ENDMDL
MODEL 2
REMARK VINA RESULT:       5.5     15.269     18.239
REMARK  Name = 40778181
REMARK  10 active torsions:
REMARK  status: ('A' for Active; 'I' for Inactive)
REMARK    1  A    between atoms: S_1  and  N_11
REMARK    2  A    between atoms: S_1  and  C_24
REMARK    3  A    between atoms: O_4  and  C_13
REMARK    4  A    between atoms: O_5  and  C_14
REMARK    5  A    between atoms: N_10  and  C_23
REMARK    6  A    between atoms: N_11  and  C_17
REMARK    7  A    between atoms: C_12  and  C_16
REMARK    8  A    between atoms: C_15  and  C_17
REMARK    9  A    between atoms: C_16  and  C_18
REMARK   10  A    between atoms: C_34  and  C_35
REMARK                            x       y       z     vdW  Elec       q    Type
REMARK                         _______ _______ _______ _____ _____    ______ ____
ROOT
ATOM      3  O   UNL     1      -2.075 -10.473  13.289  0.00  0.00    -0.366 OA
ATOM     12  C   UNL     1      -1.199  -9.483  13.857  0.00  0.00    +0.158 C 
ATOM     13  C   UNL     1      -2.008  -8.793  14.943  0.00  0.00    +0.175 C 
ATOM     14  C   UNL     1      -2.836  -9.943  15.479  0.00  0.00    +0.175 C 
ATOM     15  C   UNL     1      -3.164 -10.718  14.209  0.00  0.00    +0.165 C 
ENDROOT
BRANCH  13   4
ATOM      4  O   UNL     1      -1.182  -8.196  15.920  0.00  0.00    -0.387 OA
ATOM     36  H   UNL     1      -0.603  -8.892  16.276  0.00  0.00    +0.210 HD
ENDBRANCH  13   4
BRANCH  14   5
ATOM      5  O   UNL     1      -2.039 -10.780  16.317  0.00  0.00    -0.387 OA
ATOM     37  H   UNL     1      -1.884 -11.610  15.835  0.00  0.00    +0.210 HD
ENDBRANCH  14   5
BRANCH  12  16
ATOM     16  C   UNL     1      -0.724  -8.536  12.769  0.00  0.00    +0.130 C 
BRANCH  16  18
ATOM      6  O   UNL     1      -0.026  -9.656  10.796  0.00  0.00    -0.276 OA
ATOM      9  N   UNL     1      -2.276  -9.094  10.934  0.00  0.00    -0.298 N 
ATOM     10  N   UNL     1      -4.993  -9.225   9.943  0.00  0.00    -0.327 N 
ATOM     18  C   UNL     1      -0.967  -9.150  11.412  0.00  0.00    +0.218 C 
ATOM     19  C   UNL     1      -2.590  -9.661   9.626  0.00  0.00    +0.126 C 
ATOM     20  C   UNL     1      -3.394  -8.500  11.673  0.00  0.00    +0.126 C 
ATOM     21  C   UNL     1      -4.001 -10.242   9.579  0.00  0.00    +0.124 C 
ATOM     22  C   UNL     1      -4.554  -8.094  10.763  0.00  0.00    +0.124 C 
BRANCH  10  23
ATOM      2  F   UNL     1     -10.199  -9.591   8.140  0.00  0.00    -0.205 F 
ATOM     23  C   UNL     1      -6.306  -9.318   9.488  0.00  0.00    +0.030 A 
ATOM     25  C   UNL     1      -6.990 -10.529   9.576  0.00  0.00    +0.026 A 
ATOM     26  C   UNL     1      -6.937  -8.198   8.945  0.00  0.00    +0.026 A 
ATOM     29  C   UNL     1      -8.306 -10.622   9.120  0.00  0.00    +0.040 A 
ATOM     30  C   UNL     1      -8.252  -8.290   8.491  0.00  0.00    +0.040 A 
ATOM     31  C   UNL     1      -8.936  -9.502   8.579  0.00  0.00    +0.124 A 
ENDBRANCH  10  23
ENDBRANCH  16  18
ENDBRANCH  12  16
BRANCH  15  17
ATOM     17  C   UNL     1      -4.450 -10.253  13.541  0.00  0.00    +0.140 C 
BRANCH  17  11
ATOM     11  N   UNL     1      -5.609 -10.781  14.284  0.00  0.00    -0.187 NA
ATOM     38  H   UNL     1      -5.590 -11.790  14.481  0.00  0.00    +0.148 HD
BRANCH  11   1
ATOM      1  S   UNL     1      -7.122 -10.009  14.169  0.00  0.00    +0.058 S 
ATOM      7  O   UNL     1      -7.984 -10.771  13.286  0.00  0.00    -0.153 OA
ATOM      8  O   UNL     1      -6.913  -8.592  13.941  0.00  0.00    -0.153 OA
BRANCH   1  24
ATOM     24  C   UNL     1      -7.742 -10.180  15.816  0.00  0.00    +0.105 A 
ATOM     27  C   UNL     1      -9.060 -10.581  16.027  0.00  0.00    +0.029 A 
ATOM     28  C   UNL     1      -6.912  -9.911  16.905  0.00  0.00    +0.029 A 
ATOM     32  C   UNL     1      -9.551 -10.713  17.325  0.00  0.00    +0.005 A 
ATOM     33  C   UNL     1      -7.402 -10.043  18.205  0.00  0.00    +0.005 A 
ATOM     34  C   UNL     1      -8.722 -10.444  18.414  0.00  0.00    -0.050 A 
ATOM     35  C   UNL     1      -9.246 -10.585  19.804  0.00  0.00    +0.044 C 
ENDBRANCH   1  24
ENDBRANCH  11   1
ENDBRANCH  17  11
ENDBRANCH  15  17
TORSDOF 9
ENDMDL
MODEL 3
REMARK VINA RESULT:       5.5      2.676      4.638
REMARK  Name = 40778181
REMARK  10 active torsions:
REMARK  status: ('A' for Active; 'I' for Inactive)
REMARK    1  A    between atoms: S_1  and  N_11
REMARK    2  A    between atoms: S_1  and  C_24
REMARK    3  A    between atoms: O_4  and  C_13
REMARK    4  A    between atoms: O_5  and  C_14
REMARK    5  A    between atoms: N_10  and  C_23
REMARK    6  A    between atoms: N_11  and  C_17
REMARK    7  A    between atoms: C_12  and  C_16
REMARK    8  A    between atoms: C_15  and  C_17
REMARK    9  A    between atoms: C_16  and  C_18
REMARK   10  A    between atoms: C_34  and  C_35
REMARK                            x       y       z     vdW  Elec       q    Type
REMARK                         _______ _______ _______ _____ _____    ______ ____
ROOT
ATOM      3  O   UNL     1      -2.709   2.566  25.156  0.00  0.00    -0.366 OA
ATOM     12  C   UNL     1      -2.189   3.295  24.030  0.00  0.00    +0.158 C 
ATOM     13  C   UNL     1      -2.558   4.749  24.277  0.00  0.00    +0.175 C 
ATOM     14  C   UNL     1      -2.427   4.843  25.783  0.00  0.00    +0.175 C 
ATOM     15  C   UNL     1      -2.973   3.493  26.235  0.00  0.00    +0.165 C 
ENDROOT
BRANCH  13   4
ATOM      4  O   UNL     1      -1.704   5.636  23.586  0.00  0.00    -0.387 OA
ATOM     36  H   UNL     1      -1.265   5.128  22.882  0.00  0.00    +0.210 HD
ENDBRANCH  13   4
BRANCH  14   5
ATOM      5  O   UNL     1      -1.052   4.913  26.158  0.00  0.00    -0.387 OA
ATOM     37  H   UNL     1      -0.671   4.027  26.032  0.00  0.00    +0.210 HD
ENDBRANCH  14   5
BRANCH  12  16
ATOM     16  C   UNL     1      -2.773   2.737  22.745  0.00  0.00    +0.130 C 
BRANCH  16  18
ATOM      6  O   UNL     1      -3.139   0.461  22.177  0.00  0.00    -0.276 OA
ATOM      9  N   UNL     1      -0.987   1.036  22.837  0.00  0.00    -0.298 N 
ATOM     10  N   UNL     1       1.817   0.407  23.183  0.00  0.00    -0.327 N 
ATOM     18  C   UNL     1      -2.327   1.307  22.556  0.00  0.00    +0.218 C 
ATOM     19  C   UNL     1      -0.480  -0.324  22.684  0.00  0.00    +0.126 C 
ATOM     20  C   UNL     1      -0.021   2.046  23.277  0.00  0.00    +0.126 C 
ATOM     21  C   UNL     1       0.980  -0.343  22.241  0.00  0.00    +0.124 C 
ATOM     22  C   UNL     1       1.179   1.438  24.004  0.00  0.00    +0.124 C 
BRANCH  10  23
ATOM      2  F   UNL     1       7.192  -0.740  23.709  0.00  0.00    -0.205 F 
ATOM     23  C   UNL     1       3.173   0.118  23.315  0.00  0.00    +0.030 A 
ATOM     25  C   UNL     1       4.124   1.102  23.052  0.00  0.00    +0.026 A 
ATOM     26  C   UNL     1       3.579  -1.157  23.712  0.00  0.00    +0.026 A 
ATOM     29  C   UNL     1       5.483   0.813  23.186  0.00  0.00    +0.040 A 
ATOM     30  C   UNL     1       4.937  -1.446  23.846  0.00  0.00    +0.040 A 
ATOM     31  C   UNL     1       5.888  -0.461  23.582  0.00  0.00    +0.124 A 
ENDBRANCH  10  23
ENDBRANCH  16  18
ENDBRANCH  12  16
BRANCH  15  17
ATOM     17  C   UNL     1      -4.475   3.508  26.478  0.00  0.00    +0.140 C 
BRANCH  17  11
ATOM     11  N   UNL     1      -5.167   2.908  25.323  0.00  0.00    -0.187 NA
ATOM     38  H   UNL     1      -5.398   3.554  24.557  0.00  0.00    +0.148 HD
BRANCH  11   1
ATOM      1  S   UNL     1      -6.135   1.524  25.531  0.00  0.00    +0.058 S 
ATOM      7  O   UNL     1      -7.142   1.480  24.487  0.00  0.00    -0.153 OA
ATOM      8  O   UNL     1      -6.525   1.425  26.925  0.00  0.00    -0.153 OA
BRANCH   1  24
ATOM     24  C   UNL     1      -4.977   0.223  25.226  0.00  0.00    +0.105 A 
ATOM     27  C   UNL     1      -3.873   0.062  26.062  0.00  0.00    +0.029 A 
ATOM     28  C   UNL     1      -5.167  -0.640  24.147  0.00  0.00    +0.029 A 
ATOM     32  C   UNL     1      -2.958  -0.962  25.820  0.00  0.00    +0.005 A 
ATOM     33  C   UNL     1      -4.252  -1.666  23.905  0.00  0.00    +0.005 A 
ATOM     34  C   UNL     1      -3.147  -1.825  24.742  0.00  0.00    -0.050 A 
ATOM     35  C   UNL     1      -2.169  -2.921  24.483  0.00  0.00    +0.044 C 
ENDBRANCH   1  24
ENDBRANCH  11   1
ENDBRANCH  17  11
ENDBRANCH  15  17
TORSDOF 9
ENDMDL
MODEL 4
REMARK VINA RESULT:       5.9      2.267      3.388
REMARK  Name = 40778181
REMARK  10 active torsions:
REMARK  status: ('A' for Active; 'I' for Inactive)
REMARK    1  A    between atoms: S_1  and  N_11
REMARK    2  A    between atoms: S_1  and  C_24
REMARK    3  A    between atoms: O_4  and  C_13
REMARK    4  A    between atoms: O_5  and  C_14
REMARK    5  A    between atoms: N_10  and  C_23
REMARK    6  A    between atoms: N_11  and  C_17
REMARK    7  A    between atoms: C_12  and  C_16
REMARK    8  A    between atoms: C_15  and  C_17
REMARK    9  A    between atoms: C_16  and  C_18
REMARK   10  A    between atoms: C_34  and  C_35
REMARK                            x       y       z     vdW  Elec       q    Type
REMARK                         _______ _______ _______ _____ _____    ______ ____
ROOT
ATOM      3  O   UNL     1      -3.521   4.527  24.436  0.00  0.00    -0.366 OA
ATOM     12  C   UNL     1      -4.120   3.480  23.653  0.00  0.00    +0.158 C 
ATOM     13  C   UNL     1      -4.424   2.358  24.633  0.00  0.00    +0.175 C 
ATOM     14  C   UNL     1      -4.806   3.136  25.875  0.00  0.00    +0.175 C 
ATOM     15  C   UNL     1      -3.827   4.304  25.832  0.00  0.00    +0.165 C 
ENDROOT
BRANCH  13   4
ATOM      4  O   UNL     1      -5.453   1.512  24.165  0.00  0.00    -0.387 OA
ATOM     36  H   UNL     1      -5.381   0.671  24.649  0.00  0.00    +0.210 HD
ENDBRANCH  13   4
BRANCH  14   5
ATOM      5  O   UNL     1      -6.127   3.660  25.745  0.00  0.00    -0.387 OA
ATOM     37  H   UNL     1      -6.742   2.983  26.077  0.00  0.00    +0.210 HD
ENDBRANCH  14   5
BRANCH  12  16
ATOM     16  C   UNL     1      -3.173   3.066  22.541  0.00  0.00    +0.130 C 
BRANCH  16  18
ATOM      6  O   UNL     1      -3.663   0.747  22.670  0.00  0.00    -0.276 OA
ATOM      9  N   UNL     1      -1.432   1.354  22.898  0.00  0.00    -0.298 N 
ATOM     10  N   UNL     1       1.377   0.681  23.086  0.00  0.00    -0.327 N 
ATOM     18  C   UNL     1      -2.789   1.615  22.706  0.00  0.00    +0.218 C 
ATOM     19  C   UNL     1      -0.982  -0.024  23.071  0.00  0.00    +0.126 C 
ATOM     20  C   UNL     1      -0.394   2.388  22.930  0.00  0.00    +0.126 C 
ATOM     21  C   UNL     1       0.412  -0.247  22.489  0.00  0.00    +0.124 C 
ATOM     22  C   UNL     1       0.872   1.932  23.657  0.00  0.00    +0.124 C 
BRANCH  10  23
ATOM      2  F   UNL     1       6.747  -0.587  23.300  0.00  0.00    -0.205 F 
ATOM     23  C   UNL     1       2.732   0.362  23.139  0.00  0.00    +0.030 A 
ATOM     25  C   UNL     1       3.688   1.323  22.816  0.00  0.00    +0.026 A 
ATOM     26  C   UNL     1       3.131  -0.920  23.518  0.00  0.00    +0.026 A 
ATOM     29  C   UNL     1       5.045   1.003  22.870  0.00  0.00    +0.040 A 
ATOM     30  C   UNL     1       4.488  -1.241  23.573  0.00  0.00    +0.040 A 
ATOM     31  C   UNL     1       5.444  -0.279  23.248  0.00  0.00    +0.124 A 
ENDBRANCH  10  23
ENDBRANCH  16  18
ENDBRANCH  12  16
BRANCH  15  17
ATOM     17  C   UNL     1      -2.519   4.013  26.554  0.00  0.00    +0.140 C 
BRANCH  17  11
ATOM     11  N   UNL     1      -1.692   3.112  25.731  0.00  0.00    -0.187 NA
ATOM     38  H   UNL     1      -2.076   2.876  24.807  0.00  0.00    +0.148 HD
BRANCH  11   1
ATOM      1  S   UNL     1      -0.636   2.004  26.475  0.00  0.00    +0.058 S 
ATOM      7  O   UNL     1      -0.699   2.172  27.914  0.00  0.00    -0.153 OA
ATOM      8  O   UNL     1       0.643   2.039  25.792  0.00  0.00    -0.153 OA
BRANCH   1  24
ATOM     24  C   UNL     1      -1.393   0.457  26.073  0.00  0.00    +0.105 A 
ATOM     27  C   UNL     1      -0.602  -0.664  25.831  0.00  0.00    +0.029 A 
ATOM     28  C   UNL     1      -2.783   0.361  25.996  0.00  0.00    +0.029 A 
ATOM     32  C   UNL     1      -1.198  -1.883  25.510  0.00  0.00    +0.005 A 
ATOM     33  C   UNL     1      -3.381  -0.859  25.677  0.00  0.00    +0.005 A 
ATOM     34  C   UNL     1      -2.587  -1.981  25.434  0.00  0.00    -0.050 A 
ATOM     35  C   UNL     1      -3.226  -3.285  25.092  0.00  0.00    +0.044 C 
ENDBRANCH   1  24
ENDBRANCH  11   1
ENDBRANCH  17  11
ENDBRANCH  15  17
TORSDOF 9
ENDMDL
MODEL 5
REMARK VINA RESULT:       6.2      2.213      4.549
REMARK  Name = 40778181
REMARK  10 active torsions:
REMARK  status: ('A' for Active; 'I' for Inactive)
REMARK    1  A    between atoms: S_1  and  N_11
REMARK    2  A    between atoms: S_1  and  C_24
REMARK    3  A    between atoms: O_4  and  C_13
REMARK    4  A    between atoms: O_5  and  C_14
REMARK    5  A    between atoms: N_10  and  C_23
REMARK    6  A    between atoms: N_11  and  C_17
REMARK    7  A    between atoms: C_12  and  C_16
REMARK    8  A    between atoms: C_15  and  C_17
REMARK    9  A    between atoms: C_16  and  C_18
REMARK   10  A    between atoms: C_34  and  C_35
REMARK                            x       y       z     vdW  Elec       q    Type
REMARK                         _______ _______ _______ _____ _____    ______ ____
ROOT
ATOM      3  O   UNL     1      -1.723   3.997  24.801  0.00  0.00    -0.366 OA
ATOM     12  C   UNL     1      -3.034   3.932  24.212  0.00  0.00    +0.158 C 
ATOM     13  C   UNL     1      -3.846   3.021  25.119  0.00  0.00    +0.175 C 
ATOM     14  C   UNL     1      -3.287   3.374  26.481  0.00  0.00    +0.175 C 
ATOM     15  C   UNL     1      -1.805   3.562  26.178  0.00  0.00    +0.165 C 
ENDROOT
BRANCH  13   4
ATOM      4  O   UNL     1      -5.233   3.261  25.004  0.00  0.00    -0.387 OA
ATOM     36  H   UNL     1      -5.400   3.574  24.099  0.00  0.00    +0.210 HD
ENDBRANCH  13   4
BRANCH  14   5
ATOM      5  O   UNL     1      -3.812   4.625  26.923  0.00  0.00    -0.387 OA
ATOM     37  H   UNL     1      -3.298   4.897  27.703  0.00  0.00    +0.210 HD
ENDBRANCH  14   5
BRANCH  12  16
ATOM     16  C   UNL     1      -2.929   3.421  22.786  0.00  0.00    +0.130 C 
BRANCH  16  18
ATOM      6  O   UNL     1      -3.535   1.131  22.628  0.00  0.00    -0.276 OA
ATOM      9  N   UNL     1      -1.286   1.591  22.988  0.00  0.00    -0.298 N 
ATOM     10  N   UNL     1       1.479   0.756  23.174  0.00  0.00    -0.327 N 
ATOM     18  C   UNL     1      -2.621   1.943  22.790  0.00  0.00    +0.218 C 
ATOM     19  C   UNL     1      -0.909   0.181  23.010  0.00  0.00    +0.126 C 
ATOM     20  C   UNL     1      -0.201   2.559  23.170  0.00  0.00    +0.126 C 
ATOM     21  C   UNL     1       0.491  -0.045  22.445  0.00  0.00    +0.124 C 
ATOM     22  C   UNL     1       1.016   1.957  23.873  0.00  0.00    +0.124 C 
BRANCH  10  23
ATOM      2  F   UNL     1       6.771  -0.807  23.387  0.00  0.00    -0.205 F 
ATOM     23  C   UNL     1       2.814   0.362  23.227  0.00  0.00    +0.030 A 
ATOM     25  C   UNL     1       3.821   1.263  22.884  0.00  0.00    +0.026 A 
ATOM     26  C   UNL     1       3.144  -0.934  23.625  0.00  0.00    +0.026 A 
ATOM     29  C   UNL     1       5.158   0.869  22.938  0.00  0.00    +0.040 A 
ATOM     30  C   UNL     1       4.480  -1.329  23.679  0.00  0.00    +0.040 A 
ATOM     31  C   UNL     1       5.487  -0.427  23.336  0.00  0.00    +0.124 A 
ENDBRANCH  10  23
ENDBRANCH  16  18
ENDBRANCH  12  16
BRANCH  15  17
ATOM     17  C   UNL     1      -1.002   2.276  26.308  0.00  0.00    +0.140 C 
BRANCH  17  11
ATOM     11  N   UNL     1      -1.898   1.117  26.143  0.00  0.00    -0.187 NA
ATOM     38  H   UNL     1      -2.882   1.276  26.393  0.00  0.00    +0.148 HD
BRANCH  11   1
ATOM      1  S   UNL     1      -1.280  -0.464  26.260  0.00  0.00    +0.058 S 
ATOM      7  O   UNL     1      -1.397  -0.925  27.631  0.00  0.00    -0.153 OA
ATOM      8  O   UNL     1      -0.002  -0.525  25.577  0.00  0.00    -0.153 OA
BRANCH   1  24
ATOM     24  C   UNL     1      -2.434  -1.377  25.279  0.00  0.00    +0.105 A 
ATOM     27  C   UNL     1      -2.074  -2.618  24.753  0.00  0.00    +0.029 A 
ATOM     28  C   UNL     1      -3.702  -0.855  25.028  0.00  0.00    +0.029 A 
ATOM     32  C   UNL     1      -2.982  -3.336  23.976  0.00  0.00    +0.005 A 
ATOM     33  C   UNL     1      -4.612  -1.574  24.250  0.00  0.00    +0.005 A 
ATOM     34  C   UNL     1      -4.250  -2.815  23.725  0.00  0.00    -0.050 A 
ATOM     35  C   UNL     1      -5.222  -3.583  22.895  0.00  0.00    +0.044 C 
ENDBRANCH   1  24
ENDBRANCH  11   1
ENDBRANCH  17  11
ENDBRANCH  15  17
TORSDOF 9
ENDMDL
MODEL 6
REMARK VINA RESULT:       6.7      1.678      2.258
REMARK  Name = 40778181
REMARK  10 active torsions:
REMARK  status: ('A' for Active; 'I' for Inactive)
REMARK    1  A    between atoms: S_1  and  N_11
REMARK    2  A    between atoms: S_1  and  C_24
REMARK    3  A    between atoms: O_4  and  C_13
REMARK    4  A    between atoms: O_5  and  C_14
REMARK    5  A    between atoms: N_10  and  C_23
REMARK    6  A    between atoms: N_11  and  C_17
REMARK    7  A    between atoms: C_12  and  C_16
REMARK    8  A    between atoms: C_15  and  C_17
REMARK    9  A    between atoms: C_16  and  C_18
REMARK   10  A    between atoms: C_34  and  C_35
REMARK                            x       y       z     vdW  Elec       q    Type
REMARK                         _______ _______ _______ _____ _____    ______ ____
ROOT
ATOM      3  O   UNL     1      -4.721   0.266  23.915  0.00  0.00    -0.366 OA
ATOM     12  C   UNL     1      -5.182   0.062  25.262  0.00  0.00    +0.158 C 
ATOM     13  C   UNL     1      -5.357   1.453  25.851  0.00  0.00    +0.175 C 
ATOM     14  C   UNL     1      -5.841   2.232  24.646  0.00  0.00    +0.175 C 
ATOM     15  C   UNL     1      -5.011   1.627  23.520  0.00  0.00    +0.165 C 
ENDROOT
BRANCH  13   4
ATOM      4  O   UNL     1      -6.271   1.461  26.926  0.00  0.00    -0.387 OA
ATOM     36  H   UNL     1      -6.488   2.390  27.116  0.00  0.00    +0.210 HD
ENDBRANCH  13   4
BRANCH  14   5
ATOM      5  O   UNL     1      -7.215   1.944  24.388  0.00  0.00    -0.387 OA
ATOM     37  H   UNL     1      -7.385   2.150  23.453  0.00  0.00    +0.210 HD
ENDBRANCH  14   5
BRANCH  12  16
ATOM     16  C   UNL     1      -4.181  -0.790  26.022  0.00  0.00    +0.130 C 
BRANCH  16  18
ATOM      6  O   UNL     1      -4.082  -2.668  24.573  0.00  0.00    -0.276 OA
ATOM      9  N   UNL     1      -2.128  -1.434  24.814  0.00  0.00    -0.298 N 
ATOM     10  N   UNL     1       0.593  -0.809  24.047  0.00  0.00    -0.327 N 
ATOM     18  C   UNL     1      -3.470  -1.720  25.069  0.00  0.00    +0.218 C 
ATOM     19  C   UNL     1      -1.369  -2.290  23.907  0.00  0.00    +0.126 C 
ATOM     20  C   UNL     1      -1.406  -0.300  25.397  0.00  0.00    +0.126 C 
ATOM     21  C   UNL     1      -0.314  -1.507  23.131  0.00  0.00    +0.124 C 
ATOM     22  C   UNL     1       0.110  -0.501  25.396  0.00  0.00    +0.124 C 
BRANCH  10  23
ATOM      2  F   UNL     1       5.731   0.483  22.493  0.00  0.00    -0.205 F 
ATOM     23  C   UNL     1       1.889  -0.483  23.655  0.00  0.00    +0.030 A 
ATOM     25  C   UNL     1       2.146   0.748  23.054  0.00  0.00    +0.026 A 
ATOM     26  C   UNL     1       2.929  -1.388  23.864  0.00  0.00    +0.026 A 
ATOM     29  C   UNL     1       3.444   1.076  22.662  0.00  0.00    +0.040 A 
ATOM     30  C   UNL     1       4.227  -1.062  23.472  0.00  0.00    +0.040 A 
ATOM     31  C   UNL     1       4.484   0.170  22.871  0.00  0.00    +0.124 A 
ENDBRANCH  10  23
ENDBRANCH  16  18
ENDBRANCH  12  16
BRANCH  15  17
ATOM     17  C   UNL     1      -3.684   2.342  23.306  0.00  0.00    +0.140 C 
BRANCH  17  11
ATOM     11  N   UNL     1      -3.932   3.773  23.051  0.00  0.00    -0.187 NA
ATOM     38  H   UNL     1      -3.863   4.068  22.069  0.00  0.00    +0.148 HD
BRANCH  11   1
ATOM      1  S   UNL     1      -3.620   4.924  24.264  0.00  0.00    +0.058 S 
ATOM      7  O   UNL     1      -4.749   4.983  25.173  0.00  0.00    -0.153 OA
ATOM      8  O   UNL     1      -3.116   6.137  23.647  0.00  0.00    -0.153 OA
BRANCH   1  24
ATOM     24  C   UNL     1      -2.265   4.183  25.126  0.00  0.00    +0.105 A 
ATOM     27  C   UNL     1      -1.004   4.135  24.533  0.00  0.00    +0.029 A 
ATOM     28  C   UNL     1      -2.460   3.642  26.397  0.00  0.00    +0.029 A 
ATOM     32  C   UNL     1       0.064   3.547  25.211  0.00  0.00    +0.005 A 
ATOM     33  C   UNL     1      -1.392   3.054  27.076  0.00  0.00    +0.005 A 
ATOM     34  C   UNL     1      -0.130   3.007  26.482  0.00  0.00    -0.050 A 
ATOM     35  C   UNL     1       1.012   2.379  27.208  0.00  0.00    +0.044 C 
ENDBRANCH   1  24
ENDBRANCH  11   1
ENDBRANCH  17  11
ENDBRANCH  15  17
TORSDOF 9
ENDMDL
MODEL 7
REMARK VINA RESULT:       7.8      2.162      3.293
REMARK  Name = 40778181
REMARK  10 active torsions:
REMARK  status: ('A' for Active; 'I' for Inactive)
REMARK    1  A    between atoms: S_1  and  N_11
REMARK    2  A    between atoms: S_1  and  C_24
REMARK    3  A    between atoms: O_4  and  C_13
REMARK    4  A    between atoms: O_5  and  C_14
REMARK    5  A    between atoms: N_10  and  C_23
REMARK    6  A    between atoms: N_11  and  C_17
REMARK    7  A    between atoms: C_12  and  C_16
REMARK    8  A    between atoms: C_15  and  C_17
REMARK    9  A    between atoms: C_16  and  C_18
REMARK   10  A    between atoms: C_34  and  C_35
REMARK                            x       y       z     vdW  Elec       q    Type
REMARK                         _______ _______ _______ _____ _____    ______ ____
ROOT
ATOM      3  O   UNL     1      -3.889   1.827  25.149  0.00  0.00    -0.366 OA
ATOM     12  C   UNL     1      -4.909   0.874  25.498  0.00  0.00    +0.158 C 
ATOM     13  C   UNL     1      -5.778   1.564  26.537  0.00  0.00    +0.175 C 
ATOM     14  C   UNL     1      -5.756   2.997  26.045  0.00  0.00    +0.175 C 
ATOM     15  C   UNL     1      -4.318   3.145  25.562  0.00  0.00    +0.165 C 
ENDROOT
BRANCH  13   4
ATOM      4  O   UNL     1      -7.076   1.012  26.592  0.00  0.00    -0.387 OA
ATOM     36  H   UNL     1      -7.706   1.753  26.615  0.00  0.00    +0.210 HD
ENDBRANCH  13   4
BRANCH  14   5
ATOM      5  O   UNL     1      -6.621   3.148  24.920  0.00  0.00    -0.387 OA
ATOM     37  H   UNL     1      -7.224   3.886  25.115  0.00  0.00    +0.210 HD
ENDBRANCH  14   5
BRANCH  12  16
ATOM     16  C   UNL     1      -4.264  -0.403  26.007  0.00  0.00    +0.130 C 
BRANCH  16  18
ATOM      6  O   UNL     1      -4.428  -1.877  24.153  0.00  0.00    -0.276 OA
ATOM      9  N   UNL     1      -2.310  -1.063  24.652  0.00  0.00    -0.298 N 
ATOM     10  N   UNL     1       0.493  -0.718  24.017  0.00  0.00    -0.327 N 
ATOM     18  C   UNL     1      -3.686  -1.183  24.851  0.00  0.00    +0.218 C 
ATOM     19  C   UNL     1      -1.675  -1.791  23.558  0.00  0.00    +0.126 C 
ATOM     20  C   UNL     1      -1.432  -0.229  25.477  0.00  0.00    +0.126 C 
ATOM     21  C   UNL     1      -0.490  -1.026  22.974  0.00  0.00    +0.124 C 
ATOM     22  C   UNL     1       0.032  -0.664  25.406  0.00  0.00    +0.124 C 
BRANCH  10  23
ATOM      2  F   UNL     1       5.807   0.067  22.740  0.00  0.00    -0.205 F 
ATOM     23  C   UNL     1       1.833  -0.520  23.694  0.00  0.00    +0.030 A 
ATOM     25  C   UNL     1       2.232   0.660  23.068  0.00  0.00    +0.026 A 
ATOM     26  C   UNL     1       2.776  -1.502  23.999  0.00  0.00    +0.026 A 
ATOM     29  C   UNL     1       3.575   0.859  22.745  0.00  0.00    +0.040 A 
ATOM     30  C   UNL     1       4.119  -1.303  23.677  0.00  0.00    +0.040 A 
ATOM     31  C   UNL     1       4.517  -0.123  23.050  0.00  0.00    +0.124 A 
ENDBRANCH  10  23
ENDBRANCH  16  18
ENDBRANCH  12  16
BRANCH  15  17
ATOM     17  C   UNL     1      -3.369   3.624  26.651  0.00  0.00    +0.140 C 
BRANCH  17  11
ATOM     11  N   UNL     1      -2.615   4.795  26.166  0.00  0.00    -0.187 NA
ATOM     38  H   UNL     1      -3.177   5.629  25.952  0.00  0.00    +0.148 HD
BRANCH  11   1
ATOM      1  S   UNL     1      -1.142   4.581  25.342  0.00  0.00    +0.058 S 
ATOM      7  O   UNL     1      -0.238   3.802  26.167  0.00  0.00    -0.153 OA
ATOM      8  O   UNL     1      -0.715   5.856  24.797  0.00  0.00    -0.153 OA
BRANCH   1  24
ATOM     24  C   UNL     1      -1.635   3.574  23.974  0.00  0.00    +0.105 A 
ATOM     27  C   UNL     1      -0.840   2.499  23.578  0.00  0.00    +0.029 A 
ATOM     28  C   UNL     1      -2.816   3.859  23.290  0.00  0.00    +0.029 A 
ATOM     32  C   UNL     1      -1.227   1.707  22.497  0.00  0.00    +0.005 A 
ATOM     33  C   UNL     1      -3.204   3.066  22.208  0.00  0.00    +0.005 A 
ATOM     34  C   UNL     1      -2.408   1.991  21.813  0.00  0.00    -0.050 A 
ATOM     35  C   UNL     1      -2.823   1.143  20.657  0.00  0.00    +0.044 C 
ENDBRANCH   1  24
ENDBRANCH  11   1
ENDBRANCH  17  11
ENDBRANCH  15  17
TORSDOF 9
ENDMDL
MODEL 8
REMARK VINA RESULT:       9.3      2.973      6.128
REMARK  Name = 40778181
REMARK  10 active torsions:
REMARK  status: ('A' for Active; 'I' for Inactive)
REMARK    1  A    between atoms: S_1  and  N_11
REMARK    2  A    between atoms: S_1  and  C_24
REMARK    3  A    between atoms: O_4  and  C_13
REMARK    4  A    between atoms: O_5  and  C_14
REMARK    5  A    between atoms: N_10  and  C_23
REMARK    6  A    between atoms: N_11  and  C_17
REMARK    7  A    between atoms: C_12  and  C_16
REMARK    8  A    between atoms: C_15  and  C_17
REMARK    9  A    between atoms: C_16  and  C_18
REMARK   10  A    between atoms: C_34  and  C_35
REMARK                            x       y       z     vdW  Elec       q    Type
REMARK                         _______ _______ _______ _____ _____    ______ ____
ROOT
ATOM      3  O   UNL     1      -0.753   4.582  24.336  0.00  0.00    -0.366 OA
ATOM     12  C   UNL     1      -1.790   4.694  25.328  0.00  0.00    +0.158 C 
ATOM     13  C   UNL     1      -1.757   3.388  26.105  0.00  0.00    +0.175 C 
ATOM     14  C   UNL     1      -0.274   3.080  26.117  0.00  0.00    +0.175 C 
ATOM     15  C   UNL     1       0.155   3.524  24.724  0.00  0.00    +0.165 C 
ENDROOT
BRANCH  13   4
ATOM      4  O   UNL     1      -2.310   3.527  27.396  0.00  0.00    -0.387 OA
ATOM     36  H   UNL     1      -1.736   3.041  28.013  0.00  0.00    +0.210 HD
ENDBRANCH  13   4
BRANCH  14   5
ATOM      5  O   UNL     1       0.395   3.904  27.072  0.00  0.00    -0.387 OA
ATOM     37  H   UNL     1      -0.104   3.847  27.905  0.00  0.00    +0.210 HD
ENDBRANCH  14   5
BRANCH  12  16
ATOM     16  C   UNL     1      -3.121   4.956  24.648  0.00  0.00    +0.130 C 
BRANCH  16  18
ATOM      6  O   UNL     1      -5.134   4.515  25.828  0.00  0.00    -0.276 OA
ATOM      9  N   UNL     1      -3.986   2.672  25.001  0.00  0.00    -0.298 N 
ATOM     10  N   UNL     1      -3.804  -0.160  24.431  0.00  0.00    -0.327 N 
ATOM     18  C   UNL     1      -4.177   4.038  25.214  0.00  0.00    +0.218 C 
ATOM     19  C   UNL     1      -4.961   1.719  25.522  0.00  0.00    +0.126 C 
ATOM     20  C   UNL     1      -2.854   2.108  24.262  0.00  0.00    +0.126 C 
ATOM     21  C   UNL     1      -5.102   0.494  24.621  0.00  0.00    +0.124 C 
ATOM     22  C   UNL     1      -2.592   0.643  24.611  0.00  0.00    +0.124 C 
BRANCH  10  23
ATOM      2  F   UNL     1      -3.509  -5.536  23.208  0.00  0.00    -0.205 F 
ATOM     23  C   UNL     1      -3.730  -1.516  24.122  0.00  0.00    +0.030 A 
ATOM     25  C   UNL     1      -4.799  -2.145  23.487  0.00  0.00    +0.026 A 
ATOM     26  C   UNL     1      -2.585  -2.244  24.449  0.00  0.00    +0.026 A 
ATOM     29  C   UNL     1      -4.725  -3.504  23.178  0.00  0.00    +0.040 A 
ATOM     30  C   UNL     1      -2.510  -3.602  24.139  0.00  0.00    +0.040 A 
ATOM     31  C   UNL     1      -3.581  -4.231  23.504  0.00  0.00    +0.124 A 
ENDBRANCH  10  23
ENDBRANCH  16  18
ENDBRANCH  12  16
BRANCH  15  17
ATOM     17  C   UNL     1       0.049   2.417  23.686  0.00  0.00    +0.140 C 
BRANCH  17  11
ATOM     11  N   UNL     1       0.523   1.148  24.270  0.00  0.00    -0.187 NA
ATOM     38  H   UNL     1       1.026   1.229  25.162  0.00  0.00    +0.148 HD
BRANCH  11   1
ATOM      1  S   UNL     1       0.875  -0.177  23.262  0.00  0.00    +0.058 S 
ATOM      7  O   UNL     1       0.455   0.124  21.907  0.00  0.00    -0.153 OA
ATOM      8  O   UNL     1       0.429  -1.396  23.910  0.00  0.00    -0.153 OA
BRANCH   1  24
ATOM     24  C   UNL     1       2.643  -0.195  23.292  0.00  0.00    +0.105 A 
ATOM     27  C   UNL     1       3.322  -1.317  23.765  0.00  0.00    +0.029 A 
ATOM     28  C   UNL     1       3.359   0.916  22.845  0.00  0.00    +0.029 A 
ATOM     32  C   UNL     1       4.716  -1.330  23.793  0.00  0.00    +0.005 A 
ATOM     33  C   UNL     1       4.755   0.904  22.871  0.00  0.00    +0.005 A 
ATOM     34  C   UNL     1       5.432  -0.220  23.345  0.00  0.00    -0.050 A 
ATOM     35  C   UNL     1       6.923  -0.233  23.373  0.00  0.00    +0.044 C 
ENDBRANCH   1  24
ENDBRANCH  11   1
ENDBRANCH  17  11
ENDBRANCH  15  17
TORSDOF 9
ENDMDL
