MODEL 1
REMARK VINA RESULT:      -3.0      0.000      0.000
REMARK  Name = 26742925
REMARK  9 active torsions:
REMARK  status: ('A' for Active; 'I' for Inactive)
REMARK    1  A    between atoms: O_4  and  C_30
REMARK    2  A    between atoms: O_4  and  C_32
REMARK    3  A    between atoms: N_6  and  C_19
REMARK    4  A    between atoms: C_8  and  C_14
REMARK    5  A    between atoms: C_9  and  C_13
REMARK    6  A    between atoms: C_13  and  C_15
REMARK    7  A    between atoms: C_14  and  C_16
REMARK    8  A    between atoms: C_18  and  C_20
REMARK    9  A    between atoms: C_19  and  C_21
REMARK                            x       y       z     vdW  Elec       q    Type
REMARK                         _______ _______ _______ _____ _____    ______ ____
ROOT
ATOM      5  N   UNL     1      -0.228   4.520  24.845  0.00  0.00    -0.316 NA
ATOM      8  C   UNL     1      -3.107   4.287  25.332  0.00  0.00    +0.004 C 
ATOM      9  C   UNL     1      -2.202   3.038  25.203  0.00  0.00    +0.012 C 
ATOM     10  C   UNL     1      -2.495   5.488  24.595  0.00  0.00    +0.019 C 
ATOM     11  C   UNL     1      -0.765   3.402  25.622  0.00  0.00    +0.085 C 
ATOM     12  C   UNL     1      -1.045   5.721  25.015  0.00  0.00    +0.081 C 
ATOM     33  H   UNL     1      -0.187   4.273  23.858  0.00  0.00    +0.122 HD
ENDROOT
BRANCH   9  13
ATOM     13  C   UNL     1      -2.217   2.403  23.805  0.00  0.00    +0.064 C 
BRANCH  13  15
ATOM      3  O   UNL     1       0.157  -0.207  23.083  0.00  0.00    -0.354 OA
ATOM      7  N   UNL     1      -1.140   0.279  23.201  0.00  0.00    -0.083 NA
ATOM     15  C   UNL     1      -1.001   1.552  23.579  0.00  0.00    +0.085 A 
ATOM     17  C   UNL     1       0.348   1.924  23.714  0.00  0.00    +0.076 A 
ATOM     18  C   UNL     1       1.034   0.783  23.391  0.00  0.00    +0.167 A 
BRANCH  18  20
ATOM      1  F   UNL     1       6.418  -0.587  23.096  0.00  0.00    -0.205 F 
ATOM     20  C   UNL     1       2.422   0.429  23.314  0.00  0.00    +0.020 A 
ATOM     22  C   UNL     1       2.832  -0.861  23.647  0.00  0.00    +0.014 A 
ATOM     23  C   UNL     1       3.361   1.377  22.906  0.00  0.00    +0.014 A 
ATOM     26  C   UNL     1       4.182  -1.204  23.573  0.00  0.00    +0.039 A 
ATOM     27  C   UNL     1       4.711   1.033  22.833  0.00  0.00    +0.039 A 
ATOM     31  C   UNL     1       5.122  -0.258  23.166  0.00  0.00    +0.123 A 
ENDBRANCH  18  20
ENDBRANCH  13  15
ENDBRANCH   9  13
BRANCH   8  14
ATOM     14  C   UNL     1      -4.545   4.045  24.877  0.00  0.00    +0.099 C 
BRANCH  14  16
ATOM      2  O   UNL     1      -5.581   2.614  26.529  0.00  0.00    -0.276 OA
ATOM      6  N   UNL     1      -4.994   1.729  24.462  0.00  0.00    -0.311 N 
ATOM     16  C   UNL     1      -5.102   2.740  25.406  0.00  0.00    +0.214 C 
ATOM     34  H   UNL     1      -4.574   1.930  23.560  0.00  0.00    +0.149 HD
BRANCH   6  19
ATOM     19  C   UNL     1      -5.445   0.378  24.699  0.00  0.00    +0.139 C 
BRANCH  19  21
ATOM     21  C   UNL     1      -4.299  -0.585  24.817  0.00  0.00    -0.030 A 
ATOM     24  C   UNL     1      -4.209  -1.673  23.947  0.00  0.00    +0.009 A 
ATOM     25  C   UNL     1      -3.323  -0.392  25.795  0.00  0.00    +0.009 A 
ATOM     28  C   UNL     1      -3.144  -2.567  24.056  0.00  0.00    +0.046 A 
ATOM     29  C   UNL     1      -2.258  -1.286  25.903  0.00  0.00    +0.046 A 
ATOM     30  C   UNL     1      -2.169  -2.373  25.034  0.00  0.00    +0.120 A 
BRANCH  30   4
ATOM      4  O   UNL     1      -1.129  -3.245  25.140  0.00  0.00    -0.495 OA
ATOM     32  C   UNL     1       0.137  -2.704  25.512  0.00  0.00    +0.277 C 
ENDBRANCH  30   4
ENDBRANCH  19  21
ENDBRANCH   6  19
ENDBRANCH  14  16
ENDBRANCH   8  14
TORSDOF 8
ENDMDL
MODEL 2
REMARK VINA RESULT:      -0.7     15.724     19.103
REMARK  Name = 26742925
REMARK  9 active torsions:
REMARK  status: ('A' for Active; 'I' for Inactive)
REMARK    1  A    between atoms: O_4  and  C_30
REMARK    2  A    between atoms: O_4  and  C_32
REMARK    3  A    between atoms: N_6  and  C_19
REMARK    4  A    between atoms: C_8  and  C_14
REMARK    5  A    between atoms: C_9  and  C_13
REMARK    6  A    between atoms: C_13  and  C_15
REMARK    7  A    between atoms: C_14  and  C_16
REMARK    8  A    between atoms: C_18  and  C_20
REMARK    9  A    between atoms: C_19  and  C_21
REMARK                            x       y       z     vdW  Elec       q    Type
REMARK                         _______ _______ _______ _____ _____    ______ ____
ROOT
ATOM      5  N   UNL     1      11.780  -5.574  32.019  0.00  0.00    -0.316 NA
ATOM      8  C   UNL     1      14.523  -4.906  31.240  0.00  0.00    +0.004 C 
ATOM      9  C   UNL     1      13.656  -5.877  30.403  0.00  0.00    +0.012 C 
ATOM     10  C   UNL     1      14.055  -4.871  32.703  0.00  0.00    +0.019 C 
ATOM     11  C   UNL     1      12.167  -5.539  30.607  0.00  0.00    +0.085 C 
ATOM     12  C   UNL     1      12.553  -4.611  32.802  0.00  0.00    +0.081 C 
ATOM     33  H   UNL     1      11.917  -6.509  32.396  0.00  0.00    +0.122 HD
ENDROOT
BRANCH   9  13
ATOM     13  C   UNL     1      13.922  -7.360  30.700  0.00  0.00    +0.064 C 
BRANCH  13  15
ATOM      3  O   UNL     1      11.648  -9.117  32.869  0.00  0.00    -0.354 OA
ATOM      7  N   UNL     1      12.914  -8.660  32.526  0.00  0.00    -0.083 NA
ATOM     15  C   UNL     1      12.745  -8.001  31.377  0.00  0.00    +0.085 A 
ATOM     17  C   UNL     1      11.406  -8.009  30.950  0.00  0.00    +0.076 A 
ATOM     18  C   UNL     1      10.758  -8.723  31.923  0.00  0.00    +0.167 A 
BRANCH  18  20
ATOM      1  F   UNL     1       5.484 -10.280  32.770  0.00  0.00    -0.205 F 
ATOM     20  C   UNL     1       9.398  -9.124  32.142  0.00  0.00    +0.020 A 
ATOM     22  C   UNL     1       9.119 -10.388  32.662  0.00  0.00    +0.014 A 
ATOM     23  C   UNL     1       8.356  -8.250  31.835  0.00  0.00    +0.014 A 
ATOM     26  C   UNL     1       7.797 -10.778  32.873  0.00  0.00    +0.039 A 
ATOM     27  C   UNL     1       7.033  -8.641  32.047  0.00  0.00    +0.039 A 
ATOM     31  C   UNL     1       6.754  -9.905  32.567  0.00  0.00    +0.123 A 
ENDBRANCH  18  20
ENDBRANCH  13  15
ENDBRANCH   9  13
BRANCH   8  14
ATOM     14  C   UNL     1      16.020  -5.202  31.154  0.00  0.00    +0.099 C 
BRANCH  14  16
ATOM      2  O   UNL     1      16.210  -7.302  32.338  0.00  0.00    -0.276 OA
ATOM      6  N   UNL     1      16.734  -7.217  30.076  0.00  0.00    -0.311 N 
ATOM     16  C   UNL     1      16.321  -6.679  31.286  0.00  0.00    +0.214 C 
ATOM     34  H   UNL     1      16.803  -6.617  29.260  0.00  0.00    +0.149 HD
BRANCH   6  19
ATOM     19  C   UNL     1      17.089  -8.607  29.911  0.00  0.00    +0.139 C 
BRANCH  19  21
ATOM     21  C   UNL     1      16.549  -9.177  28.632  0.00  0.00    -0.030 A 
ATOM     24  C   UNL     1      15.578 -10.180  28.669  0.00  0.00    +0.009 A 
ATOM     25  C   UNL     1      17.016  -8.705  27.404  0.00  0.00    +0.009 A 
ATOM     28  C   UNL     1      15.076 -10.709  27.480  0.00  0.00    +0.046 A 
ATOM     29  C   UNL     1      16.513  -9.234  26.216  0.00  0.00    +0.046 A 
ATOM     30  C   UNL     1      15.544 -10.236  26.254  0.00  0.00    +0.120 A 
BRANCH  30   4
ATOM      4  O   UNL     1      15.053 -10.752  25.094  0.00  0.00    -0.495 OA
ATOM     32  C   UNL     1      13.636 -10.752  24.932  0.00  0.00    +0.277 C 
ENDBRANCH  30   4
ENDBRANCH  19  21
ENDBRANCH   6  19
ENDBRANCH  14  16
ENDBRANCH   8  14
TORSDOF 8
ENDMDL
MODEL 3
REMARK VINA RESULT:      -0.3      1.714      4.471
REMARK  Name = 26742925
REMARK  9 active torsions:
REMARK  status: ('A' for Active; 'I' for Inactive)
REMARK    1  A    between atoms: O_4  and  C_30
REMARK    2  A    between atoms: O_4  and  C_32
REMARK    3  A    between atoms: N_6  and  C_19
REMARK    4  A    between atoms: C_8  and  C_14
REMARK    5  A    between atoms: C_9  and  C_13
REMARK    6  A    between atoms: C_13  and  C_15
REMARK    7  A    between atoms: C_14  and  C_16
REMARK    8  A    between atoms: C_18  and  C_20
REMARK    9  A    between atoms: C_19  and  C_21
REMARK                            x       y       z     vdW  Elec       q    Type
REMARK                         _______ _______ _______ _____ _____    ______ ____
ROOT
ATOM      5  N   UNL     1      -0.768  -1.348  25.788  0.00  0.00    -0.316 NA
ATOM      8  C   UNL     1      -3.594  -1.443  25.025  0.00  0.00    +0.004 C 
ATOM      9  C   UNL     1      -2.465  -1.606  23.978  0.00  0.00    +0.012 C 
ATOM     10  C   UNL     1      -3.102  -0.654  26.248  0.00  0.00    +0.019 C 
ATOM     11  C   UNL     1      -1.210  -2.177  24.665  0.00  0.00    +0.085 C 
ATOM     12  C   UNL     1      -1.810  -1.245  26.810  0.00  0.00    +0.081 C 
ATOM     33  H   UNL     1      -0.519  -0.418  25.459  0.00  0.00    +0.122 HD
ENDROOT
BRANCH   9  13
ATOM     13  C   UNL     1      -2.130  -0.314  23.221  0.00  0.00    +0.064 C 
BRANCH  13  15
ATOM      3  O   UNL     1       1.011   1.249  24.031  0.00  0.00    -0.354 OA
ATOM      7  N   UNL     1      -0.378   1.204  24.035  0.00  0.00    -0.083 NA
ATOM     15  C   UNL     1      -0.690   0.069  23.405  0.00  0.00    +0.085 A 
ATOM     17  C   UNL     1       0.449  -0.638  22.984  0.00  0.00    +0.076 A 
ATOM     18  C   UNL     1       1.491   0.146  23.403  0.00  0.00    +0.167 A 
BRANCH  18  20
ATOM      1  F   UNL     1       7.035  -0.218  23.085  0.00  0.00    -0.205 F 
ATOM     20  C   UNL     1       2.921   0.051  23.320  0.00  0.00    +0.020 A 
ATOM     22  C   UNL     1       3.573  -1.084  23.799  0.00  0.00    +0.014 A 
ATOM     23  C   UNL     1       3.657   1.095  22.760  0.00  0.00    +0.014 A 
ATOM     26  C   UNL     1       4.963  -1.175  23.720  0.00  0.00    +0.039 A 
ATOM     27  C   UNL     1       5.046   1.004  22.681  0.00  0.00    +0.039 A 
ATOM     31  C   UNL     1       5.700  -0.132  23.161  0.00  0.00    +0.123 A 
ENDBRANCH  18  20
ENDBRANCH  13  15
ENDBRANCH   9  13
BRANCH   8  14
ATOM     14  C   UNL     1      -4.867  -0.821  24.452  0.00  0.00    +0.099 C 
BRANCH  14  16
ATOM      2  O   UNL     1      -4.110   1.361  23.735  0.00  0.00    -0.276 OA
ATOM      6  N   UNL     1      -5.692   1.204  25.430  0.00  0.00    -0.311 N 
ATOM     16  C   UNL     1      -4.826   0.692  24.474  0.00  0.00    +0.214 C 
ATOM     34  H   UNL     1      -6.239   0.567  26.001  0.00  0.00    +0.149 HD
BRANCH   6  19
ATOM     19  C   UNL     1      -5.854   2.619  25.670  0.00  0.00    +0.139 C 
BRANCH  19  21
ATOM     21  C   UNL     1      -4.568   3.371  25.490  0.00  0.00    -0.030 A 
ATOM     24  C   UNL     1      -3.631   3.408  26.523  0.00  0.00    +0.009 A 
ATOM     25  C   UNL     1      -4.308   4.033  24.289  0.00  0.00    +0.009 A 
ATOM     28  C   UNL     1      -2.436   4.107  26.356  0.00  0.00    +0.046 A 
ATOM     29  C   UNL     1      -3.113   4.731  24.122  0.00  0.00    +0.046 A 
ATOM     30  C   UNL     1      -2.177   4.769  25.155  0.00  0.00    +0.120 A 
BRANCH  30   4
ATOM      4  O   UNL     1      -1.010   5.450  24.992  0.00  0.00    -0.495 OA
ATOM     32  C   UNL     1      -0.002   4.830  24.195  0.00  0.00    +0.277 C 
ENDBRANCH  30   4
ENDBRANCH  19  21
ENDBRANCH   6  19
ENDBRANCH  14  16
ENDBRANCH   8  14
TORSDOF 8
ENDMDL
MODEL 4
REMARK VINA RESULT:       0.5     16.167     19.556
REMARK  Name = 26742925
REMARK  9 active torsions:
REMARK  status: ('A' for Active; 'I' for Inactive)
REMARK    1  A    between atoms: O_4  and  C_30
REMARK    2  A    between atoms: O_4  and  C_32
REMARK    3  A    between atoms: N_6  and  C_19
REMARK    4  A    between atoms: C_8  and  C_14
REMARK    5  A    between atoms: C_9  and  C_13
REMARK    6  A    between atoms: C_13  and  C_15
REMARK    7  A    between atoms: C_14  and  C_16
REMARK    8  A    between atoms: C_18  and  C_20
REMARK    9  A    between atoms: C_19  and  C_21
REMARK                            x       y       z     vdW  Elec       q    Type
REMARK                         _______ _______ _______ _____ _____    ______ ____
ROOT
ATOM      5  N   UNL     1      13.545  -9.890  29.386  0.00  0.00    -0.316 NA
ATOM      8  C   UNL     1      15.773  -8.021  29.036  0.00  0.00    +0.004 C 
ATOM      9  C   UNL     1      15.274  -8.434  30.442  0.00  0.00    +0.012 C 
ATOM     10  C   UNL     1      14.659  -8.172  27.989  0.00  0.00    +0.019 C 
ATOM     11  C   UNL     1      14.632  -9.832  30.366  0.00  0.00    +0.085 C 
ATOM     12  C   UNL     1      14.027  -9.563  28.044  0.00  0.00    +0.081 C 
ATOM     33  H   UNL     1      12.803  -9.245  29.648  0.00  0.00    +0.122 HD
ENDROOT
BRANCH   9  13
ATOM     13  C   UNL     1      14.306  -7.425  31.078  0.00  0.00    +0.064 C 
BRANCH  13  15
ATOM      3  O   UNL     1      11.939  -9.483  32.846  0.00  0.00    -0.354 OA
ATOM      7  N   UNL     1      13.233  -9.074  32.550  0.00  0.00    -0.083 NA
ATOM     15  C   UNL     1      13.093  -8.110  31.637  0.00  0.00    +0.085 A 
ATOM     17  C   UNL     1      11.745  -7.868  31.320  0.00  0.00    +0.076 A 
ATOM     18  C   UNL     1      11.061  -8.756  32.107  0.00  0.00    +0.167 A 
BRANCH  18  20
ATOM      1  F   UNL     1       5.684  -9.964  32.873  0.00  0.00    -0.205 F 
ATOM     20  C   UNL     1       9.675  -9.068  32.306  0.00  0.00    +0.020 A 
ATOM     22  C   UNL     1       9.290 -10.375  32.603  0.00  0.00    +0.014 A 
ATOM     23  C   UNL     1       8.713  -8.063  32.200  0.00  0.00    +0.014 A 
ATOM     26  C   UNL     1       7.941 -10.677  32.795  0.00  0.00    +0.039 A 
ATOM     27  C   UNL     1       7.365  -8.367  32.392  0.00  0.00    +0.039 A 
ATOM     31  C   UNL     1       6.979  -9.674  32.690  0.00  0.00    +0.123 A 
ENDBRANCH  18  20
ENDBRANCH  13  15
ENDBRANCH   9  13
BRANCH   8  14
ATOM     14  C   UNL     1      16.372  -6.615  28.994  0.00  0.00    +0.099 C 
BRANCH  14  16
ATOM      2  O   UNL     1      17.402  -5.176  27.345  0.00  0.00    -0.276 OA
ATOM      6  N   UNL     1      16.894  -7.372  26.783  0.00  0.00    -0.311 N 
ATOM     16  C   UNL     1      16.949  -6.279  27.635  0.00  0.00    +0.214 C 
ATOM     34  H   UNL     1      16.492  -8.244  27.113  0.00  0.00    +0.149 HD
BRANCH   6  19
ATOM     19  C   UNL     1      17.374  -7.336  25.421  0.00  0.00    +0.139 C 
BRANCH  19  21
ATOM     21  C   UNL     1      17.105  -6.013  24.764  0.00  0.00    -0.030 A 
ATOM     24  C   UNL     1      16.557  -4.965  25.505  0.00  0.00    +0.009 A 
ATOM     25  C   UNL     1      17.402  -5.831  23.413  0.00  0.00    +0.009 A 
ATOM     28  C   UNL     1      16.307  -3.736  24.895  0.00  0.00    +0.046 A 
ATOM     29  C   UNL     1      17.153  -4.602  22.804  0.00  0.00    +0.046 A 
ATOM     30  C   UNL     1      16.605  -3.554  23.544  0.00  0.00    +0.120 A 
BRANCH  30   4
ATOM      4  O   UNL     1      16.361  -2.355  22.949  0.00  0.00    -0.495 OA
ATOM     32  C   UNL     1      17.289  -1.302  23.207  0.00  0.00    +0.277 C 
ENDBRANCH  30   4
ENDBRANCH  19  21
ENDBRANCH   6  19
ENDBRANCH  14  16
ENDBRANCH   8  14
TORSDOF 8
ENDMDL
MODEL 5
REMARK VINA RESULT:       0.5      1.659      4.279
REMARK  Name = 26742925
REMARK  9 active torsions:
REMARK  status: ('A' for Active; 'I' for Inactive)
REMARK    1  A    between atoms: O_4  and  C_30
REMARK    2  A    between atoms: O_4  and  C_32
REMARK    3  A    between atoms: N_6  and  C_19
REMARK    4  A    between atoms: C_8  and  C_14
REMARK    5  A    between atoms: C_9  and  C_13
REMARK    6  A    between atoms: C_13  and  C_15
REMARK    7  A    between atoms: C_14  and  C_16
REMARK    8  A    between atoms: C_18  and  C_20
REMARK    9  A    between atoms: C_19  and  C_21
REMARK                            x       y       z     vdW  Elec       q    Type
REMARK                         _______ _______ _______ _____ _____    ______ ____
ROOT
ATOM      5  N   UNL     1      -1.944  -1.897  25.458  0.00  0.00    -0.316 NA
ATOM      8  C   UNL     1      -4.373  -0.662  24.383  0.00  0.00    +0.004 C 
ATOM      9  C   UNL     1      -3.072  -0.754  23.549  0.00  0.00    +0.012 C 
ATOM     10  C   UNL     1      -4.065  -0.690  25.888  0.00  0.00    +0.019 C 
ATOM     11  C   UNL     1      -2.243  -1.962  24.026  0.00  0.00    +0.085 C 
ATOM     12  C   UNL     1      -3.171  -1.875  26.253  0.00  0.00    +0.081 C 
ATOM     33  H   UNL     1      -1.390  -1.068  25.662  0.00  0.00    +0.122 HD
ENDROOT
BRANCH   9  13
ATOM     13  C   UNL     1      -2.228   0.528  23.572  0.00  0.00    +0.064 C 
BRANCH  13  15
ATOM      3  O   UNL     1       0.847  -0.357  21.922  0.00  0.00    -0.354 OA
ATOM      7  N   UNL     1      -0.535  -0.222  21.957  0.00  0.00    -0.083 NA
ATOM     15  C   UNL     1      -0.807   0.254  23.175  0.00  0.00    +0.085 A 
ATOM     17  C   UNL     1       0.354   0.437  23.947  0.00  0.00    +0.076 A 
ATOM     18  C   UNL     1       1.365   0.039  23.113  0.00  0.00    +0.167 A 
BRANCH  18  20
ATOM      1  F   UNL     1       6.902  -0.289  23.557  0.00  0.00    -0.205 F 
ATOM     20  C   UNL     1       2.792  -0.045  23.229  0.00  0.00    +0.020 A 
ATOM     22  C   UNL     1       3.585   1.054  22.896  0.00  0.00    +0.014 A 
ATOM     23  C   UNL     1       3.387  -1.226  23.673  0.00  0.00    +0.014 A 
ATOM     26  C   UNL     1       4.973   0.971  23.007  0.00  0.00    +0.039 A 
ATOM     27  C   UNL     1       4.775  -1.307  23.784  0.00  0.00    +0.039 A 
ATOM     31  C   UNL     1       5.569  -0.209  23.451  0.00  0.00    +0.123 A 
ENDBRANCH  18  20
ENDBRANCH  13  15
ENDBRANCH   9  13
BRANCH   8  14
ATOM     14  C   UNL     1      -5.238   0.546  24.027  0.00  0.00    +0.099 C 
BRANCH  14  16
ATOM      2  O   UNL     1      -5.253   2.114  25.869  0.00  0.00    -0.276 OA
ATOM      6  N   UNL     1      -3.872   2.513  24.043  0.00  0.00    -0.311 N 
ATOM     16  C   UNL     1      -4.811   1.795  24.769  0.00  0.00    +0.214 C 
ATOM     34  H   UNL     1      -3.574   2.171  23.135  0.00  0.00    +0.149 HD
BRANCH   6  19
ATOM     19  C   UNL     1      -3.292   3.750  24.511  0.00  0.00    +0.139 C 
BRANCH  19  21
ATOM     21  C   UNL     1      -2.000   3.524  25.242  0.00  0.00    -0.030 A 
ATOM     24  C   UNL     1      -0.889   4.320  24.958  0.00  0.00    +0.009 A 
ATOM     25  C   UNL     1      -1.910   2.520  26.206  0.00  0.00    +0.009 A 
ATOM     28  C   UNL     1       0.311   4.109  25.637  0.00  0.00    +0.046 A 
ATOM     29  C   UNL     1      -0.710   2.311  26.885  0.00  0.00    +0.046 A 
ATOM     30  C   UNL     1       0.401   3.105  26.601  0.00  0.00    +0.120 A 
BRANCH  30   4
ATOM      4  O   UNL     1       1.572   2.901  27.264  0.00  0.00    -0.495 OA
ATOM     32  C   UNL     1       1.489   2.666  28.668  0.00  0.00    +0.277 C 
ENDBRANCH  30   4
ENDBRANCH  19  21
ENDBRANCH   6  19
ENDBRANCH  14  16
ENDBRANCH   8  14
TORSDOF 8
ENDMDL
