MODEL 1
REMARK VINA RESULT:      17.0      0.000      0.000
REMARK  Name = 71692874
REMARK  7 active torsions:
REMARK  status: ('A' for Active; 'I' for Inactive)
REMARK    1  A    between atoms: O_4  and  C_31
REMARK    2  A    between atoms: O_4  and  C_40
REMARK    3  A    between atoms: N_8  and  C_27
REMARK    4  A    between atoms: N_10  and  C_34
REMARK    5  A    between atoms: C_12  and  C_17
REMARK    6  A    between atoms: C_17  and  C_19
REMARK    7  A    between atoms: C_27  and  C_31
REMARK                            x       y       z     vdW  Elec       q    Type
REMARK                         _______ _______ _______ _____ _____    ______ ____
ROOT
ATOM      2  O   UNL     1      -0.456   1.421  23.816  0.00  0.00    -0.492 OA
ATOM      3  O   UNL     1      -2.131  -2.492  26.433  0.00  0.00    -0.274 OA
ATOM      6  N   UNL     1      -3.645  -1.609  24.916  0.00  0.00    -0.300 N 
ATOM      9  N   UNL     1      -0.705  -1.676  23.652  0.00  0.00    -0.304 NA
ATOM     11  C   UNL     1      -4.526   0.222  23.456  0.00  0.00    +0.010 C 
ATOM     12  C   UNL     1      -5.656   0.446  24.497  0.00  0.00    +0.004 C 
ATOM     13  C   UNL     1      -5.179   0.081  25.908  0.00  0.00    +0.023 C 
ATOM     14  C   UNL     1      -4.064  -1.253  23.550  0.00  0.00    +0.111 C 
ATOM     15  C   UNL     1      -3.339   1.201  23.622  0.00  0.00    +0.008 C 
ATOM     16  C   UNL     1      -4.644  -1.347  25.957  0.00  0.00    +0.108 C 
ATOM     18  C   UNL     1      -2.398   1.225  22.410  0.00  0.00    +0.041 C 
ATOM     20  C   UNL     1      -2.462  -2.264  25.264  0.00  0.00    +0.229 C 
ATOM     21  C   UNL     1      -1.113   2.009  22.688  0.00  0.00    +0.229 C 
ATOM     26  C   UNL     1      -1.556  -2.754  24.152  0.00  0.00    +0.178 C 
ATOM     28  C   UNL     1       0.277  -1.205  24.632  0.00  0.00    +0.120 C 
ATOM     29  C   UNL     1       0.850   1.065  23.606  0.00  0.00    +0.125 A 
ATOM     30  C   UNL     1       1.251  -0.219  24.018  0.00  0.00    +0.010 A 
ATOM     32  C   UNL     1       2.591  -0.593  23.837  0.00  0.00    +0.031 A 
ATOM     33  C   UNL     1       1.778   1.963  23.068  0.00  0.00    +0.048 A 
ATOM     34  C   UNL     1       3.512   0.297  23.279  0.00  0.00    +0.030 A 
ATOM     35  C   UNL     1       3.106   1.573  22.900  0.00  0.00    +0.027 A 
ATOM     41  H   UNL     1      -1.284  -0.894  23.374  0.00  0.00    +0.123 HD
ENDROOT
BRANCH  34  10
ATOM      5  O   UNL     1       7.582  -0.606  22.738  0.00  0.00    -0.377 OA
ATOM     10  N   UNL     1       4.843  -0.093  23.108  0.00  0.00    -0.326 N 
ATOM     36  C   UNL     1       5.817   0.290  24.140  0.00  0.00    +0.133 C 
ATOM     37  C   UNL     1       5.394  -0.245  21.756  0.00  0.00    +0.133 C 
ATOM     38  C   UNL     1       7.038  -0.618  24.059  0.00  0.00    +0.178 C 
ATOM     39  C   UNL     1       6.639  -1.124  21.802  0.00  0.00    +0.178 C 
ENDBRANCH  34  10
BRANCH  12  17
ATOM     17  C   UNL     1      -6.243   1.858  24.469  0.00  0.00    +0.100 C 
BRANCH  17  19
ATOM      1  O   UNL     1      -6.249   2.351  26.787  0.00  0.00    -0.276 OA
ATOM      7  N   UNL     1      -4.841   3.633  25.457  0.00  0.00    -0.299 N 
ATOM      8  N   UNL     1      -2.404   5.123  25.220  0.00  0.00    -0.297 NA
ATOM     19  C   UNL     1      -5.785   2.632  25.680  0.00  0.00    +0.216 C 
ATOM     22  C   UNL     1      -4.342   4.426  26.580  0.00  0.00    +0.123 C 
ATOM     23  C   UNL     1      -4.370   4.079  24.142  0.00  0.00    +0.123 C 
ATOM     24  C   UNL     1      -2.823   4.579  26.520  0.00  0.00    +0.103 C 
ATOM     25  C   UNL     1      -2.850   4.245  24.128  0.00  0.00    +0.103 C 
BRANCH   8  27
ATOM     27  C   UNL     1      -0.954   5.299  25.178  0.00  0.00    +0.112 C 
BRANCH  27  31
ATOM     31  C   UNL     1      -0.251   3.952  25.121  0.00  0.00    +0.174 C 
BRANCH  31   4
ATOM      4  O   UNL     1      -0.683   3.164  26.222  0.00  0.00    -0.382 OA
ATOM     40  C   UNL     1       0.413   2.545  26.882  0.00  0.00    +0.194 C 
ENDBRANCH  31   4
ENDBRANCH  27  31
ENDBRANCH   8  27
ENDBRANCH  17  19
ENDBRANCH  12  17
TORSDOF 6
ENDMDL
