MODEL 1
REMARK VINA RESULT:       2.1      0.000      0.000
REMARK  Name = 7144119
REMARK  7 active torsions:
REMARK  status: ('A' for Active; 'I' for Inactive)
REMARK    1  A    between atoms: S_1  and  N_6
REMARK    2  A    between atoms: S_1  and  C_17
REMARK    3  A    between atoms: O_5  and  C_27
REMARK    4  A    between atoms: O_5  and  C_28
REMARK    5  A    between atoms: C_15  and  C_20
REMARK    6  A    between atoms: C_17  and  C_21
REMARK    7  A    between atoms: C_21  and  C_24
REMARK                            x       y       z     vdW  Elec       q    Type
REMARK                         _______ _______ _______ _____ _____    ______ ____
ROOT
ATOM      4  O   UNL     1      -3.007   4.067  26.828  0.00  0.00    -0.268 OA
ATOM      6  N   UNL     1      -3.341  -0.048  24.091  0.00  0.00    -0.180 NA
ATOM      7  N   UNL     1      -2.380   2.828  24.941  0.00  0.00    -0.311 N 
ATOM      8  C   UNL     1      -4.090   2.137  23.159  0.00  0.00    +0.025 C 
ATOM      9  C   UNL     1      -1.740   1.463  22.930  0.00  0.00    +0.053 C 
ATOM     10  C   UNL     1      -2.897   2.157  22.217  0.00  0.00    +0.017 C 
ATOM     11  C   UNL     1      -4.490   0.694  23.501  0.00  0.00    +0.114 C 
ATOM     12  C   UNL     1      -2.127  -0.000  23.227  0.00  0.00    +0.118 C 
ATOM     13  C   UNL     1      -3.742   2.955  24.404  0.00  0.00    +0.130 C 
ATOM     14  C   UNL     1      -1.351   2.192  24.219  0.00  0.00    +0.034 A 
ATOM     15  C   UNL     1      -0.076   2.228  24.686  0.00  0.00    +0.002 A 
ATOM     16  C   UNL     1      -2.150   3.484  26.164  0.00  0.00    +0.252 A 
ATOM     18  C   UNL     1       0.200   2.892  25.946  0.00  0.00    +0.015 A 
ATOM     19  C   UNL     1      -0.757   3.476  26.666  0.00  0.00    +0.071 A 
ENDROOT
BRANCH  15  20
ATOM     20  C   UNL     1       1.041   1.593  23.952  0.00  0.00    -0.016 A 
ATOM     22  C   UNL     1       0.947   0.259  23.568  0.00  0.00    +0.012 A 
ATOM     23  C   UNL     1       2.179   2.335  23.651  0.00  0.00    +0.012 A 
ATOM     25  C   UNL     1       1.999  -0.339  22.877  0.00  0.00    +0.046 A 
ATOM     26  C   UNL     1       3.233   1.736  22.960  0.00  0.00    +0.046 A 
ATOM     27  C   UNL     1       3.143   0.399  22.573  0.00  0.00    +0.120 A 
BRANCH  27   5
ATOM      5  O   UNL     1       4.171  -0.185  21.899  0.00  0.00    -0.495 OA
ATOM     28  C   UNL     1       5.440  -0.217  22.551  0.00  0.00    +0.277 C 
ENDBRANCH  27   5
ENDBRANCH  15  20
BRANCH   6   1
ATOM      1  S   UNL     1      -3.711  -1.576  24.764  0.00  0.00    +0.032 S 
ATOM      2  O   UNL     1      -4.654  -2.252  23.898  0.00  0.00    -0.158 OA
ATOM      3  O   UNL     1      -3.962  -1.414  26.180  0.00  0.00    -0.158 OA
BRANCH   1  17
ATOM     17  C   UNL     1      -2.131  -2.361  24.574  0.00  0.00    +0.185 C 
BRANCH  17  21
ATOM     21  C   UNL     1      -1.107  -1.783  25.536  0.00  0.00    +0.021 C 
ATOM     24  C   UNL     1       0.212  -2.536  25.462  0.00  0.00    +0.005 C 
ENDBRANCH  17  21
ENDBRANCH   1  17
ENDBRANCH   6   1
TORSDOF 5
ENDMDL
MODEL 2
REMARK VINA RESULT:       4.9      1.175      1.797
REMARK  Name = 7144119
REMARK  7 active torsions:
REMARK  status: ('A' for Active; 'I' for Inactive)
REMARK    1  A    between atoms: S_1  and  N_6
REMARK    2  A    between atoms: S_1  and  C_17
REMARK    3  A    between atoms: O_5  and  C_27
REMARK    4  A    between atoms: O_5  and  C_28
REMARK    5  A    between atoms: C_15  and  C_20
REMARK    6  A    between atoms: C_17  and  C_21
REMARK    7  A    between atoms: C_21  and  C_24
REMARK                            x       y       z     vdW  Elec       q    Type
REMARK                         _______ _______ _______ _____ _____    ______ ____
ROOT
ATOM      4  O   UNL     1      -2.974   4.172  26.388  0.00  0.00    -0.268 OA
ATOM      6  N   UNL     1      -3.158  -0.009  23.738  0.00  0.00    -0.180 NA
ATOM      7  N   UNL     1      -2.213   2.871  24.594  0.00  0.00    -0.311 N 
ATOM      8  C   UNL     1      -3.778   2.163  22.689  0.00  0.00    +0.025 C 
ATOM      9  C   UNL     1      -1.432   1.439  22.681  0.00  0.00    +0.053 C 
ATOM     10  C   UNL     1      -2.508   2.136  21.854  0.00  0.00    +0.017 C 
ATOM     11  C   UNL     1      -4.236   0.738  23.032  0.00  0.00    +0.114 C 
ATOM     12  C   UNL     1      -1.873  -0.008  22.980  0.00  0.00    +0.118 C 
ATOM     13  C   UNL     1      -3.521   3.008  23.939  0.00  0.00    +0.130 C 
ATOM     14  C   UNL     1      -1.140   2.196  23.980  0.00  0.00    +0.034 A 
ATOM     15  C   UNL     1       0.091   2.220  24.554  0.00  0.00    +0.002 A 
ATOM     16  C   UNL     1      -2.076   3.555  25.815  0.00  0.00    +0.252 A 
ATOM     18  C   UNL     1       0.271   2.913  25.816  0.00  0.00    +0.015 A 
ATOM     19  C   UNL     1      -0.732   3.534  26.436  0.00  0.00    +0.071 A 
ENDROOT
BRANCH  15  20
ATOM     20  C   UNL     1       1.254   1.545  23.937  0.00  0.00    -0.016 A 
ATOM     22  C   UNL     1       1.273   0.157  23.835  0.00  0.00    +0.012 A 
ATOM     23  C   UNL     1       2.319   2.303  23.461  0.00  0.00    +0.012 A 
ATOM     25  C   UNL     1       2.368  -0.479  23.252  0.00  0.00    +0.046 A 
ATOM     26  C   UNL     1       3.416   1.665  22.879  0.00  0.00    +0.046 A 
ATOM     27  C   UNL     1       3.440   0.275  22.775  0.00  0.00    +0.120 A 
BRANCH  27   5
ATOM      5  O   UNL     1       4.510  -0.346  22.207  0.00  0.00    -0.495 OA
ATOM     28  C   UNL     1       5.740  -0.311  22.929  0.00  0.00    +0.277 C 
ENDBRANCH  27   5
ENDBRANCH  15  20
BRANCH   6   1
ATOM      1  S   UNL     1      -3.617  -1.511  24.415  0.00  0.00    +0.032 S 
ATOM      2  O   UNL     1      -2.424  -2.290  24.673  0.00  0.00    -0.158 OA
ATOM      3  O   UNL     1      -4.724  -2.048  23.654  0.00  0.00    -0.158 OA
BRANCH   1  17
ATOM     17  C   UNL     1      -4.247  -0.941  25.972  0.00  0.00    +0.185 C 
BRANCH  17  21
ATOM     21  C   UNL     1      -4.347   0.574  26.008  0.00  0.00    +0.021 C 
ATOM     24  C   UNL     1      -5.793   1.038  25.940  0.00  0.00    +0.005 C 
ENDBRANCH  17  21
ENDBRANCH   1  17
ENDBRANCH   6   1
TORSDOF 5
ENDMDL
MODEL 3
REMARK VINA RESULT:       5.4      2.650      4.479
REMARK  Name = 7144119
REMARK  7 active torsions:
REMARK  status: ('A' for Active; 'I' for Inactive)
REMARK    1  A    between atoms: S_1  and  N_6
REMARK    2  A    between atoms: S_1  and  C_17
REMARK    3  A    between atoms: O_5  and  C_27
REMARK    4  A    between atoms: O_5  and  C_28
REMARK    5  A    between atoms: C_15  and  C_20
REMARK    6  A    between atoms: C_17  and  C_21
REMARK    7  A    between atoms: C_21  and  C_24
REMARK                            x       y       z     vdW  Elec       q    Type
REMARK                         _______ _______ _______ _____ _____    ______ ____
ROOT
ATOM      4  O   UNL     1      -3.870   4.116  23.094  0.00  0.00    -0.268 OA
ATOM      6  N   UNL     1      -2.403  -0.355  24.638  0.00  0.00    -0.180 NA
ATOM      7  N   UNL     1      -2.190   2.700  23.905  0.00  0.00    -0.311 N 
ATOM      8  C   UNL     1      -1.412   0.644  22.583  0.00  0.00    +0.025 C 
ATOM      9  C   UNL     1      -0.419   1.142  24.773  0.00  0.00    +0.053 C 
ATOM     10  C   UNL     1      -0.094   0.859  23.308  0.00  0.00    +0.017 C 
ATOM     11  C   UNL     1      -2.175  -0.548  23.178  0.00  0.00    +0.114 C 
ATOM     12  C   UNL     1      -1.139  -0.079  25.381  0.00  0.00    +0.118 C 
ATOM     13  C   UNL     1      -2.221   1.942  22.646  0.00  0.00    +0.130 C 
ATOM     14  C   UNL     1      -1.268   2.406  24.929  0.00  0.00    +0.034 A 
ATOM     15  C   UNL     1      -1.175   3.223  26.010  0.00  0.00    +0.002 A 
ATOM     16  C   UNL     1      -3.058   3.805  23.965  0.00  0.00    +0.252 A 
ATOM     18  C   UNL     1      -2.058   4.370  26.109  0.00  0.00    +0.015 A 
ATOM     19  C   UNL     1      -2.959   4.658  25.171  0.00  0.00    +0.071 A 
ENDROOT
BRANCH  15  20
ATOM     20  C   UNL     1      -0.209   2.968  27.101  0.00  0.00    -0.016 A 
ATOM     22  C   UNL     1       1.155   2.954  26.826  0.00  0.00    +0.012 A 
ATOM     23  C   UNL     1      -0.671   2.744  28.394  0.00  0.00    +0.012 A 
ATOM     25  C   UNL     1       2.065   2.713  27.854  0.00  0.00    +0.046 A 
ATOM     26  C   UNL     1       0.240   2.503  29.423  0.00  0.00    +0.046 A 
ATOM     27  C   UNL     1       1.608   2.487  29.152  0.00  0.00    +0.120 A 
BRANCH  27   5
ATOM      5  O   UNL     1       2.497   2.251  30.156  0.00  0.00    -0.495 OA
ATOM     28  C   UNL     1       1.975   1.727  31.376  0.00  0.00    +0.277 C 
ENDBRANCH  27   5
ENDBRANCH  15  20
BRANCH   6   1
ATOM      1  S   UNL     1      -3.467  -1.471  25.377  0.00  0.00    +0.032 S 
ATOM      2  O   UNL     1      -3.170  -1.532  26.793  0.00  0.00    -0.158 OA
ATOM      3  O   UNL     1      -3.532  -2.665  24.563  0.00  0.00    -0.158 OA
BRANCH   1  17
ATOM     17  C   UNL     1      -4.992  -0.587  25.175  0.00  0.00    +0.185 C 
BRANCH  17  21
ATOM     21  C   UNL     1      -4.780   0.914  25.277  0.00  0.00    +0.021 C 
ATOM     24  C   UNL     1      -6.049   1.679  24.940  0.00  0.00    +0.005 C 
ENDBRANCH  17  21
ENDBRANCH   1  17
ENDBRANCH   6   1
TORSDOF 5
ENDMDL
MODEL 4
REMARK VINA RESULT:       6.0      2.692      3.668
REMARK  Name = 7144119
REMARK  7 active torsions:
REMARK  status: ('A' for Active; 'I' for Inactive)
REMARK    1  A    between atoms: S_1  and  N_6
REMARK    2  A    between atoms: S_1  and  C_17
REMARK    3  A    between atoms: O_5  and  C_27
REMARK    4  A    between atoms: O_5  and  C_28
REMARK    5  A    between atoms: C_15  and  C_20
REMARK    6  A    between atoms: C_17  and  C_21
REMARK    7  A    between atoms: C_21  and  C_24
REMARK                            x       y       z     vdW  Elec       q    Type
REMARK                         _______ _______ _______ _____ _____    ______ ____
ROOT
ATOM      4  O   UNL     1      -5.752   4.124  24.642  0.00  0.00    -0.268 OA
ATOM      6  N   UNL     1      -2.976   0.050  24.155  0.00  0.00    -0.180 NA
ATOM      7  N   UNL     1      -3.646   3.109  24.494  0.00  0.00    -0.311 N 
ATOM      8  C   UNL     1      -2.921   1.817  22.400  0.00  0.00    +0.025 C 
ATOM      9  C   UNL     1      -1.408   1.975  24.327  0.00  0.00    +0.053 C 
ATOM     10  C   UNL     1      -1.515   2.210  22.823  0.00  0.00    +0.017 C 
ATOM     11  C   UNL     1      -3.190   0.336  22.709  0.00  0.00    +0.114 C 
ATOM     12  C   UNL     1      -1.628   0.479  24.628  0.00  0.00    +0.118 C 
ATOM     13  C   UNL     1      -3.918   2.746  23.096  0.00  0.00    +0.130 C 
ATOM     14  C   UNL     1      -2.406   2.837  25.106  0.00  0.00    +0.034 A 
ATOM     15  C   UNL     1      -2.145   3.320  26.348  0.00  0.00    +0.002 A 
ATOM     16  C   UNL     1      -4.658   3.845  25.134  0.00  0.00    +0.252 A 
ATOM     18  C   UNL     1      -3.167   4.080  27.042  0.00  0.00    +0.015 A 
ATOM     19  C   UNL     1      -4.360   4.329  26.501  0.00  0.00    +0.071 A 
ENDROOT
BRANCH  15  20
ATOM     20  C   UNL     1      -0.851   3.079  27.024  0.00  0.00    -0.016 A 
ATOM     22  C   UNL     1       0.315   2.985  26.270  0.00  0.00    +0.012 A 
ATOM     23  C   UNL     1      -0.809   2.949  28.409  0.00  0.00    +0.012 A 
ATOM     25  C   UNL     1       1.534   2.758  26.906  0.00  0.00    +0.046 A 
ATOM     26  C   UNL     1       0.412   2.721  29.045  0.00  0.00    +0.046 A 
ATOM     27  C   UNL     1       1.583   2.626  28.294  0.00  0.00    +0.120 A 
BRANCH  27   5
ATOM      5  O   UNL     1       2.773   2.403  28.915  0.00  0.00    -0.495 OA
ATOM     28  C   UNL     1       2.735   1.717  30.165  0.00  0.00    +0.277 C 
ENDBRANCH  27   5
ENDBRANCH  15  20
BRANCH   6   1
ATOM      1  S   UNL     1      -3.495  -1.489  24.692  0.00  0.00    +0.032 S 
ATOM      2  O   UNL     1      -4.641  -1.895  23.907  0.00  0.00    -0.158 OA
ATOM      3  O   UNL     1      -3.524  -1.493  26.138  0.00  0.00    -0.158 OA
BRANCH   1  17
ATOM     17  C   UNL     1      -2.102  -2.457  24.170  0.00  0.00    +0.185 C 
BRANCH  17  21
ATOM     21  C   UNL     1      -1.224  -2.844  25.348  0.00  0.00    +0.021 C 
ATOM     24  C   UNL     1       0.130  -2.155  25.282  0.00  0.00    +0.005 C 
ENDBRANCH  17  21
ENDBRANCH   1  17
ENDBRANCH   6   1
TORSDOF 5
ENDMDL
