MODEL 1
REMARK VINA RESULT:       6.1      0.000      0.000
REMARK  Name = 25390950
REMARK  4 active torsions:
REMARK  status: ('A' for Active; 'I' for Inactive)
REMARK    1  A    between atoms: O_4  and  C_22
REMARK    2  A    between atoms: O_4  and  C_27
REMARK    3  A    between atoms: N_6  and  C_9
REMARK    4  A    between atoms: C_19  and  C_21
REMARK                            x       y       z     vdW  Elec       q    Type
REMARK                         _______ _______ _______ _____ _____    ______ ____
ROOT
ATOM      2  O   UNL     1      -5.125   0.504  25.749  0.00  0.00    -0.273 OA
ATOM      3  O   UNL     1      -2.095   2.283  21.895  0.00  0.00    -0.270 OA
ATOM      5  N   UNL     1      -3.344   2.466  23.844  0.00  0.00    -0.286 N 
ATOM      7  N   UNL     1      -3.091  -0.240  25.015  0.00  0.00    -0.283 N 
ATOM      8  C   UNL     1      -3.454   2.177  25.268  0.00  0.00    +0.164 C 
ATOM      9  C   UNL     1      -5.522   3.695  25.349  0.00  0.00    +0.054 C 
ATOM     10  C   UNL     1      -4.268   3.201  26.067  0.00  0.00    +0.050 C 
ATOM     11  C   UNL     1      -5.146   4.186  23.955  0.00  0.00    +0.037 C 
ATOM     12  C   UNL     1      -4.490   3.070  23.159  0.00  0.00    +0.110 C 
ATOM     13  C   UNL     1      -3.988   0.758  25.349  0.00  0.00    +0.238 C 
ATOM     14  C   UNL     1      -2.285   1.982  23.074  0.00  0.00    +0.249 C 
ATOM     15  C   UNL     1      -1.361   0.986  23.679  0.00  0.00    +0.059 A 
ATOM     16  C   UNL     1      -1.792  -0.090  24.478  0.00  0.00    +0.046 A 
ATOM     17  C   UNL     1      -0.026   1.035  23.243  0.00  0.00    +0.023 A 
ATOM     18  C   UNL     1      -0.888  -1.126  24.764  0.00  0.00    +0.024 A 
ATOM     19  C   UNL     1       0.870   0.022  23.580  0.00  0.00    -0.014 A 
ATOM     20  C   UNL     1       0.436  -1.066  24.329  0.00  0.00    +0.010 A 
ATOM     30  H   UNL     1      -3.362  -1.184  25.279  0.00  0.00    +0.155 HD
ENDROOT
BRANCH  19  21
ATOM      1 CL   UNL     1       5.845   0.499  24.820  0.00  0.00    -0.084 Cl
ATOM     21  C   UNL     1       2.243   0.088  23.130  0.00  0.00    +0.025 A 
ATOM     22  C   UNL     1       2.557   0.002  21.773  0.00  0.00    +0.128 A 
ATOM     23  C   UNL     1       3.260   0.241  24.072  0.00  0.00    +0.032 A 
ATOM     24  C   UNL     1       3.887   0.069  21.360  0.00  0.00    +0.047 A 
ATOM     25  C   UNL     1       4.591   0.308  23.659  0.00  0.00    +0.042 A 
ATOM     26  C   UNL     1       4.904   0.222  22.302  0.00  0.00    +0.023 A 
BRANCH  22   4
ATOM      4  O   UNL     1       1.583  -0.150  20.831  0.00  0.00    -0.495 OA
ATOM     27  C   UNL     1       0.832  -1.362  20.866  0.00  0.00    +0.277 C 
ENDBRANCH  22   4
ENDBRANCH  19  21
BRANCH   9   6
ATOM      6  N   UNL     1      -6.166   4.744  26.106  0.00  0.00    -0.327 NA
ATOM     28  H   UNL     1      -5.596   5.588  26.089  0.00  0.00    +0.118 HD
ATOM     29  H   UNL     1      -6.247   4.470  27.084  0.00  0.00    +0.118 HD
ENDBRANCH   9   6
TORSDOF 3
ENDMDL
MODEL 2
REMARK VINA RESULT:       7.7      1.262      1.522
REMARK  Name = 25390950
REMARK  4 active torsions:
REMARK  status: ('A' for Active; 'I' for Inactive)
REMARK    1  A    between atoms: O_4  and  C_22
REMARK    2  A    between atoms: O_4  and  C_27
REMARK    3  A    between atoms: N_6  and  C_9
REMARK    4  A    between atoms: C_19  and  C_21
REMARK                            x       y       z     vdW  Elec       q    Type
REMARK                         _______ _______ _______ _____ _____    ______ ____
ROOT
ATOM      2  O   UNL     1      -5.463   0.338  25.331  0.00  0.00    -0.273 OA
ATOM      3  O   UNL     1      -1.902   2.368  22.107  0.00  0.00    -0.270 OA
ATOM      5  N   UNL     1      -3.377   2.399  23.900  0.00  0.00    -0.286 N 
ATOM      7  N   UNL     1      -3.386  -0.430  24.764  0.00  0.00    -0.283 N 
ATOM      8  C   UNL     1      -3.678   1.959  25.256  0.00  0.00    +0.164 C 
ATOM      9  C   UNL     1      -5.675   3.571  25.267  0.00  0.00    +0.054 C 
ATOM     10  C   UNL     1      -4.542   2.930  26.068  0.00  0.00    +0.050 C 
ATOM     11  C   UNL     1      -5.107   4.194  23.997  0.00  0.00    +0.037 C 
ATOM     12  C   UNL     1      -4.403   3.140  23.159  0.00  0.00    +0.110 C 
ATOM     13  C   UNL     1      -4.276   0.572  25.104  0.00  0.00    +0.238 C 
ATOM     14  C   UNL     1      -2.251   1.947  23.211  0.00  0.00    +0.249 C 
ATOM     15  C   UNL     1      -1.452   0.840  23.801  0.00  0.00    +0.059 A 
ATOM     16  C   UNL     1      -2.025  -0.293  24.409  0.00  0.00    +0.046 A 
ATOM     17  C   UNL     1      -0.073   0.863  23.537  0.00  0.00    +0.023 A 
ATOM     18  C   UNL     1      -1.207  -1.404  24.677  0.00  0.00    +0.024 A 
ATOM     19  C   UNL     1       0.732  -0.230  23.857  0.00  0.00    -0.014 A 
ATOM     20  C   UNL     1       0.162  -1.369  24.414  0.00  0.00    +0.010 A 
ATOM     30  H   UNL     1      -3.726  -1.382  24.880  0.00  0.00    +0.155 HD
ENDROOT
BRANCH  19  21
ATOM      1 CL   UNL     1       5.231  -2.734  23.799  0.00  0.00    -0.084 Cl
ATOM     21  C   UNL     1       2.152  -0.190  23.586  0.00  0.00    +0.025 A 
ATOM     22  C   UNL     1       2.759   0.977  23.121  0.00  0.00    +0.128 A 
ATOM     23  C   UNL     1       2.916  -1.337  23.794  0.00  0.00    +0.032 A 
ATOM     24  C   UNL     1       4.130   0.996  22.867  0.00  0.00    +0.047 A 
ATOM     25  C   UNL     1       4.288  -1.319  23.539  0.00  0.00    +0.042 A 
ATOM     26  C   UNL     1       4.895  -0.152  23.075  0.00  0.00    +0.023 A 
BRANCH  22   4
ATOM      4  O   UNL     1       2.036   2.113  22.906  0.00  0.00    -0.495 OA
ATOM     27  C   UNL     1       1.362   2.673  24.031  0.00  0.00    +0.277 C 
ENDBRANCH  22   4
ENDBRANCH  19  21
BRANCH   9   6
ATOM      6  N   UNL     1      -6.365   4.562  26.060  0.00  0.00    -0.327 NA
ATOM     28  H   UNL     1      -7.117   4.125  26.590  0.00  0.00    +0.118 HD
ATOM     29  H   UNL     1      -6.802   5.254  25.454  0.00  0.00    +0.118 HD
ENDBRANCH   9   6
TORSDOF 3
ENDMDL
MODEL 3
REMARK VINA RESULT:       7.8      1.838      2.580
REMARK  Name = 25390950
REMARK  4 active torsions:
REMARK  status: ('A' for Active; 'I' for Inactive)
REMARK    1  A    between atoms: O_4  and  C_22
REMARK    2  A    between atoms: O_4  and  C_27
REMARK    3  A    between atoms: N_6  and  C_9
REMARK    4  A    between atoms: C_19  and  C_21
REMARK                            x       y       z     vdW  Elec       q    Type
REMARK                         _______ _______ _______ _____ _____    ______ ____
ROOT
ATOM      2  O   UNL     1      -4.363   3.931  26.277  0.00  0.00    -0.273 OA
ATOM      3  O   UNL     1      -2.007  -0.644  25.431  0.00  0.00    -0.270 OA
ATOM      5  N   UNL     1      -3.603   1.000  25.058  0.00  0.00    -0.286 N 
ATOM      7  N   UNL     1      -2.168   3.467  25.840  0.00  0.00    -0.283 N 
ATOM      8  C   UNL     1      -3.907   2.326  24.534  0.00  0.00    +0.164 C 
ATOM      9  C   UNL     1      -6.399   1.823  24.892  0.00  0.00    +0.054 C 
ATOM     10  C   UNL     1      -5.341   2.496  24.019  0.00  0.00    +0.050 C 
ATOM     11  C   UNL     1      -6.014   0.366  25.120  0.00  0.00    +0.037 C 
ATOM     12  C   UNL     1      -4.650   0.275  25.783  0.00  0.00    +0.110 C 
ATOM     13  C   UNL     1      -3.525   3.292  25.640  0.00  0.00    +0.238 C 
ATOM     14  C   UNL     1      -2.299   0.504  25.094  0.00  0.00    +0.249 C 
ATOM     15  C   UNL     1      -1.177   1.426  24.775  0.00  0.00    +0.059 A 
ATOM     16  C   UNL     1      -1.107   2.755  25.237  0.00  0.00    +0.046 A 
ATOM     17  C   UNL     1      -0.058   0.848  24.154  0.00  0.00    +0.023 A 
ATOM     18  C   UNL     1       0.110   3.447  25.124  0.00  0.00    +0.024 A 
ATOM     19  C   UNL     1       1.127   1.569  24.006  0.00  0.00    -0.014 A 
ATOM     20  C   UNL     1       1.214   2.865  24.503  0.00  0.00    +0.010 A 
ATOM     30  H   UNL     1      -1.904   4.266  26.412  0.00  0.00    +0.155 HD
ENDROOT
BRANCH  19  21
ATOM      1 CL   UNL     1       6.224   0.840  23.946  0.00  0.00    -0.084 Cl
ATOM     21  C   UNL     1       2.270   0.963  23.358  0.00  0.00    +0.025 A 
ATOM     22  C   UNL     1       2.112   0.184  22.212  0.00  0.00    +0.128 A 
ATOM     23  C   UNL     1       3.540   1.165  23.895  0.00  0.00    +0.032 A 
ATOM     24  C   UNL     1       3.227  -0.391  21.602  0.00  0.00    +0.047 A 
ATOM     25  C   UNL     1       4.655   0.589  23.286  0.00  0.00    +0.042 A 
ATOM     26  C   UNL     1       4.499  -0.189  22.139  0.00  0.00    +0.023 A 
BRANCH  22   4
ATOM      4  O   UNL     1       0.881  -0.032  21.667  0.00  0.00    -0.495 OA
ATOM     27  C   UNL     1       0.751  -1.144  20.784  0.00  0.00    +0.277 C 
ENDBRANCH  22   4
ENDBRANCH  19  21
BRANCH   9   6
ATOM      6  N   UNL     1      -7.704   1.920  24.281  0.00  0.00    -0.327 NA
ATOM     28  H   UNL     1      -8.216   2.710  24.671  0.00  0.00    +0.118 HD
ATOM     29  H   UNL     1      -8.253   1.088  24.492  0.00  0.00    +0.118 HD
ENDBRANCH   9   6
TORSDOF 3
ENDMDL
