MODEL 1
REMARK VINA RESULT:      -4.6      0.000      0.000
REMARK  Name = 75536678
REMARK  7 active torsions:
REMARK  status: ('A' for Active; 'I' for Inactive)
REMARK    1  A    between atoms: S_1  and  N_8
REMARK    2  A    between atoms: S_1  and  C_19
REMARK    3  A    between atoms: O_3  and  C_10
REMARK    4  A    between atoms: N_6  and  C_9
REMARK    5  A    between atoms: N_6  and  C_11
REMARK    6  A    between atoms: N_8  and  C_16
REMARK    7  A    between atoms: C_12  and  C_16
REMARK                            x       y       z     vdW  Elec       q    Type
REMARK                         _______ _______ _______ _____ _____    ______ ____
ROOT
ATOM      2  O   UNL     1      -1.409   3.507  25.812  0.00  0.00    -0.371 OA
ATOM      9  C   UNL     1      -0.472   1.667  24.639  0.00  0.00    +0.111 C 
ATOM     10  C   UNL     1      -1.835   1.985  24.053  0.00  0.00    +0.164 C 
ATOM     12  C   UNL     1      -2.025   3.423  24.516  0.00  0.00    +0.164 C 
ATOM     13  C   UNL     1      -0.555   2.364  25.987  0.00  0.00    +0.181 C 
ENDROOT
BRANCH  10   3
ATOM      3  O   UNL     1      -1.861   1.878  22.643  0.00  0.00    -0.388 OA
ATOM     27  H   UNL     1      -1.484   1.017  22.393  0.00  0.00    +0.210 HD
ENDBRANCH  10   3
BRANCH   9   6
ATOM      6  N   UNL     1      -0.204   0.243  24.754  0.00  0.00    -0.306 NA
ATOM     25  H   UNL     1      -1.050  -0.290  24.555  0.00  0.00    +0.123 HD
BRANCH   6  11
ATOM      7  N   UNL     1       2.345   0.260  21.348  0.00  0.00    -0.316 NA
ATOM     11  C   UNL     1       0.862  -0.161  23.840  0.00  0.00    +0.056 C 
ATOM     14  C   UNL     1       1.905   0.953  23.688  0.00  0.00    +0.034 C 
ATOM     15  C   UNL     1       0.279  -0.527  22.472  0.00  0.00    +0.034 C 
ATOM     17  C   UNL     1       2.954   0.577  22.642  0.00  0.00    +0.082 C 
ATOM     18  C   UNL     1       1.391  -0.846  21.473  0.00  0.00    +0.082 C 
ATOM     26  H   UNL     1       3.076   0.001  20.687  0.00  0.00    +0.122 HD
ENDBRANCH   6  11
ENDBRANCH   9   6
BRANCH  12  16
ATOM     16  C   UNL     1      -3.483   3.835  24.612  0.00  0.00    +0.140 C 
BRANCH  16   8
ATOM      8  N   UNL     1      -4.337   2.771  24.048  0.00  0.00    -0.187 NA
ATOM     28  H   UNL     1      -4.628   2.903  23.072  0.00  0.00    +0.148 HD
BRANCH   8   1
ATOM      1  S   UNL     1      -5.332   1.845  25.071  0.00  0.00    +0.058 S 
ATOM      4  O   UNL     1      -6.646   1.713  24.471  0.00  0.00    -0.153 OA
ATOM      5  O   UNL     1      -5.197   2.334  26.430  0.00  0.00    -0.153 OA
BRANCH   1  19
ATOM     19  C   UNL     1      -4.545   0.264  25.011  0.00  0.00    +0.105 A 
ATOM     20  C   UNL     1      -4.657  -0.528  23.868  0.00  0.00    +0.028 A 
ATOM     21  C   UNL     1      -3.816  -0.194  26.108  0.00  0.00    +0.028 A 
ATOM     22  C   UNL     1      -4.039  -1.778  23.822  0.00  0.00    +0.002 A 
ATOM     23  C   UNL     1      -3.198  -1.443  26.063  0.00  0.00    +0.002 A 
ATOM     24  C   UNL     1      -3.310  -2.236  24.919  0.00  0.00    +0.000 A 
ENDBRANCH   1  19
ENDBRANCH   8   1
ENDBRANCH  16   8
ENDBRANCH  12  16
TORSDOF 7
ENDMDL
MODEL 2
REMARK VINA RESULT:      -4.4      1.666      2.410
REMARK  Name = 75536678
REMARK  7 active torsions:
REMARK  status: ('A' for Active; 'I' for Inactive)
REMARK    1  A    between atoms: S_1  and  N_8
REMARK    2  A    between atoms: S_1  and  C_19
REMARK    3  A    between atoms: O_3  and  C_10
REMARK    4  A    between atoms: N_6  and  C_9
REMARK    5  A    between atoms: N_6  and  C_11
REMARK    6  A    between atoms: N_8  and  C_16
REMARK    7  A    between atoms: C_12  and  C_16
REMARK                            x       y       z     vdW  Elec       q    Type
REMARK                         _______ _______ _______ _____ _____    ______ ____
ROOT
ATOM      2  O   UNL     1      -0.958   1.097  25.724  0.00  0.00    -0.371 OA
ATOM      9  C   UNL     1       0.632   1.096  23.960  0.00  0.00    +0.111 C 
ATOM     10  C   UNL     1      -0.230   2.339  23.848  0.00  0.00    +0.164 C 
ATOM     12  C   UNL     1      -0.776   2.447  25.265  0.00  0.00    +0.164 C 
ATOM     13  C   UNL     1      -0.224   0.216  24.856  0.00  0.00    +0.181 C 
ENDROOT
BRANCH  10   3
ATOM      3  O   UNL     1       0.511   3.487  23.480  0.00  0.00    -0.388 OA
ATOM     27  H   UNL     1       1.334   3.196  23.052  0.00  0.00    +0.210 HD
ENDBRANCH  10   3
BRANCH   9   6
ATOM      6  N   UNL     1       0.933   0.477  22.680  0.00  0.00    -0.306 NA
ATOM     25  H   UNL     1       0.733   1.127  21.921  0.00  0.00    +0.123 HD
BRANCH   6  11
ATOM      7  N   UNL     1       4.933  -0.249  23.936  0.00  0.00    -0.316 NA
ATOM     11  C   UNL     1       2.332   0.061  22.621  0.00  0.00    +0.056 C 
ATOM     14  C   UNL     1       2.613  -1.067  23.621  0.00  0.00    +0.034 C 
ATOM     15  C   UNL     1       3.253   1.253  22.898  0.00  0.00    +0.034 C 
ATOM     17  C   UNL     1       4.101  -1.418  23.642  0.00  0.00    +0.082 C 
ATOM     18  C   UNL     1       4.716   0.812  22.947  0.00  0.00    +0.082 C 
ATOM     26  H   UNL     1       5.914  -0.523  23.925  0.00  0.00    +0.122 HD
ENDBRANCH   6  11
ENDBRANCH   9   6
BRANCH  12  16
ATOM     16  C   UNL     1      -2.092   3.200  25.347  0.00  0.00    +0.140 C 
BRANCH  16   8
ATOM      8  N   UNL     1      -3.180   2.259  25.678  0.00  0.00    -0.187 NA
ATOM     28  H   UNL     1      -3.034   1.685  26.517  0.00  0.00    +0.148 HD
BRANCH   8   1
ATOM      1  S   UNL     1      -4.183   1.650  24.446  0.00  0.00    +0.058 S 
ATOM      4  O   UNL     1      -3.652   2.044  23.155  0.00  0.00    -0.153 OA
ATOM      5  O   UNL     1      -5.566   1.931  24.782  0.00  0.00    -0.153 OA
BRANCH   1  19
ATOM     19  C   UNL     1      -3.954  -0.094  24.620  0.00  0.00    +0.105 A 
ATOM     20  C   UNL     1      -3.489  -0.619  25.825  0.00  0.00    +0.028 A 
ATOM     21  C   UNL     1      -4.233  -0.944  23.551  0.00  0.00    +0.028 A 
ATOM     22  C   UNL     1      -3.304  -1.995  25.962  0.00  0.00    +0.002 A 
ATOM     23  C   UNL     1      -4.049  -2.320  23.686  0.00  0.00    +0.002 A 
ATOM     24  C   UNL     1      -3.584  -2.845  24.893  0.00  0.00    +0.000 A 
ENDBRANCH   1  19
ENDBRANCH   8   1
ENDBRANCH  16   8
ENDBRANCH  12  16
TORSDOF 7
ENDMDL
MODEL 3
REMARK VINA RESULT:      -4.2      1.496      2.327
REMARK  Name = 75536678
REMARK  7 active torsions:
REMARK  status: ('A' for Active; 'I' for Inactive)
REMARK    1  A    between atoms: S_1  and  N_8
REMARK    2  A    between atoms: S_1  and  C_19
REMARK    3  A    between atoms: O_3  and  C_10
REMARK    4  A    between atoms: N_6  and  C_9
REMARK    5  A    between atoms: N_6  and  C_11
REMARK    6  A    between atoms: N_8  and  C_16
REMARK    7  A    between atoms: C_12  and  C_16
REMARK                            x       y       z     vdW  Elec       q    Type
REMARK                         _______ _______ _______ _____ _____    ______ ____
ROOT
ATOM      2  O   UNL     1      -2.034   4.989  25.320  0.00  0.00    -0.371 OA
ATOM      9  C   UNL     1      -0.879   3.549  23.827  0.00  0.00    +0.111 C 
ATOM     10  C   UNL     1      -2.281   3.014  24.043  0.00  0.00    +0.164 C 
ATOM     12  C   UNL     1      -2.998   4.262  24.540  0.00  0.00    +0.164 C 
ATOM     13  C   UNL     1      -0.724   4.479  25.019  0.00  0.00    +0.181 C 
ENDROOT
BRANCH  10   3
ATOM      3  O   UNL     1      -2.863   2.510  22.857  0.00  0.00    -0.388 OA
ATOM     27  H   UNL     1      -3.518   3.154  22.539  0.00  0.00    +0.210 HD
ENDBRANCH  10   3
BRANCH   9   6
ATOM      6  N   UNL     1       0.141   2.514  23.781  0.00  0.00    -0.306 NA
ATOM     25  H   UNL     1       0.917   2.760  24.395  0.00  0.00    +0.123 HD
BRANCH   6  11
ATOM      7  N   UNL     1      -0.061  -1.392  25.457  0.00  0.00    -0.316 NA
ATOM     11  C   UNL     1      -0.413   1.222  24.178  0.00  0.00    +0.056 C 
ATOM     14  C   UNL     1      -0.381   1.055  25.702  0.00  0.00    +0.034 C 
ATOM     15  C   UNL     1       0.361   0.083  23.507  0.00  0.00    +0.034 C 
ATOM     17  C   UNL     1      -0.849  -0.343  26.106  0.00  0.00    +0.082 C 
ATOM     18  C   UNL     1      -0.136  -1.277  23.997  0.00  0.00    +0.082 C 
ATOM     26  H   UNL     1      -0.415  -2.304  25.741  0.00  0.00    +0.122 HD
ENDBRANCH   6  11
ENDBRANCH   9   6
BRANCH  12  16
ATOM     16  C   UNL     1      -4.220   3.956  25.388  0.00  0.00    +0.140 C 
BRANCH  16   8
ATOM      8  N   UNL     1      -4.176   2.548  25.829  0.00  0.00    -0.187 NA
ATOM     28  H   UNL     1      -3.239   2.133  25.904  0.00  0.00    +0.148 HD
BRANCH   8   1
ATOM      1  S   UNL     1      -5.494   1.518  25.522  0.00  0.00    +0.058 S 
ATOM      4  O   UNL     1      -6.177   1.957  24.320  0.00  0.00    -0.153 OA
ATOM      5  O   UNL     1      -6.238   1.322  26.752  0.00  0.00    -0.153 OA
BRANCH   1  19
ATOM     19  C   UNL     1      -4.684  -0.011  25.160  0.00  0.00    +0.105 A 
ATOM     20  C   UNL     1      -4.096  -0.749  26.187  0.00  0.00    +0.028 A 
ATOM     21  C   UNL     1      -4.628  -0.477  23.847  0.00  0.00    +0.028 A 
ATOM     22  C   UNL     1      -3.453  -1.954  25.902  0.00  0.00    +0.002 A 
ATOM     23  C   UNL     1      -3.986  -1.681  23.560  0.00  0.00    +0.002 A 
ATOM     24  C   UNL     1      -3.398  -2.419  24.589  0.00  0.00    +0.000 A 
ENDBRANCH   1  19
ENDBRANCH   8   1
ENDBRANCH  16   8
ENDBRANCH  12  16
TORSDOF 7
ENDMDL
MODEL 4
REMARK VINA RESULT:      -4.2      2.198      5.121
REMARK  Name = 75536678
REMARK  7 active torsions:
REMARK  status: ('A' for Active; 'I' for Inactive)
REMARK    1  A    between atoms: S_1  and  N_8
REMARK    2  A    between atoms: S_1  and  C_19
REMARK    3  A    between atoms: O_3  and  C_10
REMARK    4  A    between atoms: N_6  and  C_9
REMARK    5  A    between atoms: N_6  and  C_11
REMARK    6  A    between atoms: N_8  and  C_16
REMARK    7  A    between atoms: C_12  and  C_16
REMARK                            x       y       z     vdW  Elec       q    Type
REMARK                         _______ _______ _______ _____ _____    ______ ____
ROOT
ATOM      2  O   UNL     1      -2.596   3.150  23.443  0.00  0.00    -0.371 OA
ATOM      9  C   UNL     1      -4.586   2.140  24.254  0.00  0.00    +0.111 C 
ATOM     10  C   UNL     1      -4.007   3.030  25.337  0.00  0.00    +0.164 C 
ATOM     12  C   UNL     1      -3.118   3.953  24.515  0.00  0.00    +0.164 C 
ATOM     13  C   UNL     1      -3.383   1.951  23.345  0.00  0.00    +0.181 C 
ENDROOT
BRANCH  10   3
ATOM      3  O   UNL     1      -5.000   3.747  26.044  0.00  0.00    -0.388 OA
ATOM     27  H   UNL     1      -5.785   3.824  25.477  0.00  0.00    +0.210 HD
ENDBRANCH  10   3
BRANCH   9   6
ATOM      6  N   UNL     1      -5.120   0.884  24.754  0.00  0.00    -0.306 NA
ATOM     25  H   UNL     1      -5.952   0.622  24.224  0.00  0.00    +0.123 HD
BRANCH   6  11
ATOM      7  N   UNL     1      -3.316  -2.941  25.217  0.00  0.00    -0.316 NA
ATOM     11  C   UNL     1      -4.121  -0.178  24.664  0.00  0.00    +0.056 C 
ATOM     14  C   UNL     1      -4.651  -1.362  23.847  0.00  0.00    +0.034 C 
ATOM     15  C   UNL     1      -3.714  -0.644  26.065  0.00  0.00    +0.034 C 
ATOM     17  C   UNL     1      -3.652  -2.519  23.855  0.00  0.00    +0.082 C 
ATOM     18  C   UNL     1      -2.751  -1.829  25.987  0.00  0.00    +0.082 C 
ATOM     26  H   UNL     1      -2.638  -3.701  25.177  0.00  0.00    +0.122 HD
ENDBRANCH   6  11
ENDBRANCH   9   6
BRANCH  12  16
ATOM     16  C   UNL     1      -1.974   4.554  25.312  0.00  0.00    +0.140 C 
BRANCH  16   8
ATOM      8  N   UNL     1      -0.719   3.848  24.985  0.00  0.00    -0.187 NA
ATOM     28  H   UNL     1      -0.417   3.906  24.005  0.00  0.00    +0.148 HD
BRANCH   8   1
ATOM      1  S   UNL     1      -0.238   2.498  25.902  0.00  0.00    +0.058 S 
ATOM      4  O   UNL     1      -1.394   1.937  26.574  0.00  0.00    -0.153 OA
ATOM      5  O   UNL     1       0.950   2.842  26.661  0.00  0.00    -0.153 OA
BRANCH   1  19
ATOM     19  C   UNL     1       0.265   1.365  24.643  0.00  0.00    +0.105 A 
ATOM     20  C   UNL     1      -0.488   0.217  24.397  0.00  0.00    +0.028 A 
ATOM     21  C   UNL     1       1.418   1.615  23.899  0.00  0.00    +0.028 A 
ATOM     22  C   UNL     1      -0.089  -0.681  23.405  0.00  0.00    +0.002 A 
ATOM     23  C   UNL     1       1.817   0.719  22.908  0.00  0.00    +0.002 A 
ATOM     24  C   UNL     1       1.063  -0.430  22.661  0.00  0.00    +0.000 A 
ENDBRANCH   1  19
ENDBRANCH   8   1
ENDBRANCH  16   8
ENDBRANCH  12  16
TORSDOF 7
ENDMDL
MODEL 5
REMARK VINA RESULT:      -4.1     15.015     17.430
REMARK  Name = 75536678
REMARK  7 active torsions:
REMARK  status: ('A' for Active; 'I' for Inactive)
REMARK    1  A    between atoms: S_1  and  N_8
REMARK    2  A    between atoms: S_1  and  C_19
REMARK    3  A    between atoms: O_3  and  C_10
REMARK    4  A    between atoms: N_6  and  C_9
REMARK    5  A    between atoms: N_6  and  C_11
REMARK    6  A    between atoms: N_8  and  C_16
REMARK    7  A    between atoms: C_12  and  C_16
REMARK                            x       y       z     vdW  Elec       q    Type
REMARK                         _______ _______ _______ _____ _____    ______ ____
ROOT
ATOM      2  O   UNL     1      -4.172 -10.639  14.494  0.00  0.00    -0.371 OA
ATOM      9  C   UNL     1      -6.375 -10.209  15.269  0.00  0.00    +0.111 C 
ATOM     10  C   UNL     1      -6.281  -9.820  13.805  0.00  0.00    +0.164 C 
ATOM     12  C   UNL     1      -5.063 -10.622  13.366  0.00  0.00    +0.164 C 
ATOM     13  C   UNL     1      -4.908 -10.246  15.665  0.00  0.00    +0.181 C 
ENDROOT
BRANCH  10   3
ATOM      3  O   UNL     1      -7.437 -10.174  13.071  0.00  0.00    -0.388 OA
ATOM     27  H   UNL     1      -7.165 -10.415  12.169  0.00  0.00    +0.210 HD
ENDBRANCH  10   3
BRANCH   9   6
ATOM      6  N   UNL     1      -7.154  -9.280  16.070  0.00  0.00    -0.306 NA
ATOM     25  H   UNL     1      -7.684  -8.653  15.465  0.00  0.00    +0.123 HD
BRANCH   6  11
ATOM      7  N   UNL     1      -9.708 -10.049  19.385  0.00  0.00    -0.316 NA
ATOM     11  C   UNL     1      -8.066  -9.997  16.958  0.00  0.00    +0.056 C 
ATOM     14  C   UNL     1      -9.422  -9.286  17.043  0.00  0.00    +0.034 C 
ATOM     15  C   UNL     1      -7.452 -10.130  18.355  0.00  0.00    +0.034 C 
ATOM     17  C   UNL     1     -10.332  -9.970  18.063  0.00  0.00    +0.082 C 
ATOM     18  C   UNL     1      -8.439 -10.781  19.324  0.00  0.00    +0.082 C 
ATOM     26  H   UNL     1     -10.340 -10.524  20.028  0.00  0.00    +0.122 HD
ENDBRANCH   6  11
ENDBRANCH   9   6
BRANCH  12  16
ATOM     16  C   UNL     1      -4.356 -10.030  12.161  0.00  0.00    +0.140 C 
BRANCH  16   8
ATOM      8  N   UNL     1      -4.928 -10.595  10.924  0.00  0.00    -0.187 NA
ATOM     28  H   UNL     1      -4.875 -11.617  10.834  0.00  0.00    +0.148 HD
BRANCH   8   1
ATOM      1  S   UNL     1      -4.978  -9.660   9.504  0.00  0.00    +0.058 S 
ATOM      4  O   UNL     1      -4.571 -10.477   8.376  0.00  0.00    -0.153 OA
ATOM      5  O   UNL     1      -4.330  -8.387   9.753  0.00  0.00    -0.153 OA
BRANCH   1  19
ATOM     19  C   UNL     1      -6.708  -9.335   9.344  0.00  0.00    +0.105 A 
ATOM     20  C   UNL     1      -7.634 -10.350   9.584  0.00  0.00    +0.028 A 
ATOM     21  C   UNL     1      -7.148  -8.065   8.971  0.00  0.00    +0.028 A 
ATOM     22  C   UNL     1      -9.000 -10.095   9.454  0.00  0.00    +0.002 A 
ATOM     23  C   UNL     1      -8.513  -7.809   8.841  0.00  0.00    +0.002 A 
ATOM     24  C   UNL     1      -9.439  -8.825   9.082  0.00  0.00    +0.000 A 
ENDBRANCH   1  19
ENDBRANCH   8   1
ENDBRANCH  16   8
ENDBRANCH  12  16
TORSDOF 7
ENDMDL
MODEL 6
REMARK VINA RESULT:      -3.9      2.704      5.143
REMARK  Name = 75536678
REMARK  7 active torsions:
REMARK  status: ('A' for Active; 'I' for Inactive)
REMARK    1  A    between atoms: S_1  and  N_8
REMARK    2  A    between atoms: S_1  and  C_19
REMARK    3  A    between atoms: O_3  and  C_10
REMARK    4  A    between atoms: N_6  and  C_9
REMARK    5  A    between atoms: N_6  and  C_11
REMARK    6  A    between atoms: N_8  and  C_16
REMARK    7  A    between atoms: C_12  and  C_16
REMARK                            x       y       z     vdW  Elec       q    Type
REMARK                         _______ _______ _______ _____ _____    ______ ____
ROOT
ATOM      2  O   UNL     1       0.306   3.600  23.531  0.00  0.00    -0.371 OA
ATOM      9  C   UNL     1      -1.015   4.287  25.382  0.00  0.00    +0.111 C 
ATOM     10  C   UNL     1      -0.688   2.813  25.527  0.00  0.00    +0.164 C 
ATOM     12  C   UNL     1       0.530   2.691  24.622  0.00  0.00    +0.164 C 
ATOM     13  C   UNL     1      -0.744   4.510  23.903  0.00  0.00    +0.181 C 
ENDROOT
BRANCH  10   3
ATOM      3  O   UNL     1      -0.391   2.448  26.861  0.00  0.00    -0.388 OA
ATOM     27  H   UNL     1      -0.696   1.536  27.005  0.00  0.00    +0.210 HD
ENDBRANCH  10   3
BRANCH   9   6
ATOM      6  N   UNL     1      -2.376   4.623  25.764  0.00  0.00    -0.306 NA
ATOM     25  H   UNL     1      -2.694   5.442  25.245  0.00  0.00    +0.123 HD
BRANCH   6  11
ATOM      7  N   UNL     1      -5.910   2.510  24.694  0.00  0.00    -0.316 NA
ATOM     11  C   UNL     1      -3.278   3.501  25.517  0.00  0.00    +0.056 C 
ATOM     14  C   UNL     1      -3.712   3.459  24.047  0.00  0.00    +0.034 C 
ATOM     15  C   UNL     1      -4.506   3.595  26.427  0.00  0.00    +0.034 C 
ATOM     17  C   UNL     1      -4.748   2.358  23.817  0.00  0.00    +0.082 C 
ATOM     18  C   UNL     1      -5.511   2.489  26.104  0.00  0.00    +0.082 C 
ATOM     26  H   UNL     1      -6.566   1.750  24.519  0.00  0.00    +0.122 HD
ENDBRANCH   6  11
ENDBRANCH   9   6
BRANCH  12  16
ATOM     16  C   UNL     1       0.742   1.287  24.084  0.00  0.00    +0.140 C 
BRANCH  16   8
ATOM      8  N   UNL     1      -0.532   0.543  24.128  0.00  0.00    -0.187 NA
ATOM     28  H   UNL     1      -1.372   1.084  23.889  0.00  0.00    +0.148 HD
BRANCH   8   1
ATOM      1  S   UNL     1      -0.700  -0.799  25.159  0.00  0.00    +0.058 S 
ATOM      4  O   UNL     1      -0.853  -0.339  26.526  0.00  0.00    -0.153 OA
ATOM      5  O   UNL     1       0.319  -1.778  24.829  0.00  0.00    -0.153 OA
BRANCH   1  19
ATOM     19  C   UNL     1      -2.249  -1.469  24.633  0.00  0.00    +0.105 A 
ATOM     20  C   UNL     1      -3.317  -0.618  24.350  0.00  0.00    +0.028 A 
ATOM     21  C   UNL     1      -2.405  -2.850  24.507  0.00  0.00    +0.028 A 
ATOM     22  C   UNL     1      -4.541  -1.147  23.939  0.00  0.00    +0.002 A 
ATOM     23  C   UNL     1      -3.628  -3.379  24.096  0.00  0.00    +0.002 A 
ATOM     24  C   UNL     1      -4.696  -2.527  23.812  0.00  0.00    +0.000 A 
ENDBRANCH   1  19
ENDBRANCH   8   1
ENDBRANCH  16   8
ENDBRANCH  12  16
TORSDOF 7
ENDMDL
MODEL 7
REMARK VINA RESULT:      -3.7      2.849      5.584
REMARK  Name = 75536678
REMARK  7 active torsions:
REMARK  status: ('A' for Active; 'I' for Inactive)
REMARK    1  A    between atoms: S_1  and  N_8
REMARK    2  A    between atoms: S_1  and  C_19
REMARK    3  A    between atoms: O_3  and  C_10
REMARK    4  A    between atoms: N_6  and  C_9
REMARK    5  A    between atoms: N_6  and  C_11
REMARK    6  A    between atoms: N_8  and  C_16
REMARK    7  A    between atoms: C_12  and  C_16
REMARK                            x       y       z     vdW  Elec       q    Type
REMARK                         _______ _______ _______ _____ _____    ______ ____
ROOT
ATOM      2  O   UNL     1      -0.971   1.602  23.017  0.00  0.00    -0.371 OA
ATOM      9  C   UNL     1      -2.572   3.333  23.304  0.00  0.00    +0.111 C 
ATOM     10  C   UNL     1      -1.760   3.194  24.578  0.00  0.00    +0.164 C 
ATOM     12  C   UNL     1      -0.518   2.482  24.058  0.00  0.00    +0.164 C 
ATOM     13  C   UNL     1      -2.296   2.001  22.625  0.00  0.00    +0.181 C 
ENDROOT
BRANCH  10   3
ATOM      3  O   UNL     1      -1.446   4.442  25.164  0.00  0.00    -0.388 OA
ATOM     27  H   UNL     1      -1.324   4.309  26.119  0.00  0.00    +0.210 HD
ENDBRANCH  10   3
BRANCH   9   6
ATOM      6  N   UNL     1      -3.988   3.566  23.536  0.00  0.00    -0.306 NA
ATOM     25  H   UNL     1      -4.528   3.280  22.720  0.00  0.00    +0.123 HD
BRANCH   6  11
ATOM      7  N   UNL     1      -6.567   2.247  26.652  0.00  0.00    -0.316 NA
ATOM     11  C   UNL     1      -4.448   2.837  24.715  0.00  0.00    +0.056 C 
ATOM     14  C   UNL     1      -5.641   1.936  24.372  0.00  0.00    +0.034 C 
ATOM     15  C   UNL     1      -4.830   3.815  25.830  0.00  0.00    +0.034 C 
ATOM     17  C   UNL     1      -6.196   1.266  25.630  0.00  0.00    +0.082 C 
ATOM     18  C   UNL     1      -5.416   3.072  27.031  0.00  0.00    +0.082 C 
ATOM     26  H   UNL     1      -6.916   1.759  27.475  0.00  0.00    +0.122 HD
ENDBRANCH   6  11
ENDBRANCH   9   6
BRANCH  12  16
ATOM     16  C   UNL     1       0.208   1.684  25.126  0.00  0.00    +0.140 C 
BRANCH  16   8
ATOM      8  N   UNL     1      -0.631   0.547  25.551  0.00  0.00    -0.187 NA
ATOM     28  H   UNL     1      -1.040   0.621  26.491  0.00  0.00    +0.148 HD
BRANCH   8   1
ATOM      1  S   UNL     1      -0.353  -1.003  24.910  0.00  0.00    +0.058 S 
ATOM      4  O   UNL     1       0.169  -1.867  25.952  0.00  0.00    -0.153 OA
ATOM      5  O   UNL     1       0.353  -0.873  23.649  0.00  0.00    -0.153 OA
BRANCH   1  19
ATOM     19  C   UNL     1      -1.994  -1.539  24.529  0.00  0.00    +0.105 A 
ATOM     20  C   UNL     1      -2.264  -2.897  24.364  0.00  0.00    +0.028 A 
ATOM     21  C   UNL     1      -3.018  -0.603  24.389  0.00  0.00    +0.028 A 
ATOM     22  C   UNL     1      -3.558  -3.320  24.059  0.00  0.00    +0.002 A 
ATOM     23  C   UNL     1      -4.312  -1.024  24.085  0.00  0.00    +0.002 A 
ATOM     24  C   UNL     1      -4.582  -2.384  23.920  0.00  0.00    +0.000 A 
ENDBRANCH   1  19
ENDBRANCH   8   1
ENDBRANCH  16   8
ENDBRANCH  12  16
TORSDOF 7
ENDMDL
MODEL 8
REMARK VINA RESULT:      -3.3      2.287      4.653
REMARK  Name = 75536678
REMARK  7 active torsions:
REMARK  status: ('A' for Active; 'I' for Inactive)
REMARK    1  A    between atoms: S_1  and  N_8
REMARK    2  A    between atoms: S_1  and  C_19
REMARK    3  A    between atoms: O_3  and  C_10
REMARK    4  A    between atoms: N_6  and  C_9
REMARK    5  A    between atoms: N_6  and  C_11
REMARK    6  A    between atoms: N_8  and  C_16
REMARK    7  A    between atoms: C_12  and  C_16
REMARK                            x       y       z     vdW  Elec       q    Type
REMARK                         _______ _______ _______ _____ _____    ______ ____
ROOT
ATOM      2  O   UNL     1      -4.579   2.301  23.559  0.00  0.00    -0.371 OA
ATOM      9  C   UNL     1      -5.011   0.503  25.048  0.00  0.00    +0.111 C 
ATOM     10  C   UNL     1      -5.179   1.813  25.793  0.00  0.00    +0.164 C 
ATOM     12  C   UNL     1      -5.396   2.782  24.638  0.00  0.00    +0.164 C 
ATOM     13  C   UNL     1      -4.196   0.944  23.844  0.00  0.00    +0.181 C 
ENDROOT
BRANCH  10   3
ATOM      3  O   UNL     1      -6.279   1.799  26.682  0.00  0.00    -0.388 OA
ATOM     27  H   UNL     1      -6.191   1.027  27.266  0.00  0.00    +0.210 HD
ENDBRANCH  10   3
BRANCH   9   6
ATOM      6  N   UNL     1      -4.351  -0.532  25.828  0.00  0.00    -0.306 NA
ATOM     25  H   UNL     1      -4.988  -1.313  25.983  0.00  0.00    +0.123 HD
BRANCH   6  11
ATOM      7  N   UNL     1      -0.871  -2.847  25.039  0.00  0.00    -0.316 NA
ATOM     11  C   UNL     1      -3.145  -1.003  25.152  0.00  0.00    +0.056 C 
ATOM     14  C   UNL     1      -3.299  -2.463  24.710  0.00  0.00    +0.034 C 
ATOM     15  C   UNL     1      -1.929  -0.855  26.071  0.00  0.00    +0.034 C 
ATOM     17  C   UNL     1      -1.995  -2.990  24.111  0.00  0.00    +0.082 C 
ATOM     18  C   UNL     1      -0.678  -1.445  25.418  0.00  0.00    +0.082 C 
ATOM     26  H   UNL     1      -0.022  -3.195  24.595  0.00  0.00    +0.122 HD
ENDBRANCH   6  11
ENDBRANCH   9   6
BRANCH  12  16
ATOM     16  C   UNL     1      -5.015   4.212  24.974  0.00  0.00    +0.140 C 
BRANCH  16   8
ATOM      8  N   UNL     1      -3.670   4.504  24.442  0.00  0.00    -0.187 NA
ATOM     28  H   UNL     1      -3.510   4.239  23.462  0.00  0.00    +0.148 HD
BRANCH   8   1
ATOM      1  S   UNL     1      -2.333   4.560  25.492  0.00  0.00    +0.058 S 
ATOM      4  O   UNL     1      -2.755   4.189  26.829  0.00  0.00    -0.153 OA
ATOM      5  O   UNL     1      -1.613   5.801  25.274  0.00  0.00    -0.153 OA
BRANCH   1  19
ATOM     19  C   UNL     1      -1.319   3.257  24.860  0.00  0.00    +0.105 A 
ATOM     20  C   UNL     1      -1.627   2.667  23.635  0.00  0.00    +0.028 A 
ATOM     21  C   UNL     1      -0.215   2.816  25.589  0.00  0.00    +0.028 A 
ATOM     22  C   UNL     1      -0.829   1.635  23.137  0.00  0.00    +0.002 A 
ATOM     23  C   UNL     1       0.582   1.786  25.092  0.00  0.00    +0.002 A 
ATOM     24  C   UNL     1       0.275   1.195  23.866  0.00  0.00    +0.000 A 
ENDBRANCH   1  19
ENDBRANCH   8   1
ENDBRANCH  16   8
ENDBRANCH  12  16
TORSDOF 7
ENDMDL
MODEL 9
REMARK VINA RESULT:      -2.9      2.961      4.766
REMARK  Name = 75536678
REMARK  7 active torsions:
REMARK  status: ('A' for Active; 'I' for Inactive)
REMARK    1  A    between atoms: S_1  and  N_8
REMARK    2  A    between atoms: S_1  and  C_19
REMARK    3  A    between atoms: O_3  and  C_10
REMARK    4  A    between atoms: N_6  and  C_9
REMARK    5  A    between atoms: N_6  and  C_11
REMARK    6  A    between atoms: N_8  and  C_16
REMARK    7  A    between atoms: C_12  and  C_16
REMARK                            x       y       z     vdW  Elec       q    Type
REMARK                         _______ _______ _______ _____ _____    ______ ____
ROOT
ATOM      2  O   UNL     1      -0.094  -0.198  23.687  0.00  0.00    -0.371 OA
ATOM      9  C   UNL     1      -0.218   0.904  25.787  0.00  0.00    +0.111 C 
ATOM     10  C   UNL     1      -0.931  -0.432  25.886  0.00  0.00    +0.164 C 
ATOM     12  C   UNL     1      -0.316  -1.181  24.712  0.00  0.00    +0.164 C 
ATOM     13  C   UNL     1      -0.173   1.108  24.281  0.00  0.00    +0.181 C 
ENDROOT
BRANCH  10   3
ATOM      3  O   UNL     1      -0.690  -1.090  27.115  0.00  0.00    -0.388 OA
ATOM     27  H   UNL     1      -1.404  -1.733  27.263  0.00  0.00    +0.210 HD
ENDBRANCH  10   3
BRANCH   9   6
ATOM      6  N   UNL     1      -0.900   1.982  26.483  0.00  0.00    -0.306 NA
ATOM     25  H   UNL     1      -0.304   2.352  27.224  0.00  0.00    +0.123 HD
BRANCH   6  11
ATOM      7  N   UNL     1      -1.422   5.915  24.946  0.00  0.00    -0.316 NA
ATOM     11  C   UNL     1      -1.260   3.053  25.558  0.00  0.00    +0.056 C 
ATOM     14  C   UNL     1      -0.027   3.875  25.163  0.00  0.00    +0.034 C 
ATOM     15  C   UNL     1      -2.322   3.962  26.184  0.00  0.00    +0.034 C 
ATOM     17  C   UNL     1      -0.424   5.066  24.290  0.00  0.00    +0.082 C 
ATOM     18  C   UNL     1      -2.629   5.150  25.271  0.00  0.00    +0.082 C 
ATOM     26  H   UNL     1      -1.668   6.685  24.326  0.00  0.00    +0.122 HD
ENDBRANCH   6  11
ENDBRANCH   9   6
BRANCH  12  16
ATOM     16  C   UNL     1      -1.202  -2.291  24.176  0.00  0.00    +0.140 C 
BRANCH  16   8
ATOM      8  N   UNL     1      -2.424  -1.709  23.588  0.00  0.00    -0.187 NA
ATOM     28  H   UNL     1      -2.275  -0.991  22.868  0.00  0.00    +0.148 HD
BRANCH   8   1
ATOM      1  S   UNL     1      -3.864  -1.659  24.493  0.00  0.00    +0.058 S 
ATOM      4  O   UNL     1      -3.579  -2.015  25.869  0.00  0.00    -0.153 OA
ATOM      5  O   UNL     1      -4.906  -2.354  23.760  0.00  0.00    -0.153 OA
BRANCH   1  19
ATOM     19  C   UNL     1      -4.263   0.063  24.446  0.00  0.00    +0.105 A 
ATOM     20  C   UNL     1      -5.224   0.580  25.315  0.00  0.00    +0.028 A 
ATOM     21  C   UNL     1      -3.620   0.903  23.537  0.00  0.00    +0.028 A 
ATOM     22  C   UNL     1      -5.542   1.938  25.275  0.00  0.00    +0.002 A 
ATOM     23  C   UNL     1      -3.937   2.261  23.498  0.00  0.00    +0.002 A 
ATOM     24  C   UNL     1      -4.898   2.778  24.367  0.00  0.00    +0.000 A 
ENDBRANCH   1  19
ENDBRANCH   8   1
ENDBRANCH  16   8
ENDBRANCH  12  16
TORSDOF 7
ENDMDL
MODEL 10
REMARK VINA RESULT:      -2.9      1.986      4.046
REMARK  Name = 75536678
REMARK  7 active torsions:
REMARK  status: ('A' for Active; 'I' for Inactive)
REMARK    1  A    between atoms: S_1  and  N_8
REMARK    2  A    between atoms: S_1  and  C_19
REMARK    3  A    between atoms: O_3  and  C_10
REMARK    4  A    between atoms: N_6  and  C_9
REMARK    5  A    between atoms: N_6  and  C_11
REMARK    6  A    between atoms: N_8  and  C_16
REMARK    7  A    between atoms: C_12  and  C_16
REMARK                            x       y       z     vdW  Elec       q    Type
REMARK                         _______ _______ _______ _____ _____    ______ ____
ROOT
ATOM      2  O   UNL     1      -1.612  -1.948  24.354  0.00  0.00    -0.371 OA
ATOM      9  C   UNL     1       0.294  -0.591  23.942  0.00  0.00    +0.111 C 
ATOM     10  C   UNL     1      -0.708   0.199  24.763  0.00  0.00    +0.164 C 
ATOM     12  C   UNL     1      -1.549  -0.922  25.358  0.00  0.00    +0.164 C 
ATOM     13  C   UNL     1      -0.584  -1.697  23.379  0.00  0.00    +0.181 C 
ENDROOT
BRANCH  10   3
ATOM      3  O   UNL     1      -0.094   0.986  25.765  0.00  0.00    -0.388 OA
ATOM     27  H   UNL     1      -0.786   1.490  26.225  0.00  0.00    +0.210 HD
ENDBRANCH  10   3
BRANCH   9   6
ATOM      6  N   UNL     1       0.949   0.192  22.908  0.00  0.00    -0.306 NA
ATOM     25  H   UNL     1       0.869   1.187  23.119  0.00  0.00    +0.123 HD
BRANCH   6  11
ATOM      7  N   UNL     1       5.041  -0.300  23.963  0.00  0.00    -0.316 NA
ATOM     11  C   UNL     1       2.358  -0.177  22.791  0.00  0.00    +0.056 C 
ATOM     14  C   UNL     1       2.741  -1.221  23.847  0.00  0.00    +0.034 C 
ATOM     15  C   UNL     1       3.245   1.064  22.931  0.00  0.00    +0.034 C 
ATOM     17  C   UNL     1       4.241  -1.516  23.801  0.00  0.00    +0.082 C 
ATOM     18  C   UNL     1       4.725   0.680  22.920  0.00  0.00    +0.082 C 
ATOM     26  H   UNL     1       6.030  -0.539  23.911  0.00  0.00    +0.122 HD
ENDBRANCH   6  11
ENDBRANCH   9   6
BRANCH  12  16
ATOM     16  C   UNL     1      -2.954  -0.485  25.734  0.00  0.00    +0.140 C 
BRANCH  16   8
ATOM      8  N   UNL     1      -3.588   0.187  24.583  0.00  0.00    -0.187 NA
ATOM     28  H   UNL     1      -3.124   0.051  23.676  0.00  0.00    +0.148 HD
BRANCH   8   1
ATOM      1  S   UNL     1      -4.502   1.602  24.820  0.00  0.00    +0.058 S 
ATOM      4  O   UNL     1      -5.177   1.528  26.101  0.00  0.00    -0.153 OA
ATOM      5  O   UNL     1      -5.256   1.885  23.613  0.00  0.00    -0.153 OA
BRANCH   1  19
ATOM     19  C   UNL     1      -3.239   2.834  24.940  0.00  0.00    +0.105 A 
ATOM     20  C   UNL     1      -3.319   3.821  25.922  0.00  0.00    +0.028 A 
ATOM     21  C   UNL     1      -2.167   2.822  24.048  0.00  0.00    +0.028 A 
ATOM     22  C   UNL     1      -2.325   4.796  26.014  0.00  0.00    +0.002 A 
ATOM     23  C   UNL     1      -1.173   3.796  24.140  0.00  0.00    +0.002 A 
ATOM     24  C   UNL     1      -1.253   4.783  25.123  0.00  0.00    +0.000 A 
ENDBRANCH   1  19
ENDBRANCH   8   1
ENDBRANCH  16   8
ENDBRANCH  12  16
TORSDOF 7
ENDMDL
