MODEL 1
REMARK VINA RESULT:       0.6      0.000      0.000
REMARK  Name = 56774186
REMARK  9 active torsions:
REMARK  status: ('A' for Active; 'I' for Inactive)
REMARK    1  A    between atoms: O_3  and  C_28
REMARK    2  A    between atoms: O_3  and  C_29
REMARK    3  A    between atoms: N_4  and  C_8
REMARK    4  A    between atoms: C_6  and  C_11
REMARK    5  A    between atoms: C_6  and  C_12
REMARK    6  A    between atoms: C_7  and  C_10
REMARK    7  A    between atoms: C_10  and  C_13
REMARK    8  A    between atoms: C_14  and  C_16
REMARK    9  A    between atoms: C_17  and  C_20
REMARK                            x       y       z     vdW  Elec       q    Type
REMARK                         _______ _______ _______ _____ _____    ______ ____
ROOT
ATOM      6  C   UNL     1      -4.477   3.735  25.158  0.00  0.00    -0.013 C 
ATOM      7  C   UNL     1      -3.460   4.481  26.048  0.00  0.00    +0.004 C 
ATOM      8  C   UNL     1      -4.306   2.530  26.107  0.00  0.00    +0.079 C 
ATOM      9  C   UNL     1      -2.913   3.095  26.451  0.00  0.00    +0.027 C 
ATOM     11  C   UNL     1      -5.846   4.378  25.136  0.00  0.00    +0.013 C 
ATOM     12  C   UNL     1      -4.020   3.435  23.743  0.00  0.00    +0.013 C 
ENDROOT
BRANCH   8   4
ATOM      2  O   UNL     1      -2.083   0.701  26.055  0.00  0.00    -0.270 OA
ATOM      4  N   UNL     1      -4.264   1.212  25.460  0.00  0.00    -0.308 N 
ATOM     14  C   UNL     1      -3.134   0.401  25.492  0.00  0.00    +0.244 C 
ATOM     30  H   UNL     1      -5.070   0.913  24.919  0.00  0.00    +0.149 HD
BRANCH  14  16
ATOM     16  C   UNL     1      -3.247  -0.914  24.812  0.00  0.00    +0.037 A 
ATOM     18  C   UNL     1      -4.426  -1.260  24.152  0.00  0.00    +0.013 A 
ATOM     19  C   UNL     1      -2.174  -1.805  24.837  0.00  0.00    +0.013 A 
ATOM     21  C   UNL     1      -4.531  -2.496  23.514  0.00  0.00    +0.001 A 
ATOM     22  C   UNL     1      -2.279  -3.041  24.198  0.00  0.00    +0.001 A 
ATOM     25  C   UNL     1      -3.459  -3.387  23.537  0.00  0.00    +0.000 A 
ENDBRANCH  14  16
ENDBRANCH   8   4
BRANCH   7  10
ATOM     10  C   UNL     1      -2.447   5.393  25.345  0.00  0.00    +0.063 C 
BRANCH  10  13
ATOM      1  O   UNL     1       0.302   4.180  23.415  0.00  0.00    -0.354 OA
ATOM      5  N   UNL     1      -0.577   5.183  23.804  0.00  0.00    -0.083 NA
ATOM     13  C   UNL     1      -1.377   4.609  24.708  0.00  0.00    +0.084 A 
ATOM     15  C   UNL     1      -1.052   3.260  24.928  0.00  0.00    +0.076 A 
ATOM     17  C   UNL     1       0.009   3.039  24.090  0.00  0.00    +0.167 A 
BRANCH  17  20
ATOM     20  C   UNL     1       0.845   1.903  23.792  0.00  0.00    +0.020 A 
ATOM     23  C   UNL     1       2.177   2.095  23.424  0.00  0.00    +0.015 A 
ATOM     24  C   UNL     1       0.322   0.612  23.871  0.00  0.00    +0.015 A 
ATOM     26  C   UNL     1       2.986   0.995  23.136  0.00  0.00    +0.046 A 
ATOM     27  C   UNL     1       1.131  -0.487  23.583  0.00  0.00    +0.046 A 
ATOM     28  C   UNL     1       2.463  -0.295  23.216  0.00  0.00    +0.120 A 
BRANCH  28   3
ATOM      3  O   UNL     1       3.253  -1.369  22.937  0.00  0.00    -0.495 OA
ATOM     29  C   UNL     1       4.483  -1.471  23.653  0.00  0.00    +0.277 C 
ENDBRANCH  28   3
ENDBRANCH  17  20
ENDBRANCH  10  13
ENDBRANCH   7  10
TORSDOF 6
ENDMDL
MODEL 2
REMARK VINA RESULT:       2.4      1.919      5.351
REMARK  Name = 56774186
REMARK  9 active torsions:
REMARK  status: ('A' for Active; 'I' for Inactive)
REMARK    1  A    between atoms: O_3  and  C_28
REMARK    2  A    between atoms: O_3  and  C_29
REMARK    3  A    between atoms: N_4  and  C_8
REMARK    4  A    between atoms: C_6  and  C_11
REMARK    5  A    between atoms: C_6  and  C_12
REMARK    6  A    between atoms: C_7  and  C_10
REMARK    7  A    between atoms: C_10  and  C_13
REMARK    8  A    between atoms: C_14  and  C_16
REMARK    9  A    between atoms: C_17  and  C_20
REMARK                            x       y       z     vdW  Elec       q    Type
REMARK                         _______ _______ _______ _____ _____    ______ ____
ROOT
ATOM      6  C   UNL     1      -4.105  -0.281  25.181  0.00  0.00    -0.013 C 
ATOM      7  C   UNL     1      -4.244  -1.428  24.158  0.00  0.00    +0.004 C 
ATOM      8  C   UNL     1      -4.204   0.692  23.987  0.00  0.00    +0.079 C 
ATOM      9  C   UNL     1      -3.671  -0.456  23.105  0.00  0.00    +0.027 C 
ATOM     11  C   UNL     1      -5.236  -0.224  26.184  0.00  0.00    +0.013 C 
ATOM     12  C   UNL     1      -2.770  -0.194  25.897  0.00  0.00    +0.013 C 
ENDROOT
BRANCH   8   4
ATOM      2  O   UNL     1      -4.402   2.942  25.773  0.00  0.00    -0.270 OA
ATOM      4  N   UNL     1      -3.311   1.857  24.040  0.00  0.00    -0.308 N 
ATOM     14  C   UNL     1      -3.494   2.897  24.945  0.00  0.00    +0.244 C 
ATOM     30  H   UNL     1      -2.570   1.930  23.347  0.00  0.00    +0.149 HD
BRANCH  14  16
ATOM     16  C   UNL     1      -2.498   3.997  24.895  0.00  0.00    +0.037 A 
ATOM     18  C   UNL     1      -2.902   5.316  25.102  0.00  0.00    +0.013 A 
ATOM     19  C   UNL     1      -1.157   3.711  24.638  0.00  0.00    +0.013 A 
ATOM     21  C   UNL     1      -1.966   6.348  25.055  0.00  0.00    +0.001 A 
ATOM     22  C   UNL     1      -0.220   4.743  24.591  0.00  0.00    +0.001 A 
ATOM     25  C   UNL     1      -0.625   6.063  24.798  0.00  0.00    +0.000 A 
ENDBRANCH  14  16
ENDBRANCH   8   4
BRANCH   7  10
ATOM     10  C   UNL     1      -3.402  -2.688  24.396  0.00  0.00    +0.063 C 
BRANCH  10  13
ATOM      1  O   UNL     1       0.041  -2.336  25.275  0.00  0.00    -0.354 OA
ATOM      5  N   UNL     1      -1.241  -2.819  25.504  0.00  0.00    -0.083 NA
ATOM     13  C   UNL     1      -1.970  -2.363  24.481  0.00  0.00    +0.084 A 
ATOM     15  C   UNL     1      -1.208  -1.596  23.583  0.00  0.00    +0.076 A 
ATOM     17  C   UNL     1       0.049  -1.609  24.128  0.00  0.00    +0.167 A 
BRANCH  17  20
ATOM     20  C   UNL     1       1.321  -1.042  23.755  0.00  0.00    +0.020 A 
ATOM     23  C   UNL     1       2.501  -1.732  24.035  0.00  0.00    +0.015 A 
ATOM     24  C   UNL     1       1.372   0.196  23.114  0.00  0.00    +0.015 A 
ATOM     26  C   UNL     1       3.731  -1.183  23.673  0.00  0.00    +0.046 A 
ATOM     27  C   UNL     1       2.602   0.744  22.753  0.00  0.00    +0.046 A 
ATOM     28  C   UNL     1       3.782   0.054  23.032  0.00  0.00    +0.120 A 
BRANCH  28   3
ATOM      3  O   UNL     1       4.983   0.588  22.677  0.00  0.00    -0.495 OA
ATOM     29  C   UNL     1       6.123   0.178  23.430  0.00  0.00    +0.277 C 
ENDBRANCH  28   3
ENDBRANCH  17  20
ENDBRANCH  10  13
ENDBRANCH   7  10
TORSDOF 6
ENDMDL
MODEL 3
REMARK VINA RESULT:       3.5      2.900      5.067
REMARK  Name = 56774186
REMARK  9 active torsions:
REMARK  status: ('A' for Active; 'I' for Inactive)
REMARK    1  A    between atoms: O_3  and  C_28
REMARK    2  A    between atoms: O_3  and  C_29
REMARK    3  A    between atoms: N_4  and  C_8
REMARK    4  A    between atoms: C_6  and  C_11
REMARK    5  A    between atoms: C_6  and  C_12
REMARK    6  A    between atoms: C_7  and  C_10
REMARK    7  A    between atoms: C_10  and  C_13
REMARK    8  A    between atoms: C_14  and  C_16
REMARK    9  A    between atoms: C_17  and  C_20
REMARK                            x       y       z     vdW  Elec       q    Type
REMARK                         _______ _______ _______ _____ _____    ______ ____
ROOT
ATOM      6  C   UNL     1      -3.035   1.937  25.036  0.00  0.00    -0.013 C 
ATOM      7  C   UNL     1      -2.723   2.141  23.539  0.00  0.00    +0.004 C 
ATOM      8  C   UNL     1      -2.179   3.192  25.307  0.00  0.00    +0.079 C 
ATOM      9  C   UNL     1      -1.445   2.883  23.985  0.00  0.00    +0.027 C 
ATOM     11  C   UNL     1      -4.507   2.048  25.367  0.00  0.00    +0.013 C 
ATOM     12  C   UNL     1      -2.453   0.685  25.667  0.00  0.00    +0.013 C 
ENDROOT
BRANCH   8   4
ATOM      2  O   UNL     1       0.559   2.305  25.398  0.00  0.00    -0.270 OA
ATOM      4  N   UNL     1      -1.312   3.128  26.490  0.00  0.00    -0.308 N 
ATOM     14  C   UNL     1       0.004   2.682  26.428  0.00  0.00    +0.244 C 
ATOM     30  H   UNL     1      -1.712   3.363  27.395  0.00  0.00    +0.149 HD
BRANCH  14  16
ATOM     16  C   UNL     1       0.765   2.695  27.703  0.00  0.00    +0.037 A 
ATOM     18  C   UNL     1       2.132   2.971  27.698  0.00  0.00    +0.013 A 
ATOM     19  C   UNL     1       0.112   2.426  28.906  0.00  0.00    +0.013 A 
ATOM     21  C   UNL     1       2.846   2.983  28.897  0.00  0.00    +0.001 A 
ATOM     22  C   UNL     1       0.825   2.438  30.105  0.00  0.00    +0.001 A 
ATOM     25  C   UNL     1       2.193   2.715  30.100  0.00  0.00    +0.000 A 
ENDBRANCH  14  16
ENDBRANCH   8   4
BRANCH   7  10
ATOM     10  C   UNL     1      -2.475   0.883  22.695  0.00  0.00    +0.063 C 
BRANCH  10  13
ATOM      1  O   UNL     1       0.339  -1.136  23.563  0.00  0.00    -0.354 OA
ATOM      5  N   UNL     1      -1.028  -0.927  23.430  0.00  0.00    -0.083 NA
ATOM     13  C   UNL     1      -1.142   0.318  22.960  0.00  0.00    +0.084 A 
ATOM     15  C   UNL     1       0.106   0.937  22.778  0.00  0.00    +0.076 A 
ATOM     17  C   UNL     1       1.005  -0.019  23.172  0.00  0.00    +0.167 A 
BRANCH  17  20
ATOM     20  C   UNL     1       2.442  -0.086  23.252  0.00  0.00    +0.020 A 
ATOM     23  C   UNL     1       3.216   0.997  22.830  0.00  0.00    +0.015 A 
ATOM     24  C   UNL     1       3.061  -1.232  23.751  0.00  0.00    +0.015 A 
ATOM     26  C   UNL     1       4.607   0.931  22.908  0.00  0.00    +0.046 A 
ATOM     27  C   UNL     1       4.452  -1.297  23.829  0.00  0.00    +0.046 A 
ATOM     28  C   UNL     1       5.224  -0.215  23.408  0.00  0.00    +0.120 A 
BRANCH  28   3
ATOM      3  O   UNL     1       6.582  -0.277  23.487  0.00  0.00    -0.495 OA
ATOM     29  C   UNL     1       7.262  -0.968  22.440  0.00  0.00    +0.277 C 
ENDBRANCH  28   3
ENDBRANCH  17  20
ENDBRANCH  10  13
ENDBRANCH   7  10
TORSDOF 6
ENDMDL
MODEL 4
REMARK VINA RESULT:       3.8      1.950      5.349
REMARK  Name = 56774186
REMARK  9 active torsions:
REMARK  status: ('A' for Active; 'I' for Inactive)
REMARK    1  A    between atoms: O_3  and  C_28
REMARK    2  A    between atoms: O_3  and  C_29
REMARK    3  A    between atoms: N_4  and  C_8
REMARK    4  A    between atoms: C_6  and  C_11
REMARK    5  A    between atoms: C_6  and  C_12
REMARK    6  A    between atoms: C_7  and  C_10
REMARK    7  A    between atoms: C_10  and  C_13
REMARK    8  A    between atoms: C_14  and  C_16
REMARK    9  A    between atoms: C_17  and  C_20
REMARK                            x       y       z     vdW  Elec       q    Type
REMARK                         _______ _______ _______ _____ _____    ______ ____
ROOT
ATOM      6  C   UNL     1      -3.012  -1.067  25.982  0.00  0.00    -0.013 C 
ATOM      7  C   UNL     1      -3.286  -1.960  24.754  0.00  0.00    +0.004 C 
ATOM      8  C   UNL     1      -3.865   0.016  25.289  0.00  0.00    +0.079 C 
ATOM      9  C   UNL     1      -3.498  -0.658  23.951  0.00  0.00    +0.027 C 
ATOM     11  C   UNL     1      -3.565  -1.628  27.273  0.00  0.00    +0.013 C 
ATOM     12  C   UNL     1      -1.569  -0.639  26.177  0.00  0.00    +0.013 C 
ENDROOT
BRANCH   8   4
ATOM      2  O   UNL     1      -2.631   1.597  23.223  0.00  0.00    -0.270 OA
ATOM      4  N   UNL     1      -3.368   1.393  25.410  0.00  0.00    -0.308 N 
ATOM     14  C   UNL     1      -2.784   2.072  24.346  0.00  0.00    +0.244 C 
ATOM     30  H   UNL     1      -3.399   1.839  26.323  0.00  0.00    +0.149 HD
BRANCH  14  16
ATOM     16  C   UNL     1      -2.349   3.466  24.613  0.00  0.00    +0.037 A 
ATOM     18  C   UNL     1      -1.003   3.813  24.494  0.00  0.00    +0.013 A 
ATOM     19  C   UNL     1      -3.287   4.429  24.987  0.00  0.00    +0.013 A 
ATOM     21  C   UNL     1      -0.596   5.123  24.745  0.00  0.00    +0.001 A 
ATOM     22  C   UNL     1      -2.880   5.739  25.239  0.00  0.00    +0.001 A 
ATOM     25  C   UNL     1      -1.533   6.086  25.119  0.00  0.00    +0.000 A 
ENDBRANCH  14  16
ENDBRANCH   8   4
BRANCH   7  10
ATOM     10  C   UNL     1      -2.135  -2.843  24.256  0.00  0.00    +0.063 C 
BRANCH  10  13
ATOM      1  O   UNL     1       0.108  -0.465  22.817  0.00  0.00    -0.354 OA
ATOM      5  N   UNL     1      -1.160  -1.004  22.999  0.00  0.00    -0.083 NA
ATOM     13  C   UNL     1      -0.983  -2.030  23.836  0.00  0.00    +0.084 A 
ATOM     15  C   UNL     1       0.362  -2.184  24.214  0.00  0.00    +0.076 A 
ATOM     17  C   UNL     1       1.006  -1.177  23.546  0.00  0.00    +0.167 A 
BRANCH  17  20
ATOM     20  C   UNL     1       2.375  -0.731  23.461  0.00  0.00    +0.020 A 
ATOM     23  C   UNL     1       2.665   0.536  22.952  0.00  0.00    +0.015 A 
ATOM     24  C   UNL     1       3.408  -1.564  23.887  0.00  0.00    +0.015 A 
ATOM     26  C   UNL     1       3.988   0.967  22.870  0.00  0.00    +0.046 A 
ATOM     27  C   UNL     1       4.732  -1.133  23.805  0.00  0.00    +0.046 A 
ATOM     28  C   UNL     1       5.022   0.133  23.297  0.00  0.00    +0.120 A 
BRANCH  28   3
ATOM      3  O   UNL     1       6.314   0.556  23.220  0.00  0.00    -0.495 OA
ATOM     29  C   UNL     1       7.326  -0.450  23.215  0.00  0.00    +0.277 C 
ENDBRANCH  28   3
ENDBRANCH  17  20
ENDBRANCH  10  13
ENDBRANCH   7  10
TORSDOF 6
ENDMDL
MODEL 5
REMARK VINA RESULT:       4.0      2.258      7.493
REMARK  Name = 56774186
REMARK  9 active torsions:
REMARK  status: ('A' for Active; 'I' for Inactive)
REMARK    1  A    between atoms: O_3  and  C_28
REMARK    2  A    between atoms: O_3  and  C_29
REMARK    3  A    between atoms: N_4  and  C_8
REMARK    4  A    between atoms: C_6  and  C_11
REMARK    5  A    between atoms: C_6  and  C_12
REMARK    6  A    between atoms: C_7  and  C_10
REMARK    7  A    between atoms: C_10  and  C_13
REMARK    8  A    between atoms: C_14  and  C_16
REMARK    9  A    between atoms: C_17  and  C_20
REMARK                            x       y       z     vdW  Elec       q    Type
REMARK                         _______ _______ _______ _____ _____    ______ ____
ROOT
ATOM      6  C   UNL     1       0.307  -0.646  23.027  0.00  0.00    -0.013 C 
ATOM      7  C   UNL     1       0.154  -1.789  24.052  0.00  0.00    +0.004 C 
ATOM      8  C   UNL     1       0.906   0.197  24.172  0.00  0.00    +0.079 C 
ATOM      9  C   UNL     1       0.113  -0.700  25.145  0.00  0.00    +0.027 C 
ATOM     11  C   UNL     1       1.242  -0.981  21.885  0.00  0.00    +0.013 C 
ATOM     12  C   UNL     1      -0.986  -0.066  22.487  0.00  0.00    +0.013 C 
ENDROOT
BRANCH   8   4
ATOM      2  O   UNL     1      -1.005   1.401  25.958  0.00  0.00    -0.270 OA
ATOM      4  N   UNL     1       0.496   1.607  24.205  0.00  0.00    -0.308 N 
ATOM     14  C   UNL     1      -0.440   2.091  25.113  0.00  0.00    +0.244 C 
ATOM     30  H   UNL     1       0.869   2.235  23.498  0.00  0.00    +0.149 HD
BRANCH  14  16
ATOM     16  C   UNL     1      -0.737   3.544  25.041  0.00  0.00    +0.037 A 
ATOM     18  C   UNL     1      -1.835   4.068  25.724  0.00  0.00    +0.013 A 
ATOM     19  C   UNL     1       0.081   4.386  24.286  0.00  0.00    +0.013 A 
ATOM     21  C   UNL     1      -2.113   5.432  25.656  0.00  0.00    +0.001 A 
ATOM     22  C   UNL     1      -0.197   5.751  24.218  0.00  0.00    +0.001 A 
ATOM     25  C   UNL     1      -1.295   6.275  24.902  0.00  0.00    +0.000 A 
ENDBRANCH  14  16
ENDBRANCH   8   4
BRANCH   7  10
ATOM     10  C   UNL     1      -1.111  -2.654  23.957  0.00  0.00    +0.063 C 
BRANCH  10  13
ATOM      1  O   UNL     1      -4.418  -1.436  24.537  0.00  0.00    -0.354 OA
ATOM      5  N   UNL     1      -3.517  -2.453  24.248  0.00  0.00    -0.083 NA
ATOM     13  C   UNL     1      -2.319  -1.861  24.235  0.00  0.00    +0.084 A 
ATOM     15  C   UNL     1      -2.401  -0.485  24.507  0.00  0.00    +0.076 A 
ATOM     17  C   UNL     1      -3.742  -0.268  24.689  0.00  0.00    +0.167 A 
BRANCH  17  20
ATOM     20  C   UNL     1      -4.548   0.887  24.997  0.00  0.00    +0.020 A 
ATOM     23  C   UNL     1      -5.631   0.768  25.870  0.00  0.00    +0.015 A 
ATOM     24  C   UNL     1      -4.247   2.122  24.424  0.00  0.00    +0.015 A 
ATOM     26  C   UNL     1      -6.411   1.885  26.168  0.00  0.00    +0.046 A 
ATOM     27  C   UNL     1      -5.027   3.239  24.722  0.00  0.00    +0.046 A 
ATOM     28  C   UNL     1      -6.108   3.120  25.595  0.00  0.00    +0.120 A 
BRANCH  28   3
ATOM      3  O   UNL     1      -6.868   4.211  25.889  0.00  0.00    -0.495 OA
ATOM     29  C   UNL     1      -6.335   5.487  25.536  0.00  0.00    +0.277 C 
ENDBRANCH  28   3
ENDBRANCH  17  20
ENDBRANCH  10  13
ENDBRANCH   7  10
TORSDOF 6
ENDMDL
