MODEL 1
REMARK VINA RESULT:      -4.5      0.000      0.000
REMARK  Name = 45784223
REMARK  5 active torsions:
REMARK  status: ('A' for Active; 'I' for Inactive)
REMARK    1  A    between atoms: N_1  and  C_8
REMARK    2  A    between atoms: C_4  and  C_9
REMARK    3  A    between atoms: C_8  and  C_10
REMARK    4  A    between atoms: C_8  and  C_11
REMARK    5  A    between atoms: C_16  and  C_18
REMARK                            x       y       z     vdW  Elec       q    Type
REMARK                         _______ _______ _______ _____ _____    ______ ____
ROOT
ATOM      2  N   UNL     1      -5.350 -10.530  16.814  0.00  0.00    -0.342 N 
ATOM      3  N   UNL     1      -6.040 -10.721  14.711  0.00  0.00    -0.232 NA
ATOM      9  C   UNL     1      -6.417 -10.625  15.965  0.00  0.00    +0.113 A 
ATOM     12  C   UNL     1      -4.207 -10.568  16.056  0.00  0.00    +0.066 A 
ATOM     13  C   UNL     1      -4.664 -10.687  14.747  0.00  0.00    +0.089 A 
ATOM     14  C   UNL     1      -2.855 -10.510  16.393  0.00  0.00    +0.031 A 
ATOM     15  C   UNL     1      -3.731 -10.754  13.699  0.00  0.00    +0.030 A 
ATOM     16  C   UNL     1      -1.940 -10.577  15.338  0.00  0.00    -0.048 A 
ATOM     17  C   UNL     1      -2.368 -10.697  14.014  0.00  0.00    +0.005 A 
ATOM     18  C   UNL     1      -0.477 -10.520  15.634  0.00  0.00    +0.044 C 
ATOM     19  H   UNL     1      -5.391 -10.446  17.822  0.00  0.00    +0.167 HD
ENDROOT
BRANCH   9   4
ATOM      1  N   UNL     1      -9.850  -9.417  16.389  0.00  0.00    -0.299 NA
ATOM      4  C   UNL     1      -7.836 -10.614  16.484  0.00  0.00    +0.070 C 
ATOM      5  C   UNL     1      -8.828  -9.977  15.502  0.00  0.00    +0.096 C 
ATOM      6  C   UNL     1      -8.038  -9.841  17.799  0.00  0.00    +0.028 C 
ATOM      7  C   UNL     1      -9.103  -8.798  17.483  0.00  0.00    +0.085 C 
BRANCH   1   8
ATOM      8  C   UNL     1     -10.720  -8.470  15.705  0.00  0.00    +0.050 C 
ATOM     10  C   UNL     1     -10.664  -8.693  14.197  0.00  0.00    +0.024 C 
ATOM     11  C   UNL     1     -10.304  -7.047  16.064  0.00  0.00    +0.024 C 
ENDBRANCH   1   8
ENDBRANCH   9   4
TORSDOF 2
ENDMDL
MODEL 2
REMARK VINA RESULT:      -4.4      2.751      3.852
REMARK  Name = 45784223
REMARK  5 active torsions:
REMARK  status: ('A' for Active; 'I' for Inactive)
REMARK    1  A    between atoms: N_1  and  C_8
REMARK    2  A    between atoms: C_4  and  C_9
REMARK    3  A    between atoms: C_8  and  C_10
REMARK    4  A    between atoms: C_8  and  C_11
REMARK    5  A    between atoms: C_16  and  C_18
REMARK                            x       y       z     vdW  Elec       q    Type
REMARK                         _______ _______ _______ _____ _____    ______ ____
ROOT
ATOM      2  N   UNL     1      -5.576 -10.264  13.710  0.00  0.00    -0.342 N 
ATOM      3  N   UNL     1      -7.659  -9.680  13.204  0.00  0.00    -0.232 NA
ATOM      9  C   UNL     1      -6.872 -10.176  14.132  0.00  0.00    +0.113 A 
ATOM     12  C   UNL     1      -5.521  -9.794  12.423  0.00  0.00    +0.066 A 
ATOM     13  C   UNL     1      -6.834  -9.436  12.130  0.00  0.00    +0.089 A 
ATOM     14  C   UNL     1      -4.469  -9.656  11.518  0.00  0.00    +0.031 A 
ATOM     15  C   UNL     1      -7.133  -8.906  10.863  0.00  0.00    +0.030 A 
ATOM     16  C   UNL     1      -4.784  -9.127  10.262  0.00  0.00    -0.048 A 
ATOM     17  C   UNL     1      -6.092  -8.758   9.938  0.00  0.00    +0.005 A 
ATOM     18  C   UNL     1      -3.701  -8.954   9.249  0.00  0.00    +0.044 C 
ATOM     19  H   UNL     1      -4.792 -10.613  14.248  0.00  0.00    +0.167 HD
ENDROOT
BRANCH   9   4
ATOM      1  N   UNL     1      -8.824 -10.203  17.233  0.00  0.00    -0.299 NA
ATOM      4  C   UNL     1      -7.278 -10.618  15.520  0.00  0.00    +0.070 C 
ATOM      5  C   UNL     1      -8.779 -10.441  15.789  0.00  0.00    +0.096 C 
ATOM      6  C   UNL     1      -6.584  -9.863  16.667  0.00  0.00    +0.028 C 
ATOM      7  C   UNL     1      -7.720  -9.281  17.500  0.00  0.00    +0.085 C 
BRANCH   1   8
ATOM      8  C   UNL     1     -10.108  -9.672  17.668  0.00  0.00    +0.050 C 
ATOM     10  C   UNL     1     -10.138  -8.155  17.498  0.00  0.00    +0.024 C 
ATOM     11  C   UNL     1     -10.355 -10.066  19.121  0.00  0.00    +0.024 C 
ENDBRANCH   1   8
ENDBRANCH   9   4
TORSDOF 2
ENDMDL
MODEL 3
REMARK VINA RESULT:      -3.7      4.198      7.817
REMARK  Name = 45784223
REMARK  5 active torsions:
REMARK  status: ('A' for Active; 'I' for Inactive)
REMARK    1  A    between atoms: N_1  and  C_8
REMARK    2  A    between atoms: C_4  and  C_9
REMARK    3  A    between atoms: C_8  and  C_10
REMARK    4  A    between atoms: C_8  and  C_11
REMARK    5  A    between atoms: C_16  and  C_18
REMARK                            x       y       z     vdW  Elec       q    Type
REMARK                         _______ _______ _______ _____ _____    ______ ____
ROOT
ATOM      2  N   UNL     1      -4.544  -8.988  10.142  0.00  0.00    -0.342 N 
ATOM      3  N   UNL     1      -5.723 -10.331  11.462  0.00  0.00    -0.232 NA
ATOM      9  C   UNL     1      -4.516  -9.975  11.086  0.00  0.00    +0.113 A 
ATOM     12  C   UNL     1      -5.859  -8.686   9.891  0.00  0.00    +0.066 A 
ATOM     13  C   UNL     1      -6.575  -9.538  10.727  0.00  0.00    +0.089 A 
ATOM     14  C   UNL     1      -6.464  -7.770   9.031  0.00  0.00    +0.031 A 
ATOM     15  C   UNL     1      -7.979  -9.487  10.717  0.00  0.00    +0.030 A 
ATOM     16  C   UNL     1      -7.861  -7.731   9.034  0.00  0.00    -0.048 A 
ATOM     17  C   UNL     1      -8.608  -8.574   9.862  0.00  0.00    +0.005 A 
ATOM     18  C   UNL     1      -8.568  -6.771   8.135  0.00  0.00    +0.044 C 
ATOM     19  H   UNL     1      -3.742  -8.553   9.705  0.00  0.00    +0.167 HD
ENDROOT
BRANCH   9   4
ATOM      1  N   UNL     1      -1.796 -10.598  13.461  0.00  0.00    -0.299 NA
ATOM      4  C   UNL     1      -3.209 -10.542  11.591  0.00  0.00    +0.070 C 
ATOM      5  C   UNL     1      -3.205 -10.781  13.106  0.00  0.00    +0.096 C 
ATOM      6  C   UNL     1      -1.977  -9.656  11.332  0.00  0.00    +0.028 C 
ATOM      7  C   UNL     1      -1.366  -9.421  12.708  0.00  0.00    +0.085 C 
BRANCH   1   8
ATOM      8  C   UNL     1      -1.600 -10.441  14.895  0.00  0.00    +0.050 C 
ATOM     10  C   UNL     1      -2.934 -10.556  15.627  0.00  0.00    +0.024 C 
ATOM     11  C   UNL     1      -0.936  -9.096  15.173  0.00  0.00    +0.024 C 
ENDBRANCH   1   8
ENDBRANCH   9   4
TORSDOF 2
ENDMDL
MODEL 4
REMARK VINA RESULT:      -3.5     14.160     16.469
REMARK  Name = 45784223
REMARK  5 active torsions:
REMARK  status: ('A' for Active; 'I' for Inactive)
REMARK    1  A    between atoms: N_1  and  C_8
REMARK    2  A    between atoms: C_4  and  C_9
REMARK    3  A    between atoms: C_8  and  C_10
REMARK    4  A    between atoms: C_8  and  C_11
REMARK    5  A    between atoms: C_16  and  C_18
REMARK                            x       y       z     vdW  Elec       q    Type
REMARK                         _______ _______ _______ _____ _____    ______ ____
ROOT
ATOM      2  N   UNL     1      -1.982   2.450  25.306  0.00  0.00    -0.342 N 
ATOM      3  N   UNL     1      -2.973   0.483  25.005  0.00  0.00    -0.232 NA
ATOM      9  C   UNL     1      -1.821   1.105  25.121  0.00  0.00    +0.113 A 
ATOM     12  C   UNL     1      -3.328   2.714  25.309  0.00  0.00    +0.066 A 
ATOM     13  C   UNL     1      -3.925   1.471  25.120  0.00  0.00    +0.089 A 
ATOM     14  C   UNL     1      -4.052   3.897  25.457  0.00  0.00    +0.031 A 
ATOM     15  C   UNL     1      -5.326   1.384  25.072  0.00  0.00    +0.030 A 
ATOM     16  C   UNL     1      -5.446   3.793  25.407  0.00  0.00    -0.048 A 
ATOM     17  C   UNL     1      -6.074   2.559  25.218  0.00  0.00    +0.005 A 
ATOM     18  C   UNL     1      -6.277   5.024  25.558  0.00  0.00    +0.044 C 
ATOM     19  H   UNL     1      -1.244   3.132  25.421  0.00  0.00    +0.167 HD
ENDROOT
BRANCH   9   4
ATOM      1  N   UNL     1       1.398   0.143  23.659  0.00  0.00    -0.299 NA
ATOM      4  C   UNL     1      -0.447   0.479  25.067  0.00  0.00    +0.070 C 
ATOM      5  C   UNL     1       0.509   1.212  24.116  0.00  0.00    +0.096 C 
ATOM      6  C   UNL     1      -0.422  -0.985  24.593  0.00  0.00    +0.028 C 
ATOM      7  C   UNL     1       0.516  -0.993  23.392  0.00  0.00    +0.085 C 
BRANCH   1   8
ATOM      8  C   UNL     1       2.175   0.529  22.490  0.00  0.00    +0.050 C 
ATOM     10  C   UNL     1       1.912  -0.435  21.337  0.00  0.00    +0.024 C 
ATOM     11  C   UNL     1       3.656   0.559  22.852  0.00  0.00    +0.024 C 
ENDBRANCH   1   8
ENDBRANCH   9   4
TORSDOF 2
ENDMDL
MODEL 5
REMARK VINA RESULT:      -3.2     14.447     16.793
REMARK  Name = 45784223
REMARK  5 active torsions:
REMARK  status: ('A' for Active; 'I' for Inactive)
REMARK    1  A    between atoms: N_1  and  C_8
REMARK    2  A    between atoms: C_4  and  C_9
REMARK    3  A    between atoms: C_8  and  C_10
REMARK    4  A    between atoms: C_8  and  C_11
REMARK    5  A    between atoms: C_16  and  C_18
REMARK                            x       y       z     vdW  Elec       q    Type
REMARK                         _______ _______ _______ _____ _____    ______ ____
ROOT
ATOM      2  N   UNL     1      -1.782   0.687  24.038  0.00  0.00    -0.342 N 
ATOM      3  N   UNL     1      -0.161   1.950  24.882  0.00  0.00    -0.232 NA
ATOM      9  C   UNL     1      -0.438   0.846  24.227  0.00  0.00    +0.113 A 
ATOM     12  C   UNL     1      -2.415   1.760  24.611  0.00  0.00    +0.066 A 
ATOM     13  C   UNL     1      -1.382   2.534  25.132  0.00  0.00    +0.089 A 
ATOM     14  C   UNL     1      -3.762   2.109  24.716  0.00  0.00    +0.031 A 
ATOM     15  C   UNL     1      -1.692   3.731  25.799  0.00  0.00    +0.030 A 
ATOM     16  C   UNL     1      -4.053   3.304  25.383  0.00  0.00    -0.048 A 
ATOM     17  C   UNL     1      -3.037   4.102  25.916  0.00  0.00    +0.005 A 
ATOM     18  C   UNL     1      -5.476   3.732  25.528  0.00  0.00    +0.044 C 
ATOM     19  H   UNL     1      -2.234  -0.083  23.561  0.00  0.00    +0.167 HD
ENDROOT
BRANCH   9   4
ATOM      1  N   UNL     1       2.690  -0.387  22.769  0.00  0.00    -0.299 NA
ATOM      4  C   UNL     1       0.554  -0.172  23.712  0.00  0.00    +0.070 C 
ATOM      5  C   UNL     1       2.012   0.269  23.889  0.00  0.00    +0.096 C 
ATOM      6  C   UNL     1       0.424  -0.500  22.214  0.00  0.00    +0.028 C 
ATOM      7  C   UNL     1       1.798  -0.200  21.626  0.00  0.00    +0.085 C 
BRANCH   1   8
ATOM      8  C   UNL     1       4.020   0.155  22.530  0.00  0.00    +0.050 C 
ATOM     10  C   UNL     1       5.006  -0.392  23.558  0.00  0.00    +0.024 C 
ATOM     11  C   UNL     1       3.964   1.678  22.579  0.00  0.00    +0.024 C 
ENDBRANCH   1   8
ENDBRANCH   9   4
TORSDOF 2
ENDMDL
MODEL 6
REMARK VINA RESULT:      -3.1     14.526     15.480
REMARK  Name = 45784223
REMARK  5 active torsions:
REMARK  status: ('A' for Active; 'I' for Inactive)
REMARK    1  A    between atoms: N_1  and  C_8
REMARK    2  A    between atoms: C_4  and  C_9
REMARK    3  A    between atoms: C_8  and  C_10
REMARK    4  A    between atoms: C_8  and  C_11
REMARK    5  A    between atoms: C_16  and  C_18
REMARK                            x       y       z     vdW  Elec       q    Type
REMARK                         _______ _______ _______ _____ _____    ______ ____
ROOT
ATOM      2  N   UNL     1       0.616   1.925  24.830  0.00  0.00    -0.342 N 
ATOM      3  N   UNL     1      -0.829   0.599  23.786  0.00  0.00    -0.232 NA
ATOM      9  C   UNL     1      -0.680   1.504  24.726  0.00  0.00    +0.113 A 
ATOM     12  C   UNL     1       1.353   1.246  23.894  0.00  0.00    +0.066 A 
ATOM     13  C   UNL     1       0.429   0.424  23.255  0.00  0.00    +0.089 A 
ATOM     14  C   UNL     1       2.707   1.279  23.561  0.00  0.00    +0.031 A 
ATOM     15  C   UNL     1       0.864  -0.421  22.220  0.00  0.00    +0.030 A 
ATOM     16  C   UNL     1       3.123   0.432  22.529  0.00  0.00    -0.048 A 
ATOM     17  C   UNL     1       2.219  -0.404  21.869  0.00  0.00    +0.005 A 
ATOM     18  C   UNL     1       4.561   0.421  22.126  0.00  0.00    +0.044 C 
ATOM     19  H   UNL     1       0.972   2.614  25.479  0.00  0.00    +0.167 HD
ENDROOT
BRANCH   9   4
ATOM      1  N   UNL     1      -3.932   2.946  25.605  0.00  0.00    -0.299 NA
ATOM      4  C   UNL     1      -1.761   2.060  25.624  0.00  0.00    +0.070 C 
ATOM      5  C   UNL     1      -3.176   1.803  25.089  0.00  0.00    +0.096 C 
ATOM      6  C   UNL     1      -1.697   3.582  25.846  0.00  0.00    +0.028 C 
ATOM      7  C   UNL     1      -3.059   4.101  25.399  0.00  0.00    +0.085 C 
BRANCH   1   8
ATOM      8  C   UNL     1      -5.222   3.101  24.948  0.00  0.00    +0.050 C 
ATOM     10  C   UNL     1      -5.981   4.282  25.544  0.00  0.00    +0.024 C 
ATOM     11  C   UNL     1      -6.021   1.809  25.086  0.00  0.00    +0.024 C 
ENDBRANCH   1   8
ENDBRANCH   9   4
TORSDOF 2
ENDMDL
MODEL 7
REMARK VINA RESULT:      -2.1     13.593     16.054
REMARK  Name = 45784223
REMARK  5 active torsions:
REMARK  status: ('A' for Active; 'I' for Inactive)
REMARK    1  A    between atoms: N_1  and  C_8
REMARK    2  A    between atoms: C_4  and  C_9
REMARK    3  A    between atoms: C_8  and  C_10
REMARK    4  A    between atoms: C_8  and  C_11
REMARK    5  A    between atoms: C_16  and  C_18
REMARK                            x       y       z     vdW  Elec       q    Type
REMARK                         _______ _______ _______ _____ _____    ______ ____
ROOT
ATOM      2  N   UNL     1      -1.091   1.191  23.852  0.00  0.00    -0.342 N 
ATOM      3  N   UNL     1      -2.053  -0.774  24.241  0.00  0.00    -0.232 NA
ATOM      9  C   UNL     1      -0.964  -0.169  23.824  0.00  0.00    +0.113 A 
ATOM     12  C   UNL     1      -2.348   1.484  24.318  0.00  0.00    +0.066 A 
ATOM     13  C   UNL     1      -2.928   0.241  24.553  0.00  0.00    +0.089 A 
ATOM     14  C   UNL     1      -3.006   2.692  24.546  0.00  0.00    +0.031 A 
ATOM     15  C   UNL     1      -4.242   0.181  25.045  0.00  0.00    +0.030 A 
ATOM     16  C   UNL     1      -4.313   2.615  25.037  0.00  0.00    -0.048 A 
ATOM     17  C   UNL     1      -4.923   1.382  25.282  0.00  0.00    +0.005 A 
ATOM     18  C   UNL     1      -5.071   3.874  25.301  0.00  0.00    +0.044 C 
ATOM     19  H   UNL     1      -0.387   1.865  23.580  0.00  0.00    +0.167 HD
ENDROOT
BRANCH   9   4
ATOM      1  N   UNL     1       2.616  -0.468  23.099  0.00  0.00    -0.299 NA
ATOM      4  C   UNL     1       0.313  -0.829  23.356  0.00  0.00    +0.070 C 
ATOM      5  C   UNL     1       1.556  -0.323  24.099  0.00  0.00    +0.096 C 
ATOM      6  C   UNL     1       0.639  -0.621  21.866  0.00  0.00    +0.028 C 
ATOM      7  C   UNL     1       2.025   0.012  21.850  0.00  0.00    +0.085 C 
BRANCH   1   8
ATOM      8  C   UNL     1       3.822   0.263  23.459  0.00  0.00    +0.050 C 
ATOM     10  C   UNL     1       4.242   1.186  22.318  0.00  0.00    +0.024 C 
ATOM     11  C   UNL     1       4.932  -0.725  23.801  0.00  0.00    +0.024 C 
ENDBRANCH   1   8
ENDBRANCH   9   4
TORSDOF 2
ENDMDL
MODEL 8
REMARK VINA RESULT:      -2.1     14.042     15.020
REMARK  Name = 45784223
REMARK  5 active torsions:
REMARK  status: ('A' for Active; 'I' for Inactive)
REMARK    1  A    between atoms: N_1  and  C_8
REMARK    2  A    between atoms: C_4  and  C_9
REMARK    3  A    between atoms: C_8  and  C_10
REMARK    4  A    between atoms: C_8  and  C_11
REMARK    5  A    between atoms: C_16  and  C_18
REMARK                            x       y       z     vdW  Elec       q    Type
REMARK                         _______ _______ _______ _____ _____    ______ ____
ROOT
ATOM      2  N   UNL     1       0.659   2.071  24.573  0.00  0.00    -0.342 N 
ATOM      3  N   UNL     1      -0.670   0.705  23.431  0.00  0.00    -0.232 NA
ATOM      9  C   UNL     1      -0.621   1.656  24.336  0.00  0.00    +0.113 A 
ATOM     12  C   UNL     1       1.493   1.338  23.768  0.00  0.00    +0.066 A 
ATOM     13  C   UNL     1       0.640   0.493  23.064  0.00  0.00    +0.089 A 
ATOM     14  C   UNL     1       2.878   1.343  23.599  0.00  0.00    +0.031 A 
ATOM     15  C   UNL     1       1.183  -0.408  22.133  0.00  0.00    +0.030 A 
ATOM     16  C   UNL     1       3.402   0.440  22.668  0.00  0.00    -0.048 A 
ATOM     17  C   UNL     1       2.571  -0.421  21.947  0.00  0.00    +0.005 A 
ATOM     18  C   UNL     1       4.877   0.396  22.442  0.00  0.00    +0.044 C 
ATOM     19  H   UNL     1       0.946   2.790  25.226  0.00  0.00    +0.167 HD
ENDROOT
BRANCH   9   4
ATOM      1  N   UNL     1      -4.101   2.042  25.415  0.00  0.00    -0.299 NA
ATOM      4  C   UNL     1      -1.793   2.267  25.069  0.00  0.00    +0.070 C 
ATOM      5  C   UNL     1      -2.876   1.240  25.428  0.00  0.00    +0.096 C 
ATOM      6  C   UNL     1      -2.539   3.366  24.293  0.00  0.00    +0.028 C 
ATOM      7  C   UNL     1      -3.986   2.891  24.230  0.00  0.00    +0.085 C 
BRANCH   1   8
ATOM      8  C   UNL     1      -5.303   1.219  25.393  0.00  0.00    +0.050 C 
ATOM     10  C   UNL     1      -5.046  -0.072  24.622  0.00  0.00    +0.024 C 
ATOM     11  C   UNL     1      -6.449   2.011  24.773  0.00  0.00    +0.024 C 
ENDBRANCH   1   8
ENDBRANCH   9   4
TORSDOF 2
ENDMDL
MODEL 9
REMARK VINA RESULT:      -1.8     13.918     16.131
REMARK  Name = 45784223
REMARK  5 active torsions:
REMARK  status: ('A' for Active; 'I' for Inactive)
REMARK    1  A    between atoms: N_1  and  C_8
REMARK    2  A    between atoms: C_4  and  C_9
REMARK    3  A    between atoms: C_8  and  C_10
REMARK    4  A    between atoms: C_8  and  C_11
REMARK    5  A    between atoms: C_16  and  C_18
REMARK                            x       y       z     vdW  Elec       q    Type
REMARK                         _______ _______ _______ _____ _____    ______ ____
ROOT
ATOM      2  N   UNL     1      -0.599   0.951  23.223  0.00  0.00    -0.342 N 
ATOM      3  N   UNL     1       0.070  -0.999  24.053  0.00  0.00    -0.232 NA
ATOM      9  C   UNL     1       0.399   0.020  23.292  0.00  0.00    +0.113 A 
ATOM     12  C   UNL     1      -1.643   0.502  23.991  0.00  0.00    +0.066 A 
ATOM     13  C   UNL     1      -1.202  -0.716  24.498  0.00  0.00    +0.089 A 
ATOM     14  C   UNL     1      -2.898   1.042  24.276  0.00  0.00    +0.031 A 
ATOM     15  C   UNL     1      -2.048  -1.454  25.342  0.00  0.00    +0.030 A 
ATOM     16  C   UNL     1      -3.728   0.295  25.118  0.00  0.00    -0.048 A 
ATOM     17  C   UNL     1      -3.313  -0.932  25.642  0.00  0.00    +0.005 A 
ATOM     18  C   UNL     1      -5.084   0.818  25.461  0.00  0.00    +0.044 C 
ATOM     19  H   UNL     1      -0.576   1.818  22.701  0.00  0.00    +0.167 HD
ENDROOT
BRANCH   9   4
ATOM      1  N   UNL     1       4.026  -0.023  22.769  0.00  0.00    -0.299 NA
ATOM      4  C   UNL     1       1.702   0.210  22.551  0.00  0.00    +0.070 C 
ATOM      5  C   UNL     1       2.791  -0.778  22.990  0.00  0.00    +0.096 C 
ATOM      6  C   UNL     1       2.345   1.598  22.719  0.00  0.00    +0.028 C 
ATOM      7  C   UNL     1       3.740   1.322  23.267  0.00  0.00    +0.085 C 
BRANCH   1   8
ATOM      8  C   UNL     1       5.172  -0.628  23.430  0.00  0.00    +0.050 C 
ATOM     10  C   UNL     1       4.784  -1.973  24.039  0.00  0.00    +0.024 C 
ATOM     11  C   UNL     1       5.704   0.323  24.497  0.00  0.00    +0.024 C 
ENDBRANCH   1   8
ENDBRANCH   9   4
TORSDOF 2
ENDMDL
MODEL 10
REMARK VINA RESULT:      -1.5     14.454     15.575
REMARK  Name = 45784223
REMARK  5 active torsions:
REMARK  status: ('A' for Active; 'I' for Inactive)
REMARK    1  A    between atoms: N_1  and  C_8
REMARK    2  A    between atoms: C_4  and  C_9
REMARK    3  A    between atoms: C_8  and  C_10
REMARK    4  A    between atoms: C_8  and  C_11
REMARK    5  A    between atoms: C_16  and  C_18
REMARK                            x       y       z     vdW  Elec       q    Type
REMARK                         _______ _______ _______ _____ _____    ______ ____
ROOT
ATOM      2  N   UNL     1       1.538   1.495  23.196  0.00  0.00    -0.342 N 
ATOM      3  N   UNL     1       0.787  -0.557  23.596  0.00  0.00    -0.232 NA
ATOM      9  C   UNL     1       0.448   0.695  23.386  0.00  0.00    +0.113 A 
ATOM     12  C   UNL     1       2.657   0.708  23.290  0.00  0.00    +0.066 A 
ATOM     13  C   UNL     1       2.162  -0.569  23.540  0.00  0.00    +0.089 A 
ATOM     14  C   UNL     1       4.018   0.994  23.180  0.00  0.00    +0.031 A 
ATOM     15  C   UNL     1       3.064  -1.635  23.693  0.00  0.00    +0.030 A 
ATOM     16  C   UNL     1       4.902  -0.079  23.335  0.00  0.00    -0.048 A 
ATOM     17  C   UNL     1       4.435  -1.371  23.587  0.00  0.00    +0.005 A 
ATOM     18  C   UNL     1       6.372   0.163  23.229  0.00  0.00    +0.044 C 
ATOM     19  H   UNL     1       1.527   2.491  23.017  0.00  0.00    +0.167 HD
ENDROOT
BRANCH   9   4
ATOM      1  N   UNL     1      -2.475   2.570  24.555  0.00  0.00    -0.299 NA
ATOM      4  C   UNL     1      -0.955   1.256  23.346  0.00  0.00    +0.070 C 
ATOM      5  C   UNL     1      -1.087   2.592  24.090  0.00  0.00    +0.096 C 
ATOM      6  C   UNL     1      -2.031   0.352  23.974  0.00  0.00    +0.028 C 
ATOM      7  C   UNL     1      -2.688   1.210  25.049  0.00  0.00    +0.085 C 
BRANCH   1   8
ATOM      8  C   UNL     1      -2.736   3.578  25.573  0.00  0.00    +0.050 C 
ATOM     10  C   UNL     1      -4.219   3.935  25.596  0.00  0.00    +0.024 C 
ATOM     11  C   UNL     1      -1.879   4.810  25.300  0.00  0.00    +0.024 C 
ENDBRANCH   1   8
ENDBRANCH   9   4
TORSDOF 2
ENDMDL
