MODEL 1
REMARK VINA RESULT:      19.5      0.000      0.000
REMARK  Name = 7682180
REMARK  6 active torsions:
REMARK  status: ('A' for Active; 'I' for Inactive)
REMARK    1  A    between atoms: N_9  and  C_16
REMARK    2  A    between atoms: N_11  and  C_26
REMARK    3  A    between atoms: C_12  and  C_17
REMARK    4  A    between atoms: C_21  and  C_24
REMARK    5  A    between atoms: C_33  and  C_34
REMARK    6  A    between atoms: C_34  and  C_35
REMARK                            x       y       z     vdW  Elec       q    Type
REMARK                         _______ _______ _______ _____ _____    ______ ____
ROOT
ATOM      3  O   UNL     1      -3.337   0.441  23.605  0.00  0.00    -0.269 OA
ATOM      5  O   UNL     1       3.284   0.850  21.571  0.00  0.00    -0.252 OA
ATOM      7  N   UNL     1      -1.196  -0.440  23.519  0.00  0.00    -0.283 N 
ATOM      8  N   UNL     1       1.628  -0.161  22.831  0.00  0.00    -0.282 N 
ATOM     11  N   UNL     1       3.891  -0.377  23.454  0.00  0.00    -0.269 N 
ATOM     12  C   UNL     1      -0.716   0.669  22.693  0.00  0.00    +0.179 C 
ATOM     13  C   UNL     1       0.573   0.336  21.943  0.00  0.00    +0.141 C 
ATOM     14  C   UNL     1      -0.230  -1.505  23.825  0.00  0.00    +0.128 C 
ATOM     15  C   UNL     1       1.196  -0.984  23.969  0.00  0.00    +0.128 C 
ATOM     21  C   UNL     1      -2.560  -0.475  23.881  0.00  0.00    +0.254 C 
ATOM     23  C   UNL     1       2.976   0.154  22.542  0.00  0.00    +0.307 C 
ATOM     38  H   UNL     1       3.538  -0.900  24.248  0.00  0.00    +0.156 HD
ENDROOT
BRANCH  11  26
ATOM     26  C   UNL     1       5.302  -0.244  23.445  0.00  0.00    +0.035 A 
ATOM     29  C   UNL     1       6.083  -1.147  22.724  0.00  0.00    +0.024 A 
ATOM     30  C   UNL     1       5.909   0.791  24.156  0.00  0.00    +0.024 A 
ATOM     31  C   UNL     1       7.471  -1.017  22.715  0.00  0.00    +0.013 A 
ATOM     32  C   UNL     1       7.298   0.921  24.147  0.00  0.00    +0.013 A 
ATOM     33  C   UNL     1       8.079   0.018  23.426  0.00  0.00    +0.017 A 
BRANCH  33  34
ATOM      6  O   UNL     1      10.161   0.281  22.348  0.00  0.00    -0.292 OA
ATOM     34  C   UNL     1       9.527   0.154  23.415  0.00  0.00    +0.160 C 
ATOM     35  C   UNL     1      10.310   0.145  24.725  0.00  0.00    +0.091 C 
ENDBRANCH  33  34
ENDBRANCH  11  26
BRANCH  21  24
ATOM      1  S   UNL     1      -2.865  -1.680  26.321  0.00  0.00    -0.092 S 
ATOM     24  C   UNL     1      -3.032  -1.645  24.617  0.00  0.00    +0.074 A 
ATOM     25  C   UNL     1      -3.624  -2.790  24.131  0.00  0.00    +0.021 A 
ATOM     27  C   UNL     1      -3.945  -3.709  25.172  0.00  0.00    +0.008 A 
ATOM     28  C   UNL     1      -3.586  -3.230  26.413  0.00  0.00    +0.046 A 
ENDBRANCH  21  24
BRANCH  12  17
ATOM      2  O   UNL     1       0.613   2.317  23.805  0.00  0.00    -0.274 OA
ATOM      9  N   UNL     1      -1.690   2.309  24.145  0.00  0.00    -0.302 N 
ATOM     17  C   UNL     1      -0.506   1.852  23.595  0.00  0.00    +0.236 C 
ATOM     36  H   UNL     1      -2.563   1.865  23.875  0.00  0.00    +0.150 HD
BRANCH   9  16
ATOM      4  O   UNL     1      -3.913   2.551  25.717  0.00  0.00    -0.274 OA
ATOM     10  N   UNL     1      -3.618   4.809  25.891  0.00  0.00    -0.314 N 
ATOM     16  C   UNL     1      -1.758   3.417  25.062  0.00  0.00    +0.159 C 
ATOM     18  C   UNL     1      -1.200   4.683  24.424  0.00  0.00    +0.033 C 
ATOM     19  C   UNL     1      -1.444   5.868  25.345  0.00  0.00    +0.021 C 
ATOM     20  C   UNL     1      -2.938   6.043  25.541  0.00  0.00    +0.104 C 
ATOM     22  C   UNL     1      -3.199   3.541  25.545  0.00  0.00    +0.233 C 
ATOM     37  H   UNL     1      -4.556   4.895  26.268  0.00  0.00    +0.149 HD
ENDBRANCH   9  16
ENDBRANCH  12  17
TORSDOF 5
ENDMDL
MODEL 2
REMARK VINA RESULT:      21.6      2.539      3.046
REMARK  Name = 7682180
REMARK  6 active torsions:
REMARK  status: ('A' for Active; 'I' for Inactive)
REMARK    1  A    between atoms: N_9  and  C_16
REMARK    2  A    between atoms: N_11  and  C_26
REMARK    3  A    between atoms: C_12  and  C_17
REMARK    4  A    between atoms: C_21  and  C_24
REMARK    5  A    between atoms: C_33  and  C_34
REMARK    6  A    between atoms: C_34  and  C_35
REMARK                            x       y       z     vdW  Elec       q    Type
REMARK                         _______ _______ _______ _____ _____    ______ ____
ROOT
ATOM      3  O   UNL     1      -3.525   0.940  25.355  0.00  0.00    -0.269 OA
ATOM      5  O   UNL     1       2.999   2.208  23.363  0.00  0.00    -0.252 OA
ATOM      7  N   UNL     1      -1.562   0.261  24.330  0.00  0.00    -0.283 N 
ATOM      8  N   UNL     1       1.244   0.733  23.675  0.00  0.00    -0.282 N 
ATOM     11  N   UNL     1       3.461  -0.063  23.588  0.00  0.00    -0.269 N 
ATOM     12  C   UNL     1      -0.935   1.566  24.546  0.00  0.00    +0.179 C 
ATOM     13  C   UNL     1       0.256   1.815  23.621  0.00  0.00    +0.141 C 
ATOM     14  C   UNL     1      -0.774  -0.738  23.595  0.00  0.00    +0.128 C 
ATOM     15  C   UNL     1       0.723  -0.626  23.867  0.00  0.00    +0.128 C 
ATOM     21  C   UNL     1      -2.900   0.076  24.739  0.00  0.00    +0.254 C 
ATOM     23  C   UNL     1       2.615   1.047  23.523  0.00  0.00    +0.307 C 
ATOM     38  H   UNL     1       3.055  -0.974  23.767  0.00  0.00    +0.156 HD
ENDROOT
BRANCH  11  26
ATOM     26  C   UNL     1       4.873  -0.084  23.474  0.00  0.00    +0.035 A 
ATOM     29  C   UNL     1       5.498  -1.085  22.729  0.00  0.00    +0.024 A 
ATOM     30  C   UNL     1       5.639   0.896  24.106  0.00  0.00    +0.024 A 
ATOM     31  C   UNL     1       6.888  -1.107  22.618  0.00  0.00    +0.013 A 
ATOM     32  C   UNL     1       7.029   0.874  23.994  0.00  0.00    +0.013 A 
ATOM     33  C   UNL     1       7.654  -0.126  23.249  0.00  0.00    +0.017 A 
BRANCH  33  34
ATOM      6  O   UNL     1       9.672  -0.768  22.210  0.00  0.00    -0.292 OA
ATOM     34  C   UNL     1       9.103  -0.148  23.132  0.00  0.00    +0.160 C 
ATOM     35  C   UNL     1       9.968   0.595  24.145  0.00  0.00    +0.091 C 
ENDBRANCH  33  34
ENDBRANCH  11  26
BRANCH  21  24
ATOM      1  S   UNL     1      -3.066  -2.603  25.284  0.00  0.00    -0.092 S 
ATOM     24  C   UNL     1      -3.532  -1.201  24.417  0.00  0.00    +0.074 A 
ATOM     25  C   UNL     1      -4.498  -1.473  23.473  0.00  0.00    +0.021 A 
ATOM     27  C   UNL     1      -4.862  -2.850  23.462  0.00  0.00    +0.008 A 
ATOM     28  C   UNL     1      -4.159  -3.579  24.397  0.00  0.00    +0.046 A 
ENDBRANCH  21  24
BRANCH  12  17
ATOM      2  O   UNL     1      -0.636   0.676  26.745  0.00  0.00    -0.274 OA
ATOM      9  N   UNL     1       0.021   2.868  26.319  0.00  0.00    -0.302 N 
ATOM     17  C   UNL     1      -0.503   1.632  25.984  0.00  0.00    +0.236 C 
ATOM     36  H   UNL     1       0.112   3.577  25.597  0.00  0.00    +0.150 HD
BRANCH   9  16
ATOM      4  O   UNL     1       2.713   2.824  26.791  0.00  0.00    -0.274 OA
ATOM     10  N   UNL     1       2.377   2.400  29.010  0.00  0.00    -0.314 N 
ATOM     16  C   UNL     1       0.485   3.196  27.642  0.00  0.00    +0.159 C 
ATOM     18  C   UNL     1      -0.430   2.596  28.701  0.00  0.00    +0.033 C 
ATOM     19  C   UNL     1       0.178   2.807  30.079  0.00  0.00    +0.021 C 
ATOM     20  C   UNL     1       1.519   2.101  30.142  0.00  0.00    +0.104 C 
ATOM     22  C   UNL     1       1.942   2.759  27.751  0.00  0.00    +0.233 C 
ATOM     37  H   UNL     1       3.359   2.164  29.106  0.00  0.00    +0.149 HD
ENDBRANCH   9  16
ENDBRANCH  12  17
TORSDOF 5
ENDMDL
