MODEL 1
REMARK VINA RESULT:       8.0      0.000      0.000
REMARK  Name = 11885232
REMARK  6 active torsions:
REMARK  status: ('A' for Active; 'I' for Inactive)
REMARK    1  A    between atoms: N_6  and  C_25
REMARK    2  A    between atoms: N_6  and  C_32
REMARK    3  A    between atoms: N_6  and  C_33
REMARK    4  A    between atoms: C_16  and  C_19
REMARK    5  A    between atoms: C_17  and  C_20
REMARK    6  A    between atoms: C_21  and  C_25
REMARK                            x       y       z     vdW  Elec       q    Type
REMARK                         _______ _______ _______ _____ _____    ______ ____
ROOT
ATOM      2  O   UNL     1       0.355   2.525  25.350  0.00  0.00    -0.267 OA
ATOM      3  O   UNL     1      -3.837   0.262  27.184  0.00  0.00    -0.270 OA
ATOM      4  N   UNL     1      -4.531   1.622  25.411  0.00  0.00    -0.297 N 
ATOM      5  N   UNL     1      -1.756   2.724  24.382  0.00  0.00    -0.311 N 
ATOM      7  C   UNL     1      -3.688   3.957  25.529  0.00  0.00    +0.027 C 
ATOM      8  C   UNL     1      -4.041   2.894  23.336  0.00  0.00    +0.054 C 
ATOM      9  C   UNL     1      -4.188   4.204  24.109  0.00  0.00    +0.018 C 
ATOM     10  C   UNL     1      -4.518   2.851  26.205  0.00  0.00    +0.113 C 
ATOM     11  C   UNL     1      -2.195   3.608  25.472  0.00  0.00    +0.130 C 
ATOM     12  C   UNL     1      -4.908   1.802  24.000  0.00  0.00    +0.117 C 
ATOM     13  C   UNL     1      -2.595   2.440  23.301  0.00  0.00    +0.027 A 
ATOM     14  C   UNL     1      -2.134   1.732  22.257  0.00  0.00    +0.022 A 
ATOM     15  C   UNL     1      -0.425   2.269  24.431  0.00  0.00    +0.259 A 
ATOM     16  C   UNL     1      -4.151   0.415  26.005  0.00  0.00    +0.247 C 
ATOM     17  C   UNL     1       0.048   1.437  23.270  0.00  0.00    +0.047 A 
ATOM     18  C   UNL     1      -0.794   1.220  22.248  0.00  0.00    +0.015 A 
ENDROOT
BRANCH  16  19
ATOM      1  F   UNL     1      -3.918  -4.144  22.777  0.00  0.00    -0.205 F 
ATOM     19  C   UNL     1      -4.091  -0.781  25.159  0.00  0.00    +0.037 A 
ATOM     22  C   UNL     1      -4.542  -0.722  23.842  0.00  0.00    +0.016 A 
ATOM     23  C   UNL     1      -3.583  -1.970  25.674  0.00  0.00    +0.016 A 
ATOM     28  C   UNL     1      -4.484  -1.858  23.037  0.00  0.00    +0.039 A 
ATOM     29  C   UNL     1      -3.524  -3.107  24.868  0.00  0.00    +0.039 A 
ATOM     31  C   UNL     1      -3.974  -3.052  23.549  0.00  0.00    +0.123 A 
ENDBRANCH  16  19
BRANCH  17  20
ATOM     20  C   UNL     1       1.399   0.853  23.250  0.00  0.00    -0.008 A 
ATOM     21  C   UNL     1       1.611  -0.503  23.513  0.00  0.00    -0.026 A 
ATOM     24  C   UNL     1       2.486   1.681  22.961  0.00  0.00    +0.009 A 
ATOM     26  C   UNL     1       2.903  -1.027  23.487  0.00  0.00    +0.005 A 
ATOM     27  C   UNL     1       3.778   1.156  22.936  0.00  0.00    +0.001 A 
ATOM     30  C   UNL     1       3.987  -0.197  23.198  0.00  0.00    +0.000 A 
BRANCH  21  25
ATOM     25  C   UNL     1       0.474  -1.420  23.827  0.00  0.00    +0.119 C 
BRANCH  25   6
ATOM      6  N   UNL     1       0.321  -1.643  25.264  0.00  0.00    -0.304 NA
ATOM     32  C   UNL     1       0.031  -3.051  25.536  0.00  0.00    +0.104 C 
ATOM     33  C   UNL     1      -0.738  -0.790  25.804  0.00  0.00    +0.104 C 
ENDBRANCH  25   6
ENDBRANCH  21  25
ENDBRANCH  17  20
TORSDOF 4
ENDMDL
MODEL 2
REMARK VINA RESULT:       9.9      2.289      5.570
REMARK  Name = 11885232
REMARK  6 active torsions:
REMARK  status: ('A' for Active; 'I' for Inactive)
REMARK    1  A    between atoms: N_6  and  C_25
REMARK    2  A    between atoms: N_6  and  C_32
REMARK    3  A    between atoms: N_6  and  C_33
REMARK    4  A    between atoms: C_16  and  C_19
REMARK    5  A    between atoms: C_17  and  C_20
REMARK    6  A    between atoms: C_21  and  C_25
REMARK                            x       y       z     vdW  Elec       q    Type
REMARK                         _______ _______ _______ _____ _____    ______ ____
ROOT
ATOM      2  O   UNL     1      -3.561   1.937  26.167  0.00  0.00    -0.267 OA
ATOM      3  O   UNL     1      -0.098  -1.804  26.432  0.00  0.00    -0.270 OA
ATOM      4  N   UNL     1      -1.592  -2.395  24.731  0.00  0.00    -0.297 N 
ATOM      5  N   UNL     1      -3.470   0.144  24.679  0.00  0.00    -0.311 N 
ATOM      7  C   UNL     1      -3.986  -2.264  25.389  0.00  0.00    +0.027 C 
ATOM      8  C   UNL     1      -3.329  -1.784  23.065  0.00  0.00    +0.054 C 
ATOM      9  C   UNL     1      -4.392  -2.458  23.932  0.00  0.00    +0.018 C 
ATOM     10  C   UNL     1      -2.610  -2.902  25.652  0.00  0.00    +0.113 C 
ATOM     11  C   UNL     1      -3.999  -0.763  25.708  0.00  0.00    +0.130 C 
ATOM     12  C   UNL     1      -1.961  -2.457  23.307  0.00  0.00    +0.117 C 
ATOM     13  C   UNL     1      -3.227  -0.304  23.378  0.00  0.00    +0.027 A 
ATOM     14  C   UNL     1      -2.863   0.566  22.422  0.00  0.00    +0.022 A 
ATOM     15  C   UNL     1      -3.325   1.497  25.040  0.00  0.00    +0.259 A 
ATOM     16  C   UNL     1      -0.408  -1.857  25.243  0.00  0.00    +0.247 C 
ATOM     17  C   UNL     1      -2.869   2.439  23.959  0.00  0.00    +0.047 A 
ATOM     18  C   UNL     1      -2.676   1.956  22.723  0.00  0.00    +0.015 A 
ENDROOT
BRANCH  16  19
ATOM      1  F   UNL     1       3.250   0.354  21.639  0.00  0.00    -0.205 F 
ATOM     19  C   UNL     1       0.551  -1.278  24.297  0.00  0.00    +0.037 A 
ATOM     22  C   UNL     1       0.135  -0.292  23.405  0.00  0.00    +0.016 A 
ATOM     23  C   UNL     1       1.873  -1.715  24.296  0.00  0.00    +0.016 A 
ATOM     28  C   UNL     1       1.047   0.260  22.506  0.00  0.00    +0.039 A 
ATOM     29  C   UNL     1       2.785  -1.162  23.397  0.00  0.00    +0.039 A 
ATOM     31  C   UNL     1       2.374  -0.175  22.502  0.00  0.00    +0.123 A 
ENDBRANCH  16  19
BRANCH  17  20
ATOM     20  C   UNL     1      -2.618   3.862  24.244  0.00  0.00    -0.008 A 
ATOM     21  C   UNL     1      -1.385   4.301  24.733  0.00  0.00    -0.026 A 
ATOM     24  C   UNL     1      -3.642   4.784  24.016  0.00  0.00    +0.009 A 
ATOM     26  C   UNL     1      -1.178   5.655  24.993  0.00  0.00    +0.005 A 
ATOM     27  C   UNL     1      -3.434   6.138  24.277  0.00  0.00    +0.001 A 
ATOM     30  C   UNL     1      -2.202   6.575  24.765  0.00  0.00    +0.000 A 
BRANCH  21  25
ATOM     25  C   UNL     1      -0.266   3.345  24.989  0.00  0.00    +0.119 C 
BRANCH  25   6
ATOM      6  N   UNL     1      -0.330   2.762  26.330  0.00  0.00    -0.304 NA
ATOM     32  C   UNL     1       0.890   3.064  27.077  0.00  0.00    +0.104 C 
ATOM     33  C   UNL     1      -0.536   1.317  26.249  0.00  0.00    +0.104 C 
ENDBRANCH  25   6
ENDBRANCH  21  25
ENDBRANCH  17  20
TORSDOF 4
ENDMDL
MODEL 3
REMARK VINA RESULT:      10.3      2.337      6.018
REMARK  Name = 11885232
REMARK  6 active torsions:
REMARK  status: ('A' for Active; 'I' for Inactive)
REMARK    1  A    between atoms: N_6  and  C_25
REMARK    2  A    between atoms: N_6  and  C_32
REMARK    3  A    between atoms: N_6  and  C_33
REMARK    4  A    between atoms: C_16  and  C_19
REMARK    5  A    between atoms: C_17  and  C_20
REMARK    6  A    between atoms: C_21  and  C_25
REMARK                            x       y       z     vdW  Elec       q    Type
REMARK                         _______ _______ _______ _____ _____    ______ ____
ROOT
ATOM      2  O   UNL     1      -3.115   1.814  26.358  0.00  0.00    -0.267 OA
ATOM      3  O   UNL     1       0.334  -1.949  26.380  0.00  0.00    -0.270 OA
ATOM      4  N   UNL     1      -1.243  -2.496  24.741  0.00  0.00    -0.297 N 
ATOM      5  N   UNL     1      -3.106   0.053  24.830  0.00  0.00    -0.311 N 
ATOM      7  C   UNL     1      -3.602  -2.367  25.514  0.00  0.00    +0.027 C 
ATOM      8  C   UNL     1      -3.053  -1.842  23.172  0.00  0.00    +0.054 C 
ATOM      9  C   UNL     1      -4.078  -2.528  24.074  0.00  0.00    +0.018 C 
ATOM     10  C   UNL     1      -2.219  -3.017  25.698  0.00  0.00    +0.113 C 
ATOM     11  C   UNL     1      -3.591  -0.873  25.865  0.00  0.00    +0.130 C 
ATOM     12  C   UNL     1      -1.680  -2.527  23.335  0.00  0.00    +0.117 C 
ATOM     13  C   UNL     1      -2.927  -0.369  23.510  0.00  0.00    +0.027 A 
ATOM     14  C   UNL     1      -2.603   0.519  22.556  0.00  0.00    +0.022 A 
ATOM     15  C   UNL     1      -2.935   1.397  25.212  0.00  0.00    +0.259 A 
ATOM     16  C   UNL     1      -0.032  -1.976  25.207  0.00  0.00    +0.247 C 
ATOM     17  C   UNL     1      -2.525   2.359  24.130  0.00  0.00    +0.047 A 
ATOM     18  C   UNL     1      -2.394   1.902  22.876  0.00  0.00    +0.015 A 
ENDROOT
BRANCH  16  19
ATOM      1  F   UNL     1       3.464   0.292  21.479  0.00  0.00    -0.205 F 
ATOM     19  C   UNL     1       0.884  -1.382  24.228  0.00  0.00    +0.037 A 
ATOM     22  C   UNL     1       0.411  -0.440  23.318  0.00  0.00    +0.016 A 
ATOM     23  C   UNL     1       2.223  -1.761  24.215  0.00  0.00    +0.016 A 
ATOM     28  C   UNL     1       1.283   0.126  22.389  0.00  0.00    +0.039 A 
ATOM     29  C   UNL     1       3.096  -1.194  23.285  0.00  0.00    +0.039 A 
ATOM     31  C   UNL     1       2.626  -0.251  22.372  0.00  0.00    +0.123 A 
ENDBRANCH  16  19
BRANCH  17  20
ATOM     20  C   UNL     1      -2.252   3.775  24.432  0.00  0.00    -0.008 A 
ATOM     21  C   UNL     1      -3.281   4.718  24.490  0.00  0.00    -0.026 A 
ATOM     24  C   UNL     1      -0.933   4.171  24.664  0.00  0.00    +0.009 A 
ATOM     26  C   UNL     1      -2.992   6.051  24.778  0.00  0.00    +0.005 A 
ATOM     27  C   UNL     1      -0.645   5.505  24.952  0.00  0.00    +0.001 A 
ATOM     30  C   UNL     1      -1.673   6.446  25.009  0.00  0.00    +0.000 A 
BRANCH  21  25
ATOM     25  C   UNL     1      -4.704   4.332  24.247  0.00  0.00    +0.119 C 
BRANCH  25   6
ATOM      6  N   UNL     1      -5.407   3.999  25.486  0.00  0.00    -0.304 NA
ATOM     32  C   UNL     1      -6.050   2.690  25.372  0.00  0.00    +0.104 C 
ATOM     33  C   UNL     1      -6.396   5.028  25.805  0.00  0.00    +0.104 C 
ENDBRANCH  25   6
ENDBRANCH  21  25
ENDBRANCH  17  20
TORSDOF 4
ENDMDL
MODEL 4
REMARK VINA RESULT:      10.5      2.659      5.384
REMARK  Name = 11885232
REMARK  6 active torsions:
REMARK  status: ('A' for Active; 'I' for Inactive)
REMARK    1  A    between atoms: N_6  and  C_25
REMARK    2  A    between atoms: N_6  and  C_32
REMARK    3  A    between atoms: N_6  and  C_33
REMARK    4  A    between atoms: C_16  and  C_19
REMARK    5  A    between atoms: C_17  and  C_20
REMARK    6  A    between atoms: C_21  and  C_25
REMARK                            x       y       z     vdW  Elec       q    Type
REMARK                         _______ _______ _______ _____ _____    ______ ____
ROOT
ATOM      2  O   UNL     1      -3.308   0.718  22.373  0.00  0.00    -0.267 OA
ATOM      3  O   UNL     1       0.042   4.226  23.963  0.00  0.00    -0.270 OA
ATOM      4  N   UNL     1      -1.984   4.701  25.034  0.00  0.00    -0.297 N 
ATOM      5  N   UNL     1      -3.772   2.305  24.017  0.00  0.00    -0.311 N 
ATOM      7  C   UNL     1      -3.942   4.811  23.506  0.00  0.00    +0.027 C 
ATOM      8  C   UNL     1      -4.236   4.007  25.815  0.00  0.00    +0.054 C 
ATOM      9  C   UNL     1      -4.874   4.851  24.712  0.00  0.00    +0.018 C 
ATOM     10  C   UNL     1      -2.561   5.384  23.876  0.00  0.00    +0.113 C 
ATOM     11  C   UNL     1      -3.851   3.364  23.001  0.00  0.00    +0.130 C 
ATOM     12  C   UNL     1      -2.871   4.613  26.205  0.00  0.00    +0.117 C 
ATOM     13  C   UNL     1      -4.043   2.573  25.362  0.00  0.00    +0.027 A 
ATOM     14  C   UNL     1      -4.086   1.570  26.255  0.00  0.00    +0.022 A 
ATOM     15  C   UNL     1      -3.518   1.000  23.555  0.00  0.00    +0.259 A 
ATOM     16  C   UNL     1      -0.701   4.154  24.941  0.00  0.00    +0.247 C 
ATOM     17  C   UNL     1      -3.526  -0.096  24.586  0.00  0.00    +0.047 A 
ATOM     18  C   UNL     1      -3.818   0.218  25.857  0.00  0.00    +0.015 A 
ENDROOT
BRANCH  16  19
ATOM      1  F   UNL     1       1.257   1.280  29.320  0.00  0.00    -0.205 F 
ATOM     19  C   UNL     1      -0.189   3.400  26.090  0.00  0.00    +0.037 A 
ATOM     22  C   UNL     1      -0.829   2.232  26.495  0.00  0.00    +0.016 A 
ATOM     23  C   UNL     1       0.937   3.856  26.770  0.00  0.00    +0.016 A 
ATOM     28  C   UNL     1      -0.341   1.515  27.586  0.00  0.00    +0.039 A 
ATOM     29  C   UNL     1       1.426   3.139  27.862  0.00  0.00    +0.039 A 
ATOM     31  C   UNL     1       0.788   1.968  28.271  0.00  0.00    +0.123 A 
ENDBRANCH  16  19
BRANCH  17  20
ATOM     20  C   UNL     1      -3.205  -1.486  24.224  0.00  0.00    -0.008 A 
ATOM     21  C   UNL     1      -1.891  -1.961  24.250  0.00  0.00    -0.026 A 
ATOM     24  C   UNL     1      -4.244  -2.341  23.848  0.00  0.00    +0.009 A 
ATOM     26  C   UNL     1      -1.619  -3.284  23.902  0.00  0.00    +0.005 A 
ATOM     27  C   UNL     1      -3.970  -3.663  23.499  0.00  0.00    +0.001 A 
ATOM     30  C   UNL     1      -2.658  -4.136  23.526  0.00  0.00    +0.000 A 
BRANCH  21  25
ATOM     25  C   UNL     1      -0.753  -1.078  24.647  0.00  0.00    +0.119 C 
BRANCH  25   6
ATOM      6  N   UNL     1      -0.050  -0.526  23.490  0.00  0.00    -0.304 NA
ATOM     32  C   UNL     1       1.352  -0.945  23.496  0.00  0.00    +0.104 C 
ATOM     33  C   UNL     1      -0.148   0.933  23.480  0.00  0.00    +0.104 C 
ENDBRANCH  25   6
ENDBRANCH  21  25
ENDBRANCH  17  20
TORSDOF 4
ENDMDL
MODEL 5
REMARK VINA RESULT:      10.8      2.499      4.911
REMARK  Name = 11885232
REMARK  6 active torsions:
REMARK  status: ('A' for Active; 'I' for Inactive)
REMARK    1  A    between atoms: N_6  and  C_25
REMARK    2  A    between atoms: N_6  and  C_32
REMARK    3  A    between atoms: N_6  and  C_33
REMARK    4  A    between atoms: C_16  and  C_19
REMARK    5  A    between atoms: C_17  and  C_20
REMARK    6  A    between atoms: C_21  and  C_25
REMARK                            x       y       z     vdW  Elec       q    Type
REMARK                         _______ _______ _______ _____ _____    ______ ____
ROOT
ATOM      2  O   UNL     1      -0.143  -1.609  22.385  0.00  0.00    -0.267 OA
ATOM      3  O   UNL     1      -4.801   0.454  22.709  0.00  0.00    -0.270 OA
ATOM      4  N   UNL     1      -4.531  -0.892  24.604  0.00  0.00    -0.297 N 
ATOM      5  N   UNL     1      -1.551  -1.866  24.225  0.00  0.00    -0.311 N 
ATOM      7  C   UNL     1      -3.739  -3.196  24.112  0.00  0.00    +0.027 C 
ATOM      8  C   UNL     1      -3.078  -2.099  26.215  0.00  0.00    +0.054 C 
ATOM      9  C   UNL     1      -3.510  -3.430  25.602  0.00  0.00    +0.018 C 
ATOM     10  C   UNL     1      -4.835  -2.137  23.898  0.00  0.00    +0.113 C 
ATOM     11  C   UNL     1      -2.407  -2.790  23.467  0.00  0.00    +0.130 C 
ATOM     12  C   UNL     1      -4.200  -1.055  26.029  0.00  0.00    +0.117 C 
ATOM     13  C   UNL     1      -1.802  -1.590  25.572  0.00  0.00    +0.027 A 
ATOM     14  C   UNL     1      -0.940  -0.842  26.280  0.00  0.00    +0.022 A 
ATOM     15  C   UNL     1      -0.417  -1.362  23.561  0.00  0.00    +0.259 A 
ATOM     16  C   UNL     1      -4.524   0.315  23.899  0.00  0.00    +0.247 C 
ATOM     17  C   UNL     1       0.506  -0.488  24.367  0.00  0.00    +0.047 A 
ATOM     18  C   UNL     1       0.227  -0.280  25.663  0.00  0.00    +0.015 A 
ENDROOT
BRANCH  16  19
ATOM      1  F   UNL     1      -3.021   4.952  26.638  0.00  0.00    -0.205 F 
ATOM     19  C   UNL     1      -4.130   1.530  24.618  0.00  0.00    +0.037 A 
ATOM     22  C   UNL     1      -2.784   1.773  24.884  0.00  0.00    +0.016 A 
ATOM     23  C   UNL     1      -5.102   2.437  25.031  0.00  0.00    +0.016 A 
ATOM     28  C   UNL     1      -2.409   2.929  25.567  0.00  0.00    +0.039 A 
ATOM     29  C   UNL     1      -4.727   3.594  25.714  0.00  0.00    +0.039 A 
ATOM     31  C   UNL     1      -3.381   3.841  25.982  0.00  0.00    +0.123 A 
ENDBRANCH  16  19
BRANCH  17  20
ATOM     20  C   UNL     1       1.684   0.147  23.754  0.00  0.00    -0.008 A 
ATOM     21  C   UNL     1       1.686   1.501  23.411  0.00  0.00    -0.026 A 
ATOM     24  C   UNL     1       2.820  -0.631  23.516  0.00  0.00    +0.009 A 
ATOM     26  C   UNL     1       2.817   2.074  22.831  0.00  0.00    +0.005 A 
ATOM     27  C   UNL     1       3.951  -0.057  22.936  0.00  0.00    +0.001 A 
ATOM     30  C   UNL     1       3.951   1.295  22.593  0.00  0.00    +0.000 A 
BRANCH  21  25
ATOM     25  C   UNL     1       0.491   2.365  23.650  0.00  0.00    +0.119 C 
BRANCH  25   6
ATOM      6  N   UNL     1       0.713   3.333  24.724  0.00  0.00    -0.304 NA
ATOM     32  C   UNL     1       0.428   2.729  26.025  0.00  0.00    +0.104 C 
ATOM     33  C   UNL     1      -0.116   4.521  24.520  0.00  0.00    +0.104 C 
ENDBRANCH  25   6
ENDBRANCH  21  25
ENDBRANCH  17  20
TORSDOF 4
ENDMDL
