MODEL 1
REMARK VINA RESULT:       5.7      0.000      0.000
REMARK  Name = 26744948
REMARK  8 active torsions:
REMARK  status: ('A' for Active; 'I' for Inactive)
REMARK    1  A    between atoms: O_2  and  C_30
REMARK    2  A    between atoms: O_2  and  C_33
REMARK    3  A    between atoms: N_4  and  C_15
REMARK    4  A    between atoms: N_9  and  C_24
REMARK    5  A    between atoms: C_10  and  C_16
REMARK    6  A    between atoms: C_15  and  C_17
REMARK    7  A    between atoms: C_21  and  C_25
REMARK    8  A    between atoms: C_31  and  C_32
REMARK                            x       y       z     vdW  Elec       q    Type
REMARK                         _______ _______ _______ _____ _____    ______ ____
ROOT
ATOM      4  N   UNL     1       2.636   1.098  23.476  0.00  0.00    -0.281 NA
ATOM      5  N   UNL     1       6.215   0.007  23.219  0.00  0.00    -0.347 N 
ATOM      6  N   UNL     1       5.431  -2.005  23.795  0.00  0.00    -0.240 NA
ATOM     10  C   UNL     1       2.091  -0.265  23.158  0.00  0.00    +0.152 C 
ATOM     11  C   UNL     1       2.964  -1.418  23.771  0.00  0.00    +0.086 C 
ATOM     12  C   UNL     1       4.019   1.293  22.950  0.00  0.00    +0.140 C 
ATOM     13  C   UNL     1       4.859   0.116  23.254  0.00  0.00    +0.053 A 
ATOM     14  C   UNL     1       4.402  -1.128  23.602  0.00  0.00    +0.065 A 
ATOM     18  C   UNL     1       6.513  -1.291  23.553  0.00  0.00    +0.197 A 
ATOM     34  H   UNL     1       6.878   0.736  22.988  0.00  0.00    +0.167 HD
ENDROOT
BRANCH  10  16
ATOM      1  O   UNL     1       0.330  -1.725  24.044  0.00  0.00    -0.336 OA
ATOM      7  N   UNL     1      -0.343   0.375  23.645  0.00  0.00    -0.190 NA
ATOM      8  N   UNL     1      -1.025  -1.674  24.399  0.00  0.00    -0.056 NA
ATOM     16  C   UNL     1       0.650  -0.478  23.611  0.00  0.00    +0.245 A 
ATOM     21  C   UNL     1      -1.349  -0.406  24.136  0.00  0.00    +0.202 A 
BRANCH  21  25
ATOM     25  C   UNL     1      -2.668   0.116  24.352  0.00  0.00    +0.023 A 
ATOM     26  C   UNL     1      -3.142   1.165  23.566  0.00  0.00    +0.015 A 
ATOM     27  C   UNL     1      -3.475  -0.427  25.352  0.00  0.00    +0.015 A 
ATOM     28  C   UNL     1      -4.424   1.673  23.779  0.00  0.00    +0.046 A 
ATOM     29  C   UNL     1      -4.757   0.080  25.564  0.00  0.00    +0.046 A 
ATOM     30  C   UNL     1      -5.231   1.130  24.778  0.00  0.00    +0.120 A 
BRANCH  30   2
ATOM      2  O   UNL     1      -6.483   1.623  24.986  0.00  0.00    -0.495 OA
ATOM     33  C   UNL     1      -6.786   2.092  26.299  0.00  0.00    +0.277 C 
ENDBRANCH  30   2
ENDBRANCH  21  25
ENDBRANCH  10  16
BRANCH   4  15
ATOM     15  C   UNL     1       1.791   2.176  22.944  0.00  0.00    +0.120 C 
BRANCH  15  17
ATOM     17  C   UNL     1       0.740   2.604  23.933  0.00  0.00    -0.033 A 
ATOM     19  C   UNL     1       0.770   2.117  25.240  0.00  0.00    +0.007 A 
ATOM     20  C   UNL     1      -0.267   3.488  23.542  0.00  0.00    +0.007 A 
ATOM     22  C   UNL     1      -0.205   2.511  26.154  0.00  0.00    +0.023 A 
ATOM     23  C   UNL     1      -1.243   3.882  24.457  0.00  0.00    +0.023 A 
ATOM     24  C   UNL     1      -1.212   3.395  25.764  0.00  0.00    +0.033 A 
BRANCH  24   9
ATOM      3  O   UNL     1      -4.086   4.188  25.342  0.00  0.00    -0.276 OA
ATOM      9  N   UNL     1      -2.187   3.789  26.680  0.00  0.00    -0.286 N 
ATOM     31  C   UNL     1      -3.516   4.152  26.427  0.00  0.00    +0.214 C 
ATOM     32  C   UNL     1      -4.247   4.515  27.695  0.00  0.00    +0.109 C 
ATOM     35  H   UNL     1      -1.885   3.814  27.652  0.00  0.00    +0.155 HD
ENDBRANCH  24   9
ENDBRANCH  15  17
ENDBRANCH   4  15
TORSDOF 6
ENDMDL
MODEL 2
REMARK VINA RESULT:       7.6      2.797      7.639
REMARK  Name = 26744948
REMARK  8 active torsions:
REMARK  status: ('A' for Active; 'I' for Inactive)
REMARK    1  A    between atoms: O_2  and  C_30
REMARK    2  A    between atoms: O_2  and  C_33
REMARK    3  A    between atoms: N_4  and  C_15
REMARK    4  A    between atoms: N_9  and  C_24
REMARK    5  A    between atoms: C_10  and  C_16
REMARK    6  A    between atoms: C_15  and  C_17
REMARK    7  A    between atoms: C_21  and  C_25
REMARK    8  A    between atoms: C_31  and  C_32
REMARK                            x       y       z     vdW  Elec       q    Type
REMARK                         _______ _______ _______ _____ _____    ______ ____
ROOT
ATOM      4  N   UNL     1      -2.808   2.951  24.069  0.00  0.00    -0.281 NA
ATOM      5  N   UNL     1      -6.439   2.761  24.990  0.00  0.00    -0.347 N 
ATOM      6  N   UNL     1      -6.248   0.595  24.473  0.00  0.00    -0.240 NA
ATOM     10  C   UNL     1      -2.541   1.513  24.413  0.00  0.00    +0.152 C 
ATOM     11  C   UNL     1      -3.747   0.575  24.050  0.00  0.00    +0.086 C 
ATOM     12  C   UNL     1      -3.996   3.495  24.791  0.00  0.00    +0.140 C 
ATOM     13  C   UNL     1      -5.122   2.540  24.728  0.00  0.00    +0.053 A 
ATOM     14  C   UNL     1      -5.029   1.208  24.421  0.00  0.00    +0.065 A 
ATOM     18  C   UNL     1      -7.078   1.557  24.822  0.00  0.00    +0.197 A 
ATOM     34  H   UNL     1      -6.868   3.637  25.260  0.00  0.00    +0.167 HD
ENDROOT
BRANCH  10  16
ATOM      1  O   UNL     1      -1.481   0.186  22.642  0.00  0.00    -0.336 OA
ATOM      7  N   UNL     1      -0.035   1.070  24.107  0.00  0.00    -0.190 NA
ATOM      8  N   UNL     1      -0.207  -0.220  22.226  0.00  0.00    -0.056 NA
ATOM     16  C   UNL     1      -1.289   0.942  23.755  0.00  0.00    +0.245 A 
ATOM     21  C   UNL     1       0.591   0.340  23.139  0.00  0.00    +0.202 A 
BRANCH  21  25
ATOM     25  C   UNL     1       2.018   0.191  23.113  0.00  0.00    +0.023 A 
ATOM     26  C   UNL     1       2.599  -1.037  23.428  0.00  0.00    +0.015 A 
ATOM     27  C   UNL     1       2.824   1.277  22.774  0.00  0.00    +0.015 A 
ATOM     28  C   UNL     1       3.986  -1.180  23.404  0.00  0.00    +0.046 A 
ATOM     29  C   UNL     1       4.212   1.135  22.749  0.00  0.00    +0.046 A 
ATOM     30  C   UNL     1       4.792  -0.094  23.065  0.00  0.00    +0.120 A 
BRANCH  30   2
ATOM      2  O   UNL     1       6.146  -0.232  23.040  0.00  0.00    -0.495 OA
ATOM     33  C   UNL     1       6.772  -0.713  24.230  0.00  0.00    +0.277 C 
ENDBRANCH  30   2
ENDBRANCH  21  25
ENDBRANCH  10  16
BRANCH   4  15
ATOM     15  C   UNL     1      -1.660   3.820  24.363  0.00  0.00    +0.120 C 
BRANCH  15  17
ATOM     17  C   UNL     1      -0.956   3.409  25.629  0.00  0.00    -0.033 A 
ATOM     19  C   UNL     1       0.415   3.152  25.614  0.00  0.00    +0.007 A 
ATOM     20  C   UNL     1      -1.675   3.285  26.818  0.00  0.00    +0.007 A 
ATOM     22  C   UNL     1       1.066   2.770  26.786  0.00  0.00    +0.023 A 
ATOM     23  C   UNL     1      -1.024   2.903  27.990  0.00  0.00    +0.023 A 
ATOM     24  C   UNL     1       0.347   2.645  27.975  0.00  0.00    +0.033 A 
BRANCH  24   9
ATOM      3  O   UNL     1       3.246   2.864  28.761  0.00  0.00    -0.276 OA
ATOM      9  N   UNL     1       0.999   2.264  29.148  0.00  0.00    -0.286 N 
ATOM     31  C   UNL     1       2.359   2.387  29.461  0.00  0.00    +0.214 C 
ATOM     32  C   UNL     1       2.666   1.853  30.837  0.00  0.00    +0.109 C 
ATOM     35  H   UNL     1       0.404   1.843  29.858  0.00  0.00    +0.155 HD
ENDBRANCH  24   9
ENDBRANCH  15  17
ENDBRANCH   4  15
TORSDOF 6
ENDMDL
MODEL 3
REMARK VINA RESULT:       8.6      2.922      7.509
REMARK  Name = 26744948
REMARK  8 active torsions:
REMARK  status: ('A' for Active; 'I' for Inactive)
REMARK    1  A    between atoms: O_2  and  C_30
REMARK    2  A    between atoms: O_2  and  C_33
REMARK    3  A    between atoms: N_4  and  C_15
REMARK    4  A    between atoms: N_9  and  C_24
REMARK    5  A    between atoms: C_10  and  C_16
REMARK    6  A    between atoms: C_15  and  C_17
REMARK    7  A    between atoms: C_21  and  C_25
REMARK    8  A    between atoms: C_31  and  C_32
REMARK                            x       y       z     vdW  Elec       q    Type
REMARK                         _______ _______ _______ _____ _____    ______ ____
ROOT
ATOM      4  N   UNL     1      -2.107   0.575  23.280  0.00  0.00    -0.281 NA
ATOM      5  N   UNL     1      -5.231  -1.362  24.025  0.00  0.00    -0.347 N 
ATOM      6  N   UNL     1      -3.925  -3.162  23.808  0.00  0.00    -0.240 NA
ATOM     10  C   UNL     1      -1.196  -0.490  23.824  0.00  0.00    +0.152 C 
ATOM     11  C   UNL     1      -1.721  -1.939  23.524  0.00  0.00    +0.086 C 
ATOM     12  C   UNL     1      -3.479   0.496  23.861  0.00  0.00    +0.140 C 
ATOM     13  C   UNL     1      -3.961  -0.901  23.865  0.00  0.00    +0.053 A 
ATOM     14  C   UNL     1      -3.179  -2.020  23.741  0.00  0.00    +0.065 A 
ATOM     18  C   UNL     1      -5.159  -2.732  23.984  0.00  0.00    +0.197 A 
ATOM     34  H   UNL     1      -6.068  -0.807  24.155  0.00  0.00    +0.167 HD
ENDROOT
BRANCH  10  16
ATOM      1  O   UNL     1       0.396  -0.242  21.973  0.00  0.00    -0.336 OA
ATOM      7  N   UNL     1       1.362  -0.446  23.984  0.00  0.00    -0.190 NA
ATOM      8  N   UNL     1       1.777  -0.184  21.750  0.00  0.00    -0.056 NA
ATOM     16  C   UNL     1       0.239  -0.397  23.314  0.00  0.00    +0.245 A 
ATOM     21  C   UNL     1       2.278  -0.311  22.981  0.00  0.00    +0.202 A 
BRANCH  21  25
ATOM     25  C   UNL     1       3.688  -0.306  23.246  0.00  0.00    +0.023 A 
ATOM     26  C   UNL     1       4.452   0.822  22.945  0.00  0.00    +0.015 A 
ATOM     27  C   UNL     1       4.296  -1.431  23.804  0.00  0.00    +0.015 A 
ATOM     28  C   UNL     1       5.823   0.824  23.201  0.00  0.00    +0.046 A 
ATOM     29  C   UNL     1       5.667  -1.428  24.061  0.00  0.00    +0.046 A 
ATOM     30  C   UNL     1       6.430  -0.300  23.759  0.00  0.00    +0.120 A 
BRANCH  30   2
ATOM      2  O   UNL     1       7.768  -0.298  24.011  0.00  0.00    -0.495 OA
ATOM     33  C   UNL     1       8.641  -0.256  22.882  0.00  0.00    +0.277 C 
ENDBRANCH  30   2
ENDBRANCH  21  25
ENDBRANCH  10  16
BRANCH   4  15
ATOM     15  C   UNL     1      -1.588   1.929  23.517  0.00  0.00    +0.120 C 
BRANCH  15  17
ATOM     17  C   UNL     1      -0.982   2.065  24.888  0.00  0.00    -0.033 A 
ATOM     19  C   UNL     1      -0.302   3.232  25.238  0.00  0.00    +0.007 A 
ATOM     20  C   UNL     1      -1.100   1.024  25.810  0.00  0.00    +0.007 A 
ATOM     22  C   UNL     1       0.261   3.357  26.507  0.00  0.00    +0.023 A 
ATOM     23  C   UNL     1      -0.536   1.149  27.079  0.00  0.00    +0.023 A 
ATOM     24  C   UNL     1       0.144   2.316  27.429  0.00  0.00    +0.033 A 
BRANCH  24   9
ATOM      3  O   UNL     1       3.012   2.687  28.269  0.00  0.00    -0.276 OA
ATOM      9  N   UNL     1       0.707   2.442  28.699  0.00  0.00    -0.286 N 
ATOM     31  C   UNL     1       2.057   2.611  29.035  0.00  0.00    +0.214 C 
ATOM     32  C   UNL     1       2.254   2.708  30.526  0.00  0.00    +0.109 C 
ATOM     35  H   UNL     1       0.046   2.405  29.472  0.00  0.00    +0.155 HD
ENDBRANCH  24   9
ENDBRANCH  15  17
ENDBRANCH   4  15
TORSDOF 6
ENDMDL
