MODEL 1
REMARK VINA RESULT:      -1.3      0.000      0.000
REMARK  Name = 7049300
REMARK  11 active torsions:
REMARK  status: ('A' for Active; 'I' for Inactive)
REMARK    1  A    between atoms: O_3  and  C_12
REMARK    2  A    between atoms: O_4  and  C_13
REMARK    3  A    between atoms: N_8  and  C_14
REMARK    4  A    between atoms: N_9  and  C_18
REMARK    5  A    between atoms: N_10  and  C_26
REMARK    6  A    between atoms: C_16  and  C_19
REMARK    7  A    between atoms: C_18  and  C_20
REMARK    8  A    between atoms: C_18  and  C_25
REMARK    9  A    between atoms: C_20  and  C_21
REMARK   10  A    between atoms: C_21  and  C_22
REMARK   11  A    between atoms: C_21  and  C_23
REMARK                            x       y       z     vdW  Elec       q    Type
REMARK                         _______ _______ _______ _____ _____    ______ ____
ROOT
ATOM     12  C   UNL     1      -2.138  -2.267  24.844  0.00  0.00    +0.167 C 
ATOM     13  C   UNL     1      -3.541  -1.858  25.309  0.00  0.00    +0.149 C 
ATOM     14  C   UNL     1      -1.818  -1.698  23.449  0.00  0.00    +0.129 C 
ATOM     15  C   UNL     1      -3.733  -0.332  25.300  0.00  0.00    +0.074 C 
ATOM     16  C   UNL     1      -3.080   0.343  24.128  0.00  0.00    +0.015 C 
ATOM     17  C   UNL     1      -2.227  -0.258  23.286  0.00  0.00    +0.006 C 
ENDROOT
BRANCH  14   8
ATOM      6  O   UNL     1       0.259   0.157  24.119  0.00  0.00    -0.252 OA
ATOM      8  N   UNL     1      -0.416  -1.823  23.132  0.00  0.00    -0.290 N 
ATOM     10  N   UNL     1       1.807  -1.255  23.060  0.00  0.00    -0.267 N 
ATOM     24  C   UNL     1       0.539  -0.867  23.498  0.00  0.00    +0.304 C 
ATOM     32  H   UNL     1      -0.112  -2.615  22.574  0.00  0.00    +0.151 HD
ATOM     36  H   UNL     1       1.870  -2.137  22.557  0.00  0.00    +0.156 HD
BRANCH  10  26
ATOM      1  F   UNL     1       4.002  -2.462  24.284  0.00  0.00    -0.203 F 
ATOM      2  F   UNL     1       6.604   1.447  23.710  0.00  0.00    -0.205 F 
ATOM     26  C   UNL     1       3.033  -0.567  23.228  0.00  0.00    +0.070 A 
ATOM     27  C   UNL     1       4.112  -1.199  23.844  0.00  0.00    +0.147 A 
ATOM     28  C   UNL     1       3.159   0.746  22.775  0.00  0.00    +0.029 A 
ATOM     29  C   UNL     1       5.319  -0.520  24.007  0.00  0.00    +0.078 A 
ATOM     30  C   UNL     1       4.366   1.426  22.939  0.00  0.00    +0.040 A 
ATOM     31  C   UNL     1       5.445   0.794  23.554  0.00  0.00    +0.126 A 
ENDBRANCH  10  26
ENDBRANCH  14   8
BRANCH  16  19
ATOM      5  O   UNL     1      -3.208   2.245  22.767  0.00  0.00    -0.271 OA
ATOM      9  N   UNL     1      -3.937   2.389  24.977  0.00  0.00    -0.300 N 
ATOM     19  C   UNL     1      -3.408   1.749  23.870  0.00  0.00    +0.241 C 
ATOM     33  H   UNL     1      -4.121   1.852  25.820  0.00  0.00    +0.150 HD
BRANCH   9  18
ATOM     18  C   UNL     1      -4.334   3.773  24.967  0.00  0.00    +0.159 C 
BRANCH  18  25
ATOM      7  O   UNL     1      -6.329   4.883  25.801  0.00  0.00    -0.274 OA
ATOM     11  N   UNL     1      -5.984   2.682  26.358  0.00  0.00    -0.328 N 
ATOM     25  C   UNL     1      -5.636   3.870  25.751  0.00  0.00    +0.231 C 
ATOM     37  H   UNL     1      -6.838   2.606  26.901  0.00  0.00    +0.145 HD
ATOM     38  H   UNL     1      -5.413   1.845  26.289  0.00  0.00    +0.145 HD
ENDBRANCH  18  25
BRANCH  18  20
ATOM     20  C   UNL     1      -3.271   4.687  25.588  0.00  0.00    +0.034 C 
BRANCH  20  21
ATOM     21  C   UNL     1      -1.827   4.412  25.119  0.00  0.00    -0.015 C 
ATOM     22  C   UNL     1      -1.128   3.481  26.112  0.00  0.00    +0.007 C 
ATOM     23  C   UNL     1      -1.013   5.696  24.956  0.00  0.00    +0.007 C 
ENDBRANCH  20  21
ENDBRANCH  18  20
ENDBRANCH   9  18
ENDBRANCH  16  19
BRANCH  12   3
ATOM      3  O   UNL     1      -1.182  -1.784  25.791  0.00  0.00    -0.387 OA
ATOM     34  H   UNL     1      -1.664  -1.258  26.451  0.00  0.00    +0.210 HD
ENDBRANCH  12   3
BRANCH  13   4
ATOM      4  O   UNL     1      -4.531  -2.480  24.491  0.00  0.00    -0.389 OA
ATOM     35  H   UNL     1      -4.347  -2.233  23.568  0.00  0.00    +0.210 HD
ENDBRANCH  13   4
TORSDOF 9
ENDMDL
MODEL 2
REMARK VINA RESULT:      -0.7     13.968     16.229
REMARK  Name = 7049300
REMARK  11 active torsions:
REMARK  status: ('A' for Active; 'I' for Inactive)
REMARK    1  A    between atoms: O_3  and  C_12
REMARK    2  A    between atoms: O_4  and  C_13
REMARK    3  A    between atoms: N_8  and  C_14
REMARK    4  A    between atoms: N_9  and  C_18
REMARK    5  A    between atoms: N_10  and  C_26
REMARK    6  A    between atoms: C_16  and  C_19
REMARK    7  A    between atoms: C_18  and  C_20
REMARK    8  A    between atoms: C_18  and  C_25
REMARK    9  A    between atoms: C_20  and  C_21
REMARK   10  A    between atoms: C_21  and  C_22
REMARK   11  A    between atoms: C_21  and  C_23
REMARK                            x       y       z     vdW  Elec       q    Type
REMARK                         _______ _______ _______ _____ _____    ______ ____
ROOT
ATOM     12  C   UNL     1      -6.361  -9.434  17.536  0.00  0.00    +0.167 C 
ATOM     13  C   UNL     1      -7.852  -9.184  17.793  0.00  0.00    +0.149 C 
ATOM     14  C   UNL     1      -6.140 -10.688  16.670  0.00  0.00    +0.129 C 
ATOM     15  C   UNL     1      -8.654  -9.075  16.485  0.00  0.00    +0.074 C 
ATOM     16  C   UNL     1      -8.203 -10.041  15.427  0.00  0.00    +0.015 C 
ATOM     17  C   UNL     1      -7.084 -10.777  15.500  0.00  0.00    +0.006 C 
ENDROOT
BRANCH  14   8
ATOM      6  O   UNL     1      -5.156  -9.660  14.184  0.00  0.00    -0.252 OA
ATOM      8  N   UNL     1      -4.784 -10.765  16.181  0.00  0.00    -0.290 N 
ATOM     10  N   UNL     1      -3.020 -10.457  14.745  0.00  0.00    -0.267 N 
ATOM     24  C   UNL     1      -4.384 -10.234  14.950  0.00  0.00    +0.304 C 
ATOM     32  H   UNL     1      -4.098 -11.272  16.731  0.00  0.00    +0.151 HD
ATOM     36  H   UNL     1      -2.520 -10.950  15.480  0.00  0.00    +0.156 HD
BRANCH  10  26
ATOM      1  F   UNL     1      -0.597  -9.115  15.054  0.00  0.00    -0.203 F 
ATOM      2  F   UNL     1       0.047  -8.980  10.369  0.00  0.00    -0.205 F 
ATOM     26  C   UNL     1      -2.236 -10.077  13.630  0.00  0.00    +0.070 A 
ATOM     27  C   UNL     1      -1.027  -9.408  13.818  0.00  0.00    +0.147 A 
ATOM     28  C   UNL     1      -2.674 -10.376  12.340  0.00  0.00    +0.029 A 
ATOM     29  C   UNL     1      -0.256  -9.036  12.718  0.00  0.00    +0.078 A 
ATOM     30  C   UNL     1      -1.903 -10.005  11.238  0.00  0.00    +0.040 A 
ATOM     31  C   UNL     1      -0.695  -9.335  11.427  0.00  0.00    +0.126 A 
ENDBRANCH  10  26
ENDBRANCH  14   8
BRANCH  16  19
ATOM      5  O   UNL     1     -10.240 -10.478  14.357  0.00  0.00    -0.271 OA
ATOM      9  N   UNL     1      -8.354 -10.042  13.057  0.00  0.00    -0.300 N 
ATOM     19  C   UNL     1      -9.049 -10.212  14.242  0.00  0.00    +0.241 C 
ATOM     33  H   UNL     1      -7.380  -9.754  13.089  0.00  0.00    +0.150 HD
BRANCH   9  18
ATOM     18  C   UNL     1      -8.972 -10.164  11.762  0.00  0.00    +0.159 C 
BRANCH  18  25
ATOM      7  O   UNL     1     -10.556  -8.593  12.729  0.00  0.00    -0.274 OA
ATOM     11  N   UNL     1     -10.719  -9.079  10.491  0.00  0.00    -0.328 N 
ATOM     25  C   UNL     1     -10.161  -9.213  11.744  0.00  0.00    +0.231 C 
ATOM     37  H   UNL     1     -11.511  -8.464  10.336  0.00  0.00    +0.145 HD
ATOM     38  H   UNL     1     -10.368  -9.579   9.679  0.00  0.00    +0.145 HD
ENDBRANCH  18  25
BRANCH  18  20
ATOM     20  C   UNL     1      -8.003  -9.826  10.622  0.00  0.00    +0.034 C 
BRANCH  20  21
ATOM     21  C   UNL     1      -6.508  -9.929  10.990  0.00  0.00    -0.015 C 
ATOM     22  C   UNL     1      -5.898  -8.527  11.069  0.00  0.00    +0.007 C 
ATOM     23  C   UNL     1      -5.720 -10.779   9.994  0.00  0.00    +0.007 C 
ENDBRANCH  20  21
ENDBRANCH  18  20
ENDBRANCH   9  18
ENDBRANCH  16  19
BRANCH  12   3
ATOM      3  O   UNL     1      -5.810  -8.292  16.878  0.00  0.00    -0.387 OA
ATOM     34  H   UNL     1      -6.553  -7.730  16.597  0.00  0.00    +0.210 HD
ENDBRANCH  12   3
BRANCH  13   4
ATOM      4  O   UNL     1      -8.391 -10.220  18.612  0.00  0.00    -0.389 OA
ATOM     35  H   UNL     1      -9.340 -10.291  18.410  0.00  0.00    +0.210 HD
ENDBRANCH  13   4
TORSDOF 9
ENDMDL
MODEL 3
REMARK VINA RESULT:       0.7      1.195      2.195
REMARK  Name = 7049300
REMARK  11 active torsions:
REMARK  status: ('A' for Active; 'I' for Inactive)
REMARK    1  A    between atoms: O_3  and  C_12
REMARK    2  A    between atoms: O_4  and  C_13
REMARK    3  A    between atoms: N_8  and  C_14
REMARK    4  A    between atoms: N_9  and  C_18
REMARK    5  A    between atoms: N_10  and  C_26
REMARK    6  A    between atoms: C_16  and  C_19
REMARK    7  A    between atoms: C_18  and  C_20
REMARK    8  A    between atoms: C_18  and  C_25
REMARK    9  A    between atoms: C_20  and  C_21
REMARK   10  A    between atoms: C_21  and  C_22
REMARK   11  A    between atoms: C_21  and  C_23
REMARK                            x       y       z     vdW  Elec       q    Type
REMARK                         _______ _______ _______ _____ _____    ______ ____
ROOT
ATOM     12  C   UNL     1      -2.099  -2.268  24.653  0.00  0.00    +0.167 C 
ATOM     13  C   UNL     1      -3.469  -1.871  25.214  0.00  0.00    +0.149 C 
ATOM     14  C   UNL     1      -1.763  -1.478  23.373  0.00  0.00    +0.129 C 
ATOM     15  C   UNL     1      -3.571  -0.360  25.480  0.00  0.00    +0.074 C 
ATOM     16  C   UNL     1      -2.894   0.476  24.432  0.00  0.00    +0.015 C 
ATOM     17  C   UNL     1      -2.088  -0.012  23.477  0.00  0.00    +0.006 C 
ENDROOT
BRANCH  14   8
ATOM      6  O   UNL     1       0.410   0.188  24.213  0.00  0.00    -0.252 OA
ATOM      8  N   UNL     1      -0.374  -1.623  23.008  0.00  0.00    -0.290 N 
ATOM     10  N   UNL     1       1.871  -1.146  22.949  0.00  0.00    -0.267 N 
ATOM     24  C   UNL     1       0.630  -0.762  23.464  0.00  0.00    +0.304 C 
ATOM     32  H   UNL     1      -0.119  -2.352  22.349  0.00  0.00    +0.151 HD
ATOM     36  H   UNL     1       1.882  -1.960  22.340  0.00  0.00    +0.156 HD
BRANCH  10  26
ATOM      1  F   UNL     1       3.920  -2.478  24.288  0.00  0.00    -0.203 F 
ATOM      2  F   UNL     1       6.799   1.245  23.802  0.00  0.00    -0.205 F 
ATOM     26  C   UNL     1       3.129  -0.538  23.170  0.00  0.00    +0.070 A 
ATOM     27  C   UNL     1       4.134  -1.231  23.842  0.00  0.00    +0.147 A 
ATOM     28  C   UNL     1       3.363   0.758  22.710  0.00  0.00    +0.029 A 
ATOM     29  C   UNL     1       5.374  -0.630  24.057  0.00  0.00    +0.078 A 
ATOM     30  C   UNL     1       4.603   1.361  22.925  0.00  0.00    +0.040 A 
ATOM     31  C   UNL     1       5.608   0.668  23.598  0.00  0.00    +0.126 A 
ENDBRANCH  10  26
ENDBRANCH  14   8
BRANCH  16  19
ATOM      5  O   UNL     1      -3.665   2.467  23.469  0.00  0.00    -0.271 OA
ATOM      9  N   UNL     1      -2.726   2.536  25.602  0.00  0.00    -0.300 N 
ATOM     19  C   UNL     1      -3.142   1.921  24.434  0.00  0.00    +0.241 C 
ATOM     33  H   UNL     1      -2.368   1.965  26.363  0.00  0.00    +0.150 HD
BRANCH   9  18
ATOM     18  C   UNL     1      -2.864   3.950  25.836  0.00  0.00    +0.159 C 
BRANCH  18  25
ATOM      7  O   UNL     1      -1.504   5.804  25.046  0.00  0.00    -0.274 OA
ATOM     11  N   UNL     1      -0.520   3.742  25.278  0.00  0.00    -0.328 N 
ATOM     25  C   UNL     1      -1.588   4.612  25.332  0.00  0.00    +0.231 C 
ATOM     37  H   UNL     1       0.394   4.058  24.973  0.00  0.00    +0.145 HD
ATOM     38  H   UNL     1      -0.598   2.764  25.539  0.00  0.00    +0.145 HD
ENDBRANCH  18  25
BRANCH  18  20
ATOM     20  C   UNL     1      -4.086   4.540  25.123  0.00  0.00    +0.034 C 
BRANCH  20  21
ATOM     21  C   UNL     1      -5.427   4.330  25.856  0.00  0.00    -0.015 C 
ATOM     22  C   UNL     1      -5.918   2.897  25.636  0.00  0.00    +0.007 C 
ATOM     23  C   UNL     1      -6.501   5.319  25.400  0.00  0.00    +0.007 C 
ENDBRANCH  20  21
ENDBRANCH  18  20
ENDBRANCH   9  18
ENDBRANCH  16  19
BRANCH  12   3
ATOM      3  O   UNL     1      -1.104  -2.016  25.648  0.00  0.00    -0.387 OA
ATOM     34  H   UNL     1      -1.165  -1.076  25.890  0.00  0.00    +0.210 HD
ENDBRANCH  12   3
BRANCH  13   4
ATOM      4  O   UNL     1      -4.504  -2.282  24.321  0.00  0.00    -0.389 OA
ATOM     35  H   UNL     1      -4.547  -3.253  24.349  0.00  0.00    +0.210 HD
ENDBRANCH  13   4
TORSDOF 9
ENDMDL
MODEL 4
REMARK VINA RESULT:       1.8      1.333      1.766
REMARK  Name = 7049300
REMARK  11 active torsions:
REMARK  status: ('A' for Active; 'I' for Inactive)
REMARK    1  A    between atoms: O_3  and  C_12
REMARK    2  A    between atoms: O_4  and  C_13
REMARK    3  A    between atoms: N_8  and  C_14
REMARK    4  A    between atoms: N_9  and  C_18
REMARK    5  A    between atoms: N_10  and  C_26
REMARK    6  A    between atoms: C_16  and  C_19
REMARK    7  A    between atoms: C_18  and  C_20
REMARK    8  A    between atoms: C_18  and  C_25
REMARK    9  A    between atoms: C_20  and  C_21
REMARK   10  A    between atoms: C_21  and  C_22
REMARK   11  A    between atoms: C_21  and  C_23
REMARK                            x       y       z     vdW  Elec       q    Type
REMARK                         _______ _______ _______ _____ _____    ______ ____
ROOT
ATOM     12  C   UNL     1      -1.992  -2.645  24.433  0.00  0.00    +0.167 C 
ATOM     13  C   UNL     1      -3.311  -2.560  25.211  0.00  0.00    +0.149 C 
ATOM     14  C   UNL     1      -1.909  -1.559  23.343  0.00  0.00    +0.129 C 
ATOM     15  C   UNL     1      -3.530  -1.169  25.829  0.00  0.00    +0.074 C 
ATOM     16  C   UNL     1      -3.084  -0.045  24.939  0.00  0.00    +0.015 C 
ATOM     17  C   UNL     1      -2.365  -0.205  23.818  0.00  0.00    +0.006 C 
ENDROOT
BRANCH  14   8
ATOM      6  O   UNL     1       0.387  -0.515  24.701  0.00  0.00    -0.252 OA
ATOM      8  N   UNL     1      -0.573  -1.440  22.812  0.00  0.00    -0.290 N 
ATOM     10  N   UNL     1       1.665  -0.926  22.775  0.00  0.00    -0.267 N 
ATOM     24  C   UNL     1       0.498  -0.917  23.544  0.00  0.00    +0.304 C 
ATOM     32  H   UNL     1      -0.410  -1.700  21.843  0.00  0.00    +0.151 HD
ATOM     36  H   UNL     1       1.588  -1.295  21.831  0.00  0.00    +0.156 HD
BRANCH  10  26
ATOM      1  F   UNL     1       2.407   1.753  22.570  0.00  0.00    -0.203 F 
ATOM      2  F   UNL     1       6.725   0.793  24.249  0.00  0.00    -0.205 F 
ATOM     26  C   UNL     1       2.956  -0.484  23.149  0.00  0.00    +0.070 A 
ATOM     27  C   UNL     1       3.296   0.863  23.035  0.00  0.00    +0.147 A 
ATOM     28  C   UNL     1       3.888  -1.401  23.635  0.00  0.00    +0.029 A 
ATOM     29  C   UNL     1       4.569   1.295  23.406  0.00  0.00    +0.078 A 
ATOM     30  C   UNL     1       5.162  -0.969  24.005  0.00  0.00    +0.040 A 
ATOM     31  C   UNL     1       5.502   0.378  23.891  0.00  0.00    +0.126 A 
ENDBRANCH  10  26
ENDBRANCH  14   8
BRANCH  16  19
ATOM      5  O   UNL     1      -4.186   1.527  26.280  0.00  0.00    -0.271 OA
ATOM      9  N   UNL     1      -2.965   2.274  24.439  0.00  0.00    -0.300 N 
ATOM     19  C   UNL     1      -3.476   1.321  25.303  0.00  0.00    +0.241 C 
ATOM     33  H   UNL     1      -2.329   1.986  23.701  0.00  0.00    +0.150 HD
BRANCH   9  18
ATOM     18  C   UNL     1      -3.215   3.684  24.591  0.00  0.00    +0.159 C 
BRANCH  18  25
ATOM      7  O   UNL     1      -5.163   4.731  25.600  0.00  0.00    -0.274 OA
ATOM     11  N   UNL     1      -5.480   2.918  24.227  0.00  0.00    -0.328 N 
ATOM     25  C   UNL     1      -4.701   3.844  24.887  0.00  0.00    +0.231 C 
ATOM     37  H   UNL     1      -6.490   2.923  24.325  0.00  0.00    +0.145 HD
ATOM     38  H   UNL     1      -5.086   2.204  23.621  0.00  0.00    +0.145 HD
ENDBRANCH  18  25
BRANCH  18  20
ATOM     20  C   UNL     1      -2.379   4.304  25.717  0.00  0.00    +0.034 C 
BRANCH  20  21
ATOM     21  C   UNL     1      -0.853   4.225  25.509  0.00  0.00    -0.015 C 
ATOM     22  C   UNL     1      -0.513   4.537  24.050  0.00  0.00    +0.007 C 
ATOM     23  C   UNL     1      -0.283   2.858  25.891  0.00  0.00    +0.007 C 
ENDBRANCH  20  21
ENDBRANCH  18  20
ENDBRANCH   9  18
ENDBRANCH  16  19
BRANCH  12   3
ATOM      3  O   UNL     1      -0.907  -2.490  25.349  0.00  0.00    -0.387 OA
ATOM     34  H   UNL     1      -1.226  -2.757  26.228  0.00  0.00    +0.210 HD
ENDBRANCH  12   3
BRANCH  13   4
ATOM      4  O   UNL     1      -4.406  -2.896  24.360  0.00  0.00    -0.389 OA
ATOM     35  H   UNL     1      -4.996  -3.486  24.860  0.00  0.00    +0.210 HD
ENDBRANCH  13   4
TORSDOF 9
ENDMDL
