MODEL 1
REMARK VINA RESULT:      -2.7      0.000      0.000
REMARK  Name = 75537077
REMARK  4 active torsions:
REMARK  status: ('A' for Active; 'I' for Inactive)
REMARK    1  A    between atoms: N_4  and  C_14
REMARK    2  A    between atoms: N_5  and  C_15
REMARK    3  A    between atoms: C_14  and  C_16
REMARK    4  A    between atoms: C_15  and  C_17
REMARK                            x       y       z     vdW  Elec       q    Type
REMARK                         _______ _______ _______ _____ _____    ______ ____
ROOT
ATOM      2  O   UNL     1       0.072  -1.493  23.922  0.00  0.00    -0.252 OA
ATOM      3  N   UNL     1      -0.513   0.594  24.828  0.00  0.00    -0.278 N 
ATOM      4  N   UNL     1      -2.145   2.709  25.709  0.00  0.00    -0.293 NA
ATOM      5  N   UNL     1       1.171   0.514  23.345  0.00  0.00    -0.278 N 
ATOM      8  C   UNL     1       0.009   1.945  24.797  0.00  0.00    +0.109 C 
ATOM      9  C   UNL     1      -1.131   2.954  24.663  0.00  0.00    +0.109 C 
ATOM     10  C   UNL     1       0.992   1.927  23.627  0.00  0.00    +0.133 C 
ATOM     11  C   UNL     1      -1.614   0.281  25.714  0.00  0.00    +0.125 C 
ATOM     12  C   UNL     1      -2.705   1.348  25.591  0.00  0.00    +0.104 C 
ATOM     13  C   UNL     1       0.227  -0.282  24.023  0.00  0.00    +0.306 C 
ENDROOT
BRANCH   4  14
ATOM     14  C   UNL     1      -3.211   3.707  25.627  0.00  0.00    +0.147 C 
BRANCH  14  16
ATOM      1  S   UNL     1      -5.000   2.232  24.102  0.00  0.00    -0.079 S 
ATOM      6  N   UNL     1      -5.476   3.116  26.484  0.00  0.00    -0.251 NA
ATOM     16  C   UNL     1      -4.569   3.075  25.533  0.00  0.00    +0.092 A 
ATOM     19  C   UNL     1      -6.529   1.885  24.797  0.00  0.00    +0.066 A 
ATOM     20  C   UNL     1      -6.598   2.434  26.060  0.00  0.00    +0.119 A 
ENDBRANCH  14  16
ENDBRANCH   4  14
BRANCH   5  15
ATOM     15  C   UNL     1       2.122   0.044  22.361  0.00  0.00    +0.164 C 
BRANCH  15  17
ATOM      7  N   UNL     1       3.703  -1.405  23.501  0.00  0.00    -0.258 NA
ATOM     17  C   UNL     1       3.480  -0.187  22.957  0.00  0.00    +0.059 A 
ATOM     18  C   UNL     1       4.418   0.831  22.924  0.00  0.00    +0.025 A 
ATOM     21  C   UNL     1       5.667   0.584  23.485  0.00  0.00    +0.003 A 
ATOM     22  C   UNL     1       4.928  -1.609  24.036  0.00  0.00    +0.111 A 
ATOM     23  C   UNL     1       5.934  -0.658  24.053  0.00  0.00    +0.020 A 
ENDBRANCH  15  17
ENDBRANCH   5  15
TORSDOF 4
ENDMDL
MODEL 2
REMARK VINA RESULT:      -0.9      1.540      1.961
REMARK  Name = 75537077
REMARK  4 active torsions:
REMARK  status: ('A' for Active; 'I' for Inactive)
REMARK    1  A    between atoms: N_4  and  C_14
REMARK    2  A    between atoms: N_5  and  C_15
REMARK    3  A    between atoms: C_14  and  C_16
REMARK    4  A    between atoms: C_15  and  C_17
REMARK                            x       y       z     vdW  Elec       q    Type
REMARK                         _______ _______ _______ _____ _____    ______ ____
ROOT
ATOM      2  O   UNL     1       0.997  -2.145  24.532  0.00  0.00    -0.252 OA
ATOM      3  N   UNL     1      -0.657  -0.502  24.822  0.00  0.00    -0.278 N 
ATOM      4  N   UNL     1      -3.205   0.612  25.244  0.00  0.00    -0.293 NA
ATOM      5  N   UNL     1       0.861  -0.206  23.194  0.00  0.00    -0.278 N 
ATOM      8  C   UNL     1      -0.945   0.814  24.292  0.00  0.00    +0.109 C 
ATOM      9  C   UNL     1      -2.443   0.966  24.030  0.00  0.00    +0.109 C 
ATOM     10  C   UNL     1      -0.064   0.904  23.047  0.00  0.00    +0.133 C 
ATOM     11  C   UNL     1      -1.449  -1.011  25.922  0.00  0.00    +0.125 C 
ATOM     12  C   UNL     1      -2.937  -0.784  25.645  0.00  0.00    +0.104 C 
ATOM     13  C   UNL     1       0.470  -1.083  24.225  0.00  0.00    +0.306 C 
ENDROOT
BRANCH   4  14
ATOM     14  C   UNL     1      -4.637   0.813  25.023  0.00  0.00    +0.147 C 
BRANCH  14  16
ATOM      1  S   UNL     1      -6.445   2.638  26.075  0.00  0.00    -0.079 S 
ATOM      6  N   UNL     1      -4.368   3.266  24.669  0.00  0.00    -0.251 NA
ATOM     16  C   UNL     1      -5.033   2.253  25.179  0.00  0.00    +0.092 A 
ATOM     19  C   UNL     1      -6.157   4.300  25.767  0.00  0.00    +0.066 A 
ATOM     20  C   UNL     1      -5.014   4.438  25.008  0.00  0.00    +0.119 A 
ENDBRANCH  14  16
ENDBRANCH   4  14
BRANCH   5  15
ATOM     15  C   UNL     1       1.953  -0.422  22.270  0.00  0.00    +0.164 C 
BRANCH  15  17
ATOM      7  N   UNL     1       3.816   1.005  22.896  0.00  0.00    -0.258 NA
ATOM     17  C   UNL     1       3.290  -0.240  22.927  0.00  0.00    +0.059 A 
ATOM     18  C   UNL     1       3.908  -1.328  23.520  0.00  0.00    +0.025 A 
ATOM     21  C   UNL     1       5.145  -1.126  24.122  0.00  0.00    +0.003 A 
ATOM     22  C   UNL     1       5.019   1.164  23.491  0.00  0.00    +0.111 A 
ATOM     23  C   UNL     1       5.719   0.142  24.111  0.00  0.00    +0.020 A 
ENDBRANCH  15  17
ENDBRANCH   5  15
TORSDOF 4
ENDMDL
MODEL 3
REMARK VINA RESULT:      -0.6      2.754      8.501
REMARK  Name = 75537077
REMARK  4 active torsions:
REMARK  status: ('A' for Active; 'I' for Inactive)
REMARK    1  A    between atoms: N_4  and  C_14
REMARK    2  A    between atoms: N_5  and  C_15
REMARK    3  A    between atoms: C_14  and  C_16
REMARK    4  A    between atoms: C_15  and  C_17
REMARK                            x       y       z     vdW  Elec       q    Type
REMARK                         _______ _______ _______ _____ _____    ______ ____
ROOT
ATOM      2  O   UNL     1      -1.618   3.873  25.048  0.00  0.00    -0.252 OA
ATOM      3  N   UNL     1      -0.591   1.905  24.281  0.00  0.00    -0.278 N 
ATOM      4  N   UNL     1       1.404   0.223  23.231  0.00  0.00    -0.293 NA
ATOM      5  N   UNL     1      -2.696   2.328  23.628  0.00  0.00    -0.278 N 
ATOM      8  C   UNL     1      -0.985   0.724  23.540  0.00  0.00    +0.109 C 
ATOM      9  C   UNL     1       0.103   0.336  22.540  0.00  0.00    +0.109 C 
ATOM     10  C   UNL     1      -2.321   1.120  22.913  0.00  0.00    +0.133 C 
ATOM     11  C   UNL     1       0.729   1.960  24.875  0.00  0.00    +0.125 C 
ATOM     12  C   UNL     1       1.780   1.505  23.859  0.00  0.00    +0.104 C 
ATOM     13  C   UNL     1      -1.634   2.831  24.405  0.00  0.00    +0.306 C 
ENDROOT
BRANCH   4  14
ATOM     14  C   UNL     1       2.441  -0.209  22.294  0.00  0.00    +0.147 C 
BRANCH  14  16
ATOM      1  S   UNL     1       4.281  -1.572  23.862  0.00  0.00    -0.079 S 
ATOM      6  N   UNL     1       4.678   0.758  22.816  0.00  0.00    -0.251 NA
ATOM     16  C   UNL     1       3.803  -0.216  22.926  0.00  0.00    +0.092 A 
ATOM     19  C   UNL     1       5.789  -0.808  24.153  0.00  0.00    +0.066 A 
ATOM     20  C   UNL     1       5.816   0.417  23.520  0.00  0.00    +0.119 A 
ENDBRANCH  14  16
ENDBRANCH   4  14
BRANCH   5  15
ATOM     15  C   UNL     1      -3.970   2.980  23.414  0.00  0.00    +0.164 C 
BRANCH  15  17
ATOM      7  N   UNL     1      -5.307   3.797  25.270  0.00  0.00    -0.258 NA
ATOM     17  C   UNL     1      -4.928   2.723  24.541  0.00  0.00    +0.059 A 
ATOM     18  C   UNL     1      -5.369   1.432  24.776  0.00  0.00    +0.025 A 
ATOM     21  C   UNL     1      -6.257   1.228  25.827  0.00  0.00    +0.003 A 
ATOM     22  C   UNL     1      -6.171   3.561  26.283  0.00  0.00    +0.111 A 
ATOM     23  C   UNL     1      -6.671   2.309  26.600  0.00  0.00    +0.020 A 
ENDBRANCH  15  17
ENDBRANCH   5  15
TORSDOF 4
ENDMDL
MODEL 4
REMARK VINA RESULT:       0.0      1.477      1.940
REMARK  Name = 75537077
REMARK  4 active torsions:
REMARK  status: ('A' for Active; 'I' for Inactive)
REMARK    1  A    between atoms: N_4  and  C_14
REMARK    2  A    between atoms: N_5  and  C_15
REMARK    3  A    between atoms: C_14  and  C_16
REMARK    4  A    between atoms: C_15  and  C_17
REMARK                            x       y       z     vdW  Elec       q    Type
REMARK                         _______ _______ _______ _____ _____    ______ ____
ROOT
ATOM      2  O   UNL     1       1.217   1.642  25.371  0.00  0.00    -0.252 OA
ATOM      3  N   UNL     1      -0.660   2.703  24.440  0.00  0.00    -0.278 N 
ATOM      4  N   UNL     1      -3.134   4.037  24.328  0.00  0.00    -0.293 NA
ATOM      5  N   UNL     1       0.068   0.805  23.487  0.00  0.00    -0.278 N 
ATOM      8  C   UNL     1      -1.491   2.546  23.265  0.00  0.00    +0.109 C 
ATOM      9  C   UNL     1      -2.963   2.752  23.621  0.00  0.00    +0.109 C 
ATOM     10  C   UNL     1      -1.142   1.146  22.760  0.00  0.00    +0.133 C 
ATOM     11  C   UNL     1      -0.850   3.860  25.291  0.00  0.00    +0.125 C 
ATOM     12  C   UNL     1      -2.341   4.063  25.573  0.00  0.00    +0.104 C 
ATOM     13  C   UNL     1       0.324   1.711  24.536  0.00  0.00    +0.306 C 
ENDROOT
BRANCH   4  14
ATOM     14  C   UNL     1      -4.548   4.273  24.619  0.00  0.00    +0.147 C 
BRANCH  14  16
ATOM      1  S   UNL     1      -4.974   1.530  24.610  0.00  0.00    -0.079 S 
ATOM      6  N   UNL     1      -5.920   3.161  26.378  0.00  0.00    -0.251 NA
ATOM     16  C   UNL     1      -5.189   3.092  25.288  0.00  0.00    +0.092 A 
ATOM     19  C   UNL     1      -5.934   0.877  25.872  0.00  0.00    +0.066 A 
ATOM     20  C   UNL     1      -6.346   1.891  26.711  0.00  0.00    +0.119 A 
ENDBRANCH  14  16
ENDBRANCH   4  14
BRANCH   5  15
ATOM     15  C   UNL     1       0.802  -0.413  23.224  0.00  0.00    +0.164 C 
BRANCH  15  17
ATOM      7  N   UNL     1       3.062  -1.143  23.735  0.00  0.00    -0.258 NA
ATOM     17  C   UNL     1       2.285  -0.179  23.191  0.00  0.00    +0.059 A 
ATOM     18  C   UNL     1       2.776   0.983  22.620  0.00  0.00    +0.025 A 
ATOM     21  C   UNL     1       4.155   1.169  22.605  0.00  0.00    +0.003 A 
ATOM     22  C   UNL     1       4.396  -0.928  23.702  0.00  0.00    +0.111 A 
ATOM     23  C   UNL     1       4.987   0.199  23.155  0.00  0.00    +0.020 A 
ENDBRANCH  15  17
ENDBRANCH   5  15
TORSDOF 4
ENDMDL
MODEL 5
REMARK VINA RESULT:       0.7      2.680      8.497
REMARK  Name = 75537077
REMARK  4 active torsions:
REMARK  status: ('A' for Active; 'I' for Inactive)
REMARK    1  A    between atoms: N_4  and  C_14
REMARK    2  A    between atoms: N_5  and  C_15
REMARK    3  A    between atoms: C_14  and  C_16
REMARK    4  A    between atoms: C_15  and  C_17
REMARK                            x       y       z     vdW  Elec       q    Type
REMARK                         _______ _______ _______ _____ _____    ______ ____
ROOT
ATOM      2  O   UNL     1      -1.177   4.630  24.866  0.00  0.00    -0.252 OA
ATOM      3  N   UNL     1      -0.414   2.443  24.477  0.00  0.00    -0.278 N 
ATOM      4  N   UNL     1       1.251   0.367  23.567  0.00  0.00    -0.293 NA
ATOM      5  N   UNL     1      -2.587   2.887  24.130  0.00  0.00    -0.278 N 
ATOM      8  C   UNL     1      -1.002   1.157  24.162  0.00  0.00    +0.109 C 
ATOM      9  C   UNL     1      -0.155   0.426  23.121  0.00  0.00    +0.109 C 
ATOM     10  C   UNL     1      -2.417   1.508  23.707  0.00  0.00    +0.133 C 
ATOM     11  C   UNL     1       0.999   2.519  24.784  0.00  0.00    +0.125 C 
ATOM     12  C   UNL     1       1.802   1.724  23.751  0.00  0.00    +0.104 C 
ATOM     13  C   UNL     1      -1.369   3.466  24.537  0.00  0.00    +0.306 C 
ENDROOT
BRANCH   4  14
ATOM     14  C   UNL     1       2.058  -0.385  22.606  0.00  0.00    +0.147 C 
BRANCH  14  16
ATOM      1  S   UNL     1       4.649   0.610  22.620  0.00  0.00    -0.079 S 
ATOM      6  N   UNL     1       3.897  -1.552  23.820  0.00  0.00    -0.251 NA
ATOM     16  C   UNL     1       3.475  -0.556  23.073  0.00  0.00    +0.092 A 
ATOM     19  C   UNL     1       5.831  -0.278  23.490  0.00  0.00    +0.066 A 
ATOM     20  C   UNL     1       5.247  -1.391  24.057  0.00  0.00    +0.119 A 
ENDBRANCH  14  16
ENDBRANCH   4  14
BRANCH   5  15
ATOM     15  C   UNL     1      -3.848   3.583  23.986  0.00  0.00    +0.164 C 
BRANCH  15  17
ATOM      7  N   UNL     1      -5.119   3.394  26.048  0.00  0.00    -0.258 NA
ATOM     17  C   UNL     1      -4.940   2.937  24.788  0.00  0.00    +0.059 A 
ATOM     18  C   UNL     1      -5.696   1.928  24.214  0.00  0.00    +0.025 A 
ATOM     21  C   UNL     1      -6.701   1.351  24.983  0.00  0.00    +0.003 A 
ATOM     22  C   UNL     1      -6.104   2.810  26.765  0.00  0.00    +0.111 A 
ATOM     23  C   UNL     1      -6.916   1.795  26.284  0.00  0.00    +0.020 A 
ENDBRANCH  15  17
ENDBRANCH   5  15
TORSDOF 4
ENDMDL
