MODEL 1
REMARK VINA RESULT:      -4.5      0.000      0.000
REMARK  Name = 75536905
REMARK  4 active torsions:
REMARK  status: ('A' for Active; 'I' for Inactive)
REMARK    1  A    between atoms: O_5  and  C_10
REMARK    2  A    between atoms: O_5  and  C_17
REMARK    3  A    between atoms: C_15  and  C_16
REMARK    4  A    between atoms: C_20  and  C_24
REMARK                            x       y       z     vdW  Elec       q    Type
REMARK                         _______ _______ _______ _____ _____    ______ ____
ROOT
ATOM      4  O   UNL     1       1.758  -0.571  22.814  0.00  0.00    -0.375 OA
ATOM      6  O   UNL     1       0.050   3.872  23.618  0.00  0.00    -0.270 OA
ATOM      7  N   UNL     1       0.226   1.665  24.388  0.00  0.00    -0.292 N 
ATOM     10  C   UNL     1       0.221  -0.870  24.686  0.00  0.00    +0.218 C 
ATOM     11  C   UNL     1      -0.422   0.489  24.978  0.00  0.00    +0.155 C 
ATOM     12  C   UNL     1       1.636   1.563  24.006  0.00  0.00    +0.136 C 
ATOM     13  C   UNL     1       0.493  -1.101  23.201  0.00  0.00    +0.206 C 
ATOM     14  C   UNL     1       1.792   0.845  22.673  0.00  0.00    +0.179 C 
ATOM     15  C   UNL     1      -0.446   2.873  24.138  0.00  0.00    +0.247 C 
ENDROOT
BRANCH  15  16
ATOM     16  C   UNL     1      -1.862   2.976  24.522  0.00  0.00    +0.037 A 
ATOM     18  C   UNL     1      -2.217   3.591  25.723  0.00  0.00    +0.013 A 
ATOM     19  C   UNL     1      -2.851   2.458  23.686  0.00  0.00    +0.013 A 
ATOM     20  C   UNL     1      -4.548   3.168  25.251  0.00  0.00    +0.055 A 
ATOM     21  C   UNL     1      -3.560   3.687  26.088  0.00  0.00    +0.013 A 
ATOM     22  C   UNL     1      -4.194   2.553  24.050  0.00  0.00    +0.013 A 
BRANCH  20  24
ATOM      1  F   UNL     1      -6.248   2.787  26.890  0.00  0.00    -0.166 F 
ATOM      2  F   UNL     1      -6.828   2.590  24.810  0.00  0.00    -0.166 F 
ATOM      3  F   UNL     1      -6.436   4.559  25.646  0.00  0.00    -0.166 F 
ATOM     24  C   UNL     1      -5.984   3.271  25.641  0.00  0.00    +0.417 C 
ENDBRANCH  20  24
ENDBRANCH  15  16
BRANCH  10   5
ATOM      5  O   UNL     1      -0.690  -1.866  25.153  0.00  0.00    -0.468 OA
BRANCH   5  17
ATOM      8  N   UNL     1      -2.636  -2.307  23.960  0.00  0.00    -0.219 NA
ATOM      9  N   UNL     1      -3.999  -0.443  25.551  0.00  0.00    -0.256 NA
ATOM     17  C   UNL     1      -2.020  -1.624  24.945  0.00  0.00    +0.234 A 
ATOM     23  C   UNL     1      -2.688  -0.708  25.727  0.00  0.00    +0.177 A 
ATOM     25  C   UNL     1      -3.945  -2.042  23.785  0.00  0.00    +0.134 A 
ATOM     26  C   UNL     1      -4.615  -1.126  24.566  0.00  0.00    +0.130 A 
ENDBRANCH   5  17
ENDBRANCH  10   5
TORSDOF 4
ENDMDL
MODEL 2
REMARK VINA RESULT:      -4.5      3.225      5.275
REMARK  Name = 75536905
REMARK  4 active torsions:
REMARK  status: ('A' for Active; 'I' for Inactive)
REMARK    1  A    between atoms: O_5  and  C_10
REMARK    2  A    between atoms: O_5  and  C_17
REMARK    3  A    between atoms: C_15  and  C_16
REMARK    4  A    between atoms: C_20  and  C_24
REMARK                            x       y       z     vdW  Elec       q    Type
REMARK                         _______ _______ _______ _____ _____    ______ ____
ROOT
ATOM      4  O   UNL     1      -1.216   5.694  24.863  0.00  0.00    -0.375 OA
ATOM      6  O   UNL     1      -5.288   3.112  25.082  0.00  0.00    -0.270 OA
ATOM      7  N   UNL     1      -3.035   3.283  25.700  0.00  0.00    -0.292 N 
ATOM     10  C   UNL     1      -0.498   3.556  25.796  0.00  0.00    +0.218 C 
ATOM     11  C   UNL     1      -1.724   2.640  25.848  0.00  0.00    +0.155 C 
ATOM     12  C   UNL     1      -3.146   4.711  26.003  0.00  0.00    +0.136 C 
ATOM     13  C   UNL     1      -0.498   4.494  24.591  0.00  0.00    +0.206 C 
ATOM     14  C   UNL     1      -2.633   5.558  24.846  0.00  0.00    +0.179 C 
ATOM     15  C   UNL     1      -4.180   2.606  25.249  0.00  0.00    +0.247 C 
ENDROOT
BRANCH  15  16
ATOM     16  C   UNL     1      -4.068   1.171  24.945  0.00  0.00    +0.037 A 
ATOM     18  C   UNL     1      -4.132   0.232  25.976  0.00  0.00    +0.013 A 
ATOM     19  C   UNL     1      -3.897   0.748  23.627  0.00  0.00    +0.013 A 
ATOM     20  C   UNL     1      -3.854  -1.550  24.369  0.00  0.00    +0.055 A 
ATOM     21  C   UNL     1      -4.025  -1.128  25.687  0.00  0.00    +0.013 A 
ATOM     22  C   UNL     1      -3.789  -0.613  23.339  0.00  0.00    +0.013 A 
BRANCH  20  24
ATOM      1  F   UNL     1      -3.845  -3.807  25.161  0.00  0.00    -0.166 F 
ATOM      2  F   UNL     1      -2.550  -3.350  23.482  0.00  0.00    -0.166 F 
ATOM      3  F   UNL     1      -4.704  -3.438  23.199  0.00  0.00    -0.166 F 
ATOM     24  C   UNL     1      -3.739  -3.005  24.062  0.00  0.00    +0.417 C 
ENDBRANCH  20  24
ENDBRANCH  15  16
BRANCH  10   5
ATOM      5  O   UNL     1       0.648   2.708  25.726  0.00  0.00    -0.468 OA
BRANCH   5  17
ATOM      8  N   UNL     1       1.362   1.536  23.849  0.00  0.00    -0.219 NA
ATOM      9  N   UNL     1      -0.496  -0.481  24.439  0.00  0.00    -0.256 NA
ATOM     17  C   UNL     1       0.546   1.608  24.920  0.00  0.00    +0.234 A 
ATOM     23  C   UNL     1      -0.366   0.618  25.210  0.00  0.00    +0.177 A 
ATOM     25  C   UNL     1       1.233   0.438  23.079  0.00  0.00    +0.134 A 
ATOM     26  C   UNL     1       0.320  -0.553  23.368  0.00  0.00    +0.130 A 
ENDBRANCH   5  17
ENDBRANCH  10   5
TORSDOF 4
ENDMDL
MODEL 3
REMARK VINA RESULT:      -3.3      2.921      4.835
REMARK  Name = 75536905
REMARK  4 active torsions:
REMARK  status: ('A' for Active; 'I' for Inactive)
REMARK    1  A    between atoms: O_5  and  C_10
REMARK    2  A    between atoms: O_5  and  C_17
REMARK    3  A    between atoms: C_15  and  C_16
REMARK    4  A    between atoms: C_20  and  C_24
REMARK                            x       y       z     vdW  Elec       q    Type
REMARK                         _______ _______ _______ _____ _____    ______ ____
ROOT
ATOM      4  O   UNL     1      -3.951  -3.141  23.802  0.00  0.00    -0.375 OA
ATOM      6  O   UNL     1       0.243  -1.120  25.083  0.00  0.00    -0.270 OA
ATOM      7  N   UNL     1      -2.095  -1.065  25.242  0.00  0.00    -0.292 N 
ATOM     10  C   UNL     1      -4.613  -1.026  24.826  0.00  0.00    +0.218 C 
ATOM     11  C   UNL     1      -3.334  -0.279  25.213  0.00  0.00    +0.155 C 
ATOM     12  C   UNL     1      -2.196  -2.518  25.392  0.00  0.00    +0.136 C 
ATOM     13  C   UNL     1      -4.469  -1.840  23.541  0.00  0.00    +0.206 C 
ATOM     14  C   UNL     1      -2.552  -3.181  24.069  0.00  0.00    +0.179 C 
ATOM     15  C   UNL     1      -0.818  -0.497  25.096  0.00  0.00    +0.247 C 
ENDROOT
BRANCH  15  16
ATOM     16  C   UNL     1      -0.716   0.962  24.946  0.00  0.00    +0.037 A 
ATOM     18  C   UNL     1      -0.699   1.781  26.076  0.00  0.00    +0.013 A 
ATOM     19  C   UNL     1      -0.637   1.529  23.673  0.00  0.00    +0.013 A 
ATOM     20  C   UNL     1      -0.525   3.731  24.660  0.00  0.00    +0.055 A 
ATOM     21  C   UNL     1      -0.604   3.165  25.933  0.00  0.00    +0.013 A 
ATOM     22  C   UNL     1      -0.542   2.914  23.530  0.00  0.00    +0.013 A 
BRANCH  20  24
ATOM      1  F   UNL     1       0.500   5.784  25.334  0.00  0.00    -0.166 F 
ATOM      2  F   UNL     1      -1.592   5.870  24.768  0.00  0.00    -0.166 F 
ATOM      3  F   UNL     1      -0.066   5.586  23.245  0.00  0.00    -0.166 F 
ATOM     24  C   UNL     1      -0.423   5.211  24.508  0.00  0.00    +0.417 C 
ENDBRANCH  20  24
ENDBRANCH  15  16
BRANCH  10   5
ATOM      5  O   UNL     1      -5.627  -0.039  24.640  0.00  0.00    -0.468 OA
BRANCH   5  17
ATOM      8  N   UNL     1      -4.379   1.818  24.008  0.00  0.00    -0.219 NA
ATOM      9  N   UNL     1      -5.457   3.241  26.172  0.00  0.00    -0.256 NA
ATOM     17  C   UNL     1      -5.263   1.261  24.860  0.00  0.00    +0.234 A 
ATOM     23  C   UNL     1      -5.792   1.959  25.923  0.00  0.00    +0.177 A 
ATOM     25  C   UNL     1      -4.044   3.100  24.257  0.00  0.00    +0.134 A 
ATOM     26  C   UNL     1      -4.573   3.799  25.320  0.00  0.00    +0.130 A 
ENDBRANCH   5  17
ENDBRANCH  10   5
TORSDOF 4
ENDMDL
MODEL 4
REMARK VINA RESULT:      -2.0      1.706      4.082
REMARK  Name = 75536905
REMARK  4 active torsions:
REMARK  status: ('A' for Active; 'I' for Inactive)
REMARK    1  A    between atoms: O_5  and  C_10
REMARK    2  A    between atoms: O_5  and  C_17
REMARK    3  A    between atoms: C_15  and  C_16
REMARK    4  A    between atoms: C_20  and  C_24
REMARK                            x       y       z     vdW  Elec       q    Type
REMARK                         _______ _______ _______ _____ _____    ______ ____
ROOT
ATOM      4  O   UNL     1      -0.511  -2.918  25.156  0.00  0.00    -0.375 OA
ATOM      6  O   UNL     1      -5.046  -1.504  24.296  0.00  0.00    -0.270 OA
ATOM      7  N   UNL     1      -2.762  -1.076  23.989  0.00  0.00    -0.292 N 
ATOM     10  C   UNL     1      -0.255  -0.670  24.241  0.00  0.00    +0.218 C 
ATOM     11  C   UNL     1      -1.658  -0.110  23.991  0.00  0.00    +0.155 C 
ATOM     12  C   UNL     1      -2.454  -2.484  23.732  0.00  0.00    +0.136 C 
ATOM     13  C   UNL     1      -0.176  -1.570  25.473  0.00  0.00    +0.206 C 
ATOM     14  C   UNL     1      -1.903  -3.160  24.979  0.00  0.00    +0.179 C 
ATOM     15  C   UNL     1      -4.096  -0.723  24.257  0.00  0.00    +0.247 C 
ENDROOT
BRANCH  15  16
ATOM     16  C   UNL     1      -4.405   0.691  24.515  0.00  0.00    +0.037 A 
ATOM     18  C   UNL     1      -5.309   1.037  25.520  0.00  0.00    +0.013 A 
ATOM     19  C   UNL     1      -3.794   1.689  23.754  0.00  0.00    +0.013 A 
ATOM     20  C   UNL     1      -4.992   3.375  25.003  0.00  0.00    +0.055 A 
ATOM     21  C   UNL     1      -5.602   2.378  25.764  0.00  0.00    +0.013 A 
ATOM     22  C   UNL     1      -4.088   3.031  23.998  0.00  0.00    +0.013 A 
BRANCH  20  24
ATOM      1  F   UNL     1      -6.598   5.025  25.650  0.00  0.00    -0.166 F 
ATOM      2  F   UNL     1      -5.119   5.617  24.178  0.00  0.00    -0.166 F 
ATOM      3  F   UNL     1      -4.534   5.345  26.254  0.00  0.00    -0.166 F 
ATOM     24  C   UNL     1      -5.306   4.809  25.264  0.00  0.00    +0.417 C 
ENDBRANCH  20  24
ENDBRANCH  15  16
BRANCH  10   5
ATOM      5  O   UNL     1       0.610   0.451  24.429  0.00  0.00    -0.468 OA
BRANCH   5  17
ATOM      8  N   UNL     1      -0.533   1.753  25.979  0.00  0.00    -0.219 NA
ATOM      9  N   UNL     1      -0.606   3.851  24.118  0.00  0.00    -0.256 NA
ATOM     17  C   UNL     1       0.011   1.637  24.751  0.00  0.00    +0.234 A 
ATOM     23  C   UNL     1      -0.024   2.668  23.837  0.00  0.00    +0.177 A 
ATOM     25  C   UNL     1      -1.114   2.936  26.260  0.00  0.00    +0.134 A 
ATOM     26  C   UNL     1      -1.150   3.967  25.346  0.00  0.00    +0.130 A 
ENDBRANCH   5  17
ENDBRANCH  10   5
TORSDOF 4
ENDMDL
MODEL 5
REMARK VINA RESULT:      -1.0      3.847      6.112
REMARK  Name = 75536905
REMARK  4 active torsions:
REMARK  status: ('A' for Active; 'I' for Inactive)
REMARK    1  A    between atoms: O_5  and  C_10
REMARK    2  A    between atoms: O_5  and  C_17
REMARK    3  A    between atoms: C_15  and  C_16
REMARK    4  A    between atoms: C_20  and  C_24
REMARK                            x       y       z     vdW  Elec       q    Type
REMARK                         _______ _______ _______ _____ _____    ______ ____
ROOT
ATOM      4  O   UNL     1      -0.929   5.627  24.928  0.00  0.00    -0.375 OA
ATOM      6  O   UNL     1      -5.062   3.166  24.520  0.00  0.00    -0.270 OA
ATOM      7  N   UNL     1      -2.963   3.325  25.551  0.00  0.00    -0.292 N 
ATOM     10  C   UNL     1      -0.484   3.543  26.118  0.00  0.00    +0.218 C 
ATOM     11  C   UNL     1      -1.730   2.662  25.990  0.00  0.00    +0.155 C 
ATOM     12  C   UNL     1      -3.077   4.773  25.734  0.00  0.00    +0.136 C 
ATOM     13  C   UNL     1      -0.218   4.393  24.877  0.00  0.00    +0.206 C 
ATOM     14  C   UNL     1      -2.321   5.523  24.646  0.00  0.00    +0.179 C 
ATOM     15  C   UNL     1      -4.025   2.645  24.931  0.00  0.00    +0.247 C 
ENDROOT
BRANCH  15  16
ATOM     16  C   UNL     1      -3.911   1.191  24.747  0.00  0.00    +0.037 A 
ATOM     18  C   UNL     1      -3.570   0.669  23.499  0.00  0.00    +0.013 A 
ATOM     19  C   UNL     1      -4.143   0.332  25.822  0.00  0.00    +0.013 A 
ATOM     20  C   UNL     1      -3.695  -1.569  24.401  0.00  0.00    +0.055 A 
ATOM     21  C   UNL     1      -3.462  -0.711  23.326  0.00  0.00    +0.013 A 
ATOM     22  C   UNL     1      -4.036  -1.048  25.649  0.00  0.00    +0.013 A 
BRANCH  20  24
ATOM      1  F   UNL     1      -2.408  -3.433  23.630  0.00  0.00    -0.166 F 
ATOM      2  F   UNL     1      -4.563  -3.576  23.429  0.00  0.00    -0.166 F 
ATOM      3  F   UNL     1      -3.644  -3.729  25.394  0.00  0.00    -0.166 F 
ATOM     24  C   UNL     1      -3.580  -3.044  24.215  0.00  0.00    +0.417 C 
ENDBRANCH  20  24
ENDBRANCH  15  16
BRANCH  10   5
ATOM      5  O   UNL     1       0.623   2.664  26.325  0.00  0.00    -0.468 OA
BRANCH   5  17
ATOM      8  N   UNL     1       2.441   2.983  27.738  0.00  0.00    -0.219 NA
ATOM      9  N   UNL     1       0.851   2.201  29.912  0.00  0.00    -0.256 NA
ATOM     17  C   UNL     1       1.149   2.631  27.587  0.00  0.00    +0.234 A 
ATOM     23  C   UNL     1       0.367   2.246  28.654  0.00  0.00    +0.177 A 
ATOM     25  C   UNL     1       2.924   2.937  28.995  0.00  0.00    +0.134 A 
ATOM     26  C   UNL     1       2.143   2.553  30.063  0.00  0.00    +0.130 A 
ENDBRANCH   5  17
ENDBRANCH  10   5
TORSDOF 4
ENDMDL
MODEL 6
REMARK VINA RESULT:      -0.8      2.390      4.588
REMARK  Name = 75536905
REMARK  4 active torsions:
REMARK  status: ('A' for Active; 'I' for Inactive)
REMARK    1  A    between atoms: O_5  and  C_10
REMARK    2  A    between atoms: O_5  and  C_17
REMARK    3  A    between atoms: C_15  and  C_16
REMARK    4  A    between atoms: C_20  and  C_24
REMARK                            x       y       z     vdW  Elec       q    Type
REMARK                         _______ _______ _______ _____ _____    ______ ____
ROOT
ATOM      4  O   UNL     1      -3.069  -3.495  24.989  0.00  0.00    -0.375 OA
ATOM      6  O   UNL     1      -5.818   0.432  24.417  0.00  0.00    -0.270 OA
ATOM      7  N   UNL     1      -3.802  -0.648  23.903  0.00  0.00    -0.292 N 
ATOM     10  C   UNL     1      -1.571  -1.887  23.928  0.00  0.00    +0.218 C 
ATOM     11  C   UNL     1      -2.344  -0.576  23.760  0.00  0.00    +0.155 C 
ATOM     12  C   UNL     1      -4.458  -1.942  23.704  0.00  0.00    +0.136 C 
ATOM     13  C   UNL     1      -1.944  -2.647  25.200  0.00  0.00    +0.206 C 
ATOM     14  C   UNL     1      -4.322  -2.821  24.940  0.00  0.00    +0.179 C 
ATOM     15  C   UNL     1      -4.598   0.454  24.257  0.00  0.00    +0.247 C 
ENDROOT
BRANCH  15  16
ATOM     16  C   UNL     1      -3.940   1.754  24.457  0.00  0.00    +0.037 A 
ATOM     18  C   UNL     1      -3.105   2.274  23.467  0.00  0.00    +0.013 A 
ATOM     19  C   UNL     1      -4.150   2.469  25.637  0.00  0.00    +0.013 A 
ATOM     20  C   UNL     1      -2.691   4.220  24.837  0.00  0.00    +0.055 A 
ATOM     21  C   UNL     1      -2.481   3.506  23.657  0.00  0.00    +0.013 A 
ATOM     22  C   UNL     1      -3.525   3.702  25.827  0.00  0.00    +0.013 A 
BRANCH  20  24
ATOM      1  F   UNL     1      -2.382   6.161  26.200  0.00  0.00    -0.166 F 
ATOM      2  F   UNL     1      -2.287   6.444  24.052  0.00  0.00    -0.166 F 
ATOM      3  F   UNL     1      -0.662   5.435  25.086  0.00  0.00    -0.166 F 
ATOM     24  C   UNL     1      -2.022   5.537  25.040  0.00  0.00    +0.417 C 
ENDBRANCH  20  24
ENDBRANCH  15  16
BRANCH  10   5
ATOM      5  O   UNL     1      -0.185  -1.545  23.981  0.00  0.00    -0.468 OA
BRANCH   5  17
ATOM      8  N   UNL     1       0.943   0.374  23.314  0.00  0.00    -0.219 NA
ATOM      9  N   UNL     1      -0.162   1.746  25.497  0.00  0.00    -0.256 NA
ATOM     17  C   UNL     1       0.112  -0.227  24.188  0.00  0.00    +0.234 A 
ATOM     23  C   UNL     1      -0.431   0.446  25.260  0.00  0.00    +0.177 A 
ATOM     25  C   UNL     1       1.212   1.673  23.551  0.00  0.00    +0.134 A 
ATOM     26  C   UNL     1       0.670   2.347  24.623  0.00  0.00    +0.130 A 
ENDBRANCH   5  17
ENDBRANCH  10   5
TORSDOF 4
ENDMDL
