MODEL 1
REMARK VINA RESULT:      -1.4      0.000      0.000
REMARK  Name = 25389266
REMARK  7 active torsions:
REMARK  status: ('A' for Active; 'I' for Inactive)
REMARK    1  A    between atoms: S_1  and  N_6
REMARK    2  A    between atoms: S_1  and  C_23
REMARK    3  A    between atoms: N_5  and  C_14
REMARK    4  A    between atoms: N_6  and  C_15
REMARK    5  A    between atoms: C_8  and  C_14
REMARK    6  A    between atoms: C_9  and  C_15
REMARK    7  A    between atoms: C_30  and  C_31
REMARK                            x       y       z     vdW  Elec       q    Type
REMARK                         _______ _______ _______ _____ _____    ______ ____
ROOT
ATOM      4  N   UNL     1      -2.293  -1.708  23.640  0.00  0.00    -0.298 NA
ATOM      7  C   UNL     1      -4.117  -2.031  25.468  0.00  0.00    -0.003 C 
ATOM      8  C   UNL     1      -4.488  -0.869  24.518  0.00  0.00    +0.020 C 
ATOM      9  C   UNL     1      -1.667  -1.714  24.989  0.00  0.00    +0.072 C 
ATOM     10  C   UNL     1      -2.741  -1.754  26.100  0.00  0.00    +0.024 C 
ATOM     11  C   UNL     1      -3.309  -0.629  23.549  0.00  0.00    +0.089 C 
ATOM     12  C   UNL     1      -3.972  -3.293  24.595  0.00  0.00    +0.019 C 
ATOM     13  C   UNL     1      -2.983  -3.008  23.451  0.00  0.00    +0.085 C 
ENDROOT
BRANCH   8  14
ATOM     14  C   UNL     1      -4.878   0.409  25.257  0.00  0.00    +0.089 C 
BRANCH  14   5
ATOM      5  N   UNL     1      -4.082   1.544  24.791  0.00  0.00    -0.298 NA
ATOM     16  C   UNL     1      -4.887   2.772  24.766  0.00  0.00    +0.089 C 
ATOM     17  C   UNL     1      -2.900   1.728  25.652  0.00  0.00    +0.119 C 
ATOM     18  C   UNL     1      -4.101   3.895  24.083  0.00  0.00    +0.051 C 
ATOM     19  C   UNL     1      -2.102   2.968  25.315  0.00  0.00    -0.030 A 
ATOM     20  C   UNL     1      -2.693   4.024  24.602  0.00  0.00    -0.042 A 
ATOM     21  C   UNL     1      -0.783   3.095  25.773  0.00  0.00    +0.005 A 
ATOM     22  C   UNL     1      -1.945   5.175  24.323  0.00  0.00    +0.004 A 
ATOM     24  C   UNL     1      -0.050   4.249  25.498  0.00  0.00    +0.000 A 
ATOM     25  C   UNL     1      -0.630   5.287  24.772  0.00  0.00    +0.000 A 
ENDBRANCH  14   5
ENDBRANCH   8  14
BRANCH   9  15
ATOM     15  C   UNL     1      -0.691  -0.552  25.185  0.00  0.00    +0.124 C 
BRANCH  15   6
ATOM      6  N   UNL     1       0.560  -0.806  24.490  0.00  0.00    -0.188 NA
ATOM     32  H   UNL     1       1.320  -1.216  25.045  0.00  0.00    +0.148 HD
BRANCH   6   1
ATOM      1  S   UNL     1       1.030   0.161  23.156  0.00  0.00    +0.058 S 
ATOM      2  O   UNL     1       0.679   1.541  23.426  0.00  0.00    -0.153 OA
ATOM      3  O   UNL     1       0.605  -0.473  21.922  0.00  0.00    -0.153 OA
BRANCH   1  23
ATOM     23  C   UNL     1       2.791   0.023  23.225  0.00  0.00    +0.105 A 
ATOM     26  C   UNL     1       3.382  -1.149  23.697  0.00  0.00    +0.029 A 
ATOM     27  C   UNL     1       3.590   1.089  22.812  0.00  0.00    +0.029 A 
ATOM     28  C   UNL     1       4.771  -1.257  23.754  0.00  0.00    +0.005 A 
ATOM     29  C   UNL     1       4.981   0.982  22.869  0.00  0.00    +0.005 A 
ATOM     30  C   UNL     1       5.570  -0.191  23.340  0.00  0.00    -0.050 A 
ATOM     31  C   UNL     1       7.056  -0.305  23.401  0.00  0.00    +0.044 C 
ENDBRANCH   1  23
ENDBRANCH   6   1
ENDBRANCH  15   6
ENDBRANCH   9  15
TORSDOF 6
ENDMDL
MODEL 2
REMARK VINA RESULT:      -1.1      2.727      7.127
REMARK  Name = 25389266
REMARK  7 active torsions:
REMARK  status: ('A' for Active; 'I' for Inactive)
REMARK    1  A    between atoms: S_1  and  N_6
REMARK    2  A    between atoms: S_1  and  C_23
REMARK    3  A    between atoms: N_5  and  C_14
REMARK    4  A    between atoms: N_6  and  C_15
REMARK    5  A    between atoms: C_8  and  C_14
REMARK    6  A    between atoms: C_9  and  C_15
REMARK    7  A    between atoms: C_30  and  C_31
REMARK                            x       y       z     vdW  Elec       q    Type
REMARK                         _______ _______ _______ _____ _____    ______ ____
ROOT
ATOM      4  N   UNL     1      -2.811   4.710  24.716  0.00  0.00    -0.298 NA
ATOM      7  C   UNL     1      -0.609   3.414  25.210  0.00  0.00    -0.003 C 
ATOM      8  C   UNL     1      -1.290   2.878  23.929  0.00  0.00    +0.020 C 
ATOM      9  C   UNL     1      -2.818   4.209  26.117  0.00  0.00    +0.072 C 
ATOM     10  C   UNL     1      -1.591   3.310  26.391  0.00  0.00    +0.024 C 
ATOM     11  C   UNL     1      -2.656   3.580  23.767  0.00  0.00    +0.089 C 
ATOM     12  C   UNL     1      -0.334   4.912  24.976  0.00  0.00    +0.019 C 
ATOM     13  C   UNL     1      -1.641   5.608  24.558  0.00  0.00    +0.085 C 
ENDROOT
BRANCH   8  14
ATOM     14  C   UNL     1      -1.433   1.357  23.916  0.00  0.00    +0.089 C 
BRANCH  14   5
ATOM      5  N   UNL     1      -0.133   0.710  24.085  0.00  0.00    -0.298 NA
ATOM     16  C   UNL     1      -0.203  -0.708  23.710  0.00  0.00    +0.089 C 
ATOM     17  C   UNL     1       0.892   1.399  23.280  0.00  0.00    +0.119 C 
ATOM     18  C   UNL     1       1.104  -1.412  24.089  0.00  0.00    +0.051 C 
ATOM     19  C   UNL     1       2.234   0.702  23.296  0.00  0.00    -0.030 A 
ATOM     20  C   UNL     1       2.327  -0.656  23.641  0.00  0.00    -0.042 A 
ATOM     21  C   UNL     1       3.386   1.397  22.901  0.00  0.00    +0.005 A 
ATOM     22  C   UNL     1       3.576  -1.291  23.624  0.00  0.00    +0.004 A 
ATOM     24  C   UNL     1       4.623   0.754  22.879  0.00  0.00    +0.000 A 
ATOM     25  C   UNL     1       4.718  -0.588  23.241  0.00  0.00    +0.000 A 
ENDBRANCH  14   5
ENDBRANCH   8  14
BRANCH   9  15
ATOM     15  C   UNL     1      -4.128   3.508  26.480  0.00  0.00    +0.124 C 
BRANCH  15   6
ATOM      6  N   UNL     1      -4.745   2.925  25.301  0.00  0.00    -0.188 NA
ATOM     32  H   UNL     1      -4.869   3.545  24.491  0.00  0.00    +0.148 HD
BRANCH   6   1
ATOM      1  S   UNL     1      -5.864   1.636  25.446  0.00  0.00    +0.058 S 
ATOM      2  O   UNL     1      -6.815   1.712  24.355  0.00  0.00    -0.153 OA
ATOM      3  O   UNL     1      -6.332   1.550  26.817  0.00  0.00    -0.153 OA
BRANCH   1  23
ATOM     23  C   UNL     1      -4.824   0.234  25.168  0.00  0.00    +0.105 A 
ATOM     26  C   UNL     1      -4.880  -0.446  23.951  0.00  0.00    +0.029 A 
ATOM     27  C   UNL     1      -3.950  -0.195  26.167  0.00  0.00    +0.029 A 
ATOM     28  C   UNL     1      -4.062  -1.553  23.732  0.00  0.00    +0.005 A 
ATOM     29  C   UNL     1      -3.131  -1.304  25.948  0.00  0.00    +0.005 A 
ATOM     30  C   UNL     1      -3.187  -1.982  24.731  0.00  0.00    -0.050 A 
ATOM     31  C   UNL     1      -2.312  -3.167  24.498  0.00  0.00    +0.044 C 
ENDBRANCH   1  23
ENDBRANCH   6   1
ENDBRANCH  15   6
ENDBRANCH   9  15
TORSDOF 6
ENDMDL
MODEL 3
REMARK VINA RESULT:      -0.2      1.291      4.848
REMARK  Name = 25389266
REMARK  7 active torsions:
REMARK  status: ('A' for Active; 'I' for Inactive)
REMARK    1  A    between atoms: S_1  and  N_6
REMARK    2  A    between atoms: S_1  and  C_23
REMARK    3  A    between atoms: N_5  and  C_14
REMARK    4  A    between atoms: N_6  and  C_15
REMARK    5  A    between atoms: C_8  and  C_14
REMARK    6  A    between atoms: C_9  and  C_15
REMARK    7  A    between atoms: C_30  and  C_31
REMARK                            x       y       z     vdW  Elec       q    Type
REMARK                         _______ _______ _______ _____ _____    ______ ____
ROOT
ATOM      4  N   UNL     1      -1.086   3.941  25.423  0.00  0.00    -0.298 NA
ATOM      7  C   UNL     1      -3.232   4.161  23.968  0.00  0.00    -0.003 C 
ATOM      8  C   UNL     1      -3.584   3.717  25.407  0.00  0.00    +0.020 C 
ATOM      9  C   UNL     1      -0.930   3.164  24.164  0.00  0.00    +0.072 C 
ATOM     10  C   UNL     1      -2.244   3.154  23.351  0.00  0.00    +0.024 C 
ATOM     11  C   UNL     1      -2.270   3.463  26.179  0.00  0.00    +0.089 C 
ATOM     12  C   UNL     1      -2.497   5.510  24.084  0.00  0.00    +0.019 C 
ATOM     13  C   UNL     1      -1.315   5.361  25.058  0.00  0.00    +0.085 C 
ENDROOT
BRANCH   8  14
ATOM     14  C   UNL     1      -4.507   2.501  25.452  0.00  0.00    +0.089 C 
BRANCH  14   5
ATOM      5  N   UNL     1      -3.781   1.282  25.096  0.00  0.00    -0.298 NA
ATOM     16  C   UNL     1      -2.989   0.796  26.234  0.00  0.00    +0.089 C 
ATOM     17  C   UNL     1      -4.719   0.239  24.646  0.00  0.00    +0.119 C 
ATOM     18  C   UNL     1      -2.080  -0.352  25.782  0.00  0.00    +0.051 C 
ATOM     19  C   UNL     1      -4.054  -1.096  24.393  0.00  0.00    -0.030 A 
ATOM     20  C   UNL     1      -2.810  -1.393  24.975  0.00  0.00    -0.042 A 
ATOM     21  C   UNL     1      -4.709  -2.069  23.627  0.00  0.00    +0.005 A 
ATOM     22  C   UNL     1      -2.222  -2.645  24.750  0.00  0.00    +0.004 A 
ATOM     24  C   UNL     1      -4.120  -3.315  23.417  0.00  0.00    +0.000 A 
ATOM     25  C   UNL     1      -2.878  -3.602  23.977  0.00  0.00    +0.000 A 
ENDBRANCH  14   5
ENDBRANCH   8  14
BRANCH   9  15
ATOM     15  C   UNL     1      -0.406   1.748  24.413  0.00  0.00    +0.124 C 
BRANCH  15   6
ATOM      6  N   UNL     1       0.748   1.470  23.574  0.00  0.00    -0.188 NA
ATOM     32  H   UNL     1       1.059   2.227  22.953  0.00  0.00    +0.148 HD
BRANCH   6   1
ATOM      1  S   UNL     1       1.085  -0.126  23.052  0.00  0.00    +0.058 S 
ATOM      2  O   UNL     1       0.751  -0.243  21.646  0.00  0.00    -0.153 OA
ATOM      3  O   UNL     1       0.550  -1.075  24.011  0.00  0.00    -0.153 OA
BRANCH   1  23
ATOM     23  C   UNL     1       2.846  -0.181  23.201  0.00  0.00    +0.105 A 
ATOM     26  C   UNL     1       3.469  -1.325  23.699  0.00  0.00    +0.029 A 
ATOM     27  C   UNL     1       3.612   0.922  22.824  0.00  0.00    +0.029 A 
ATOM     28  C   UNL     1       4.857  -1.367  23.819  0.00  0.00    +0.005 A 
ATOM     29  C   UNL     1       5.001   0.881  22.944  0.00  0.00    +0.005 A 
ATOM     30  C   UNL     1       5.623  -0.264  23.442  0.00  0.00    -0.050 A 
ATOM     31  C   UNL     1       7.109  -0.309  23.570  0.00  0.00    +0.044 C 
ENDBRANCH   1  23
ENDBRANCH   6   1
ENDBRANCH  15   6
ENDBRANCH   9  15
TORSDOF 6
ENDMDL
MODEL 4
REMARK VINA RESULT:       2.2      1.058      1.732
REMARK  Name = 25389266
REMARK  7 active torsions:
REMARK  status: ('A' for Active; 'I' for Inactive)
REMARK    1  A    between atoms: S_1  and  N_6
REMARK    2  A    between atoms: S_1  and  C_23
REMARK    3  A    between atoms: N_5  and  C_14
REMARK    4  A    between atoms: N_6  and  C_15
REMARK    5  A    between atoms: C_8  and  C_14
REMARK    6  A    between atoms: C_9  and  C_15
REMARK    7  A    between atoms: C_30  and  C_31
REMARK                            x       y       z     vdW  Elec       q    Type
REMARK                         _______ _______ _______ _____ _____    ______ ____
ROOT
ATOM      4  N   UNL     1      -2.086  -3.070  24.877  0.00  0.00    -0.298 NA
ATOM      7  C   UNL     1      -3.359  -0.865  25.416  0.00  0.00    -0.003 C 
ATOM      8  C   UNL     1      -3.722  -1.382  24.005  0.00  0.00    +0.020 C 
ATOM      9  C   UNL     1      -1.127  -2.025  25.325  0.00  0.00    +0.072 C 
ATOM     10  C   UNL     1      -1.835  -0.663  25.509  0.00  0.00    +0.024 C 
ATOM     11  C   UNL     1      -2.834  -2.604  23.683  0.00  0.00    +0.089 C 
ATOM     12  C   UNL     1      -3.732  -1.982  26.410  0.00  0.00    +0.019 C 
ATOM     13  C   UNL     1      -3.061  -3.296  25.972  0.00  0.00    +0.085 C 
ENDROOT
BRANCH   8  14
ATOM     14  C   UNL     1      -3.613  -0.307  22.925  0.00  0.00    +0.089 C 
BRANCH  14   5
ATOM      5  N   UNL     1      -3.785   1.027  23.499  0.00  0.00    -0.298 NA
ATOM     16  C   UNL     1      -4.720   0.992  24.631  0.00  0.00    +0.089 C 
ATOM     17  C   UNL     1      -2.486   1.572  23.930  0.00  0.00    +0.119 C 
ATOM     18  C   UNL     1      -5.046   2.419  25.081  0.00  0.00    +0.051 C 
ATOM     19  C   UNL     1      -2.602   2.891  24.660  0.00  0.00    -0.030 A 
ATOM     20  C   UNL     1      -3.818   3.274  25.249  0.00  0.00    -0.042 A 
ATOM     21  C   UNL     1      -1.474   3.709  24.808  0.00  0.00    +0.005 A 
ATOM     22  C   UNL     1      -3.899   4.488  25.944  0.00  0.00    +0.004 A 
ATOM     24  C   UNL     1      -1.562   4.911  25.509  0.00  0.00    +0.000 A 
ATOM     25  C   UNL     1      -2.773   5.301  26.075  0.00  0.00    +0.000 A 
ENDBRANCH  14   5
ENDBRANCH   8  14
BRANCH   9  15
ATOM     15  C   UNL     1       0.088  -1.913  24.403  0.00  0.00    +0.124 C 
BRANCH  15   6
ATOM      6  N   UNL     1       0.558  -0.540  24.332  0.00  0.00    -0.188 NA
ATOM     32  H   UNL     1       0.138   0.125  24.992  0.00  0.00    +0.148 HD
BRANCH   6   1
ATOM      1  S   UNL     1       1.127   0.115  22.855  0.00  0.00    +0.058 S 
ATOM      2  O   UNL     1       0.776   1.520  22.796  0.00  0.00    -0.153 OA
ATOM      3  O   UNL     1       0.776  -0.772  21.762  0.00  0.00    -0.153 OA
BRANCH   1  23
ATOM     23  C   UNL     1       2.878  -0.000  23.070  0.00  0.00    +0.105 A 
ATOM     26  C   UNL     1       3.697   1.071  22.714  0.00  0.00    +0.029 A 
ATOM     27  C   UNL     1       3.441  -1.165  23.593  0.00  0.00    +0.029 A 
ATOM     28  C   UNL     1       5.079   0.978  22.882  0.00  0.00    +0.005 A 
ATOM     29  C   UNL     1       4.823  -1.258  23.760  0.00  0.00    +0.005 A 
ATOM     30  C   UNL     1       5.641  -0.186  23.404  0.00  0.00    -0.050 A 
ATOM     31  C   UNL     1       7.119  -0.285  23.583  0.00  0.00    +0.044 C 
ENDBRANCH   1  23
ENDBRANCH   6   1
ENDBRANCH  15   6
ENDBRANCH   9  15
TORSDOF 6
ENDMDL
MODEL 5
REMARK VINA RESULT:       2.6      1.299      2.214
REMARK  Name = 25389266
REMARK  7 active torsions:
REMARK  status: ('A' for Active; 'I' for Inactive)
REMARK    1  A    between atoms: S_1  and  N_6
REMARK    2  A    between atoms: S_1  and  C_23
REMARK    3  A    between atoms: N_5  and  C_14
REMARK    4  A    between atoms: N_6  and  C_15
REMARK    5  A    between atoms: C_8  and  C_14
REMARK    6  A    between atoms: C_9  and  C_15
REMARK    7  A    between atoms: C_30  and  C_31
REMARK                            x       y       z     vdW  Elec       q    Type
REMARK                         _______ _______ _______ _____ _____    ______ ____
ROOT
ATOM      4  N   UNL     1      -1.233  -2.568  24.928  0.00  0.00    -0.298 NA
ATOM      7  C   UNL     1      -3.647  -1.907  25.638  0.00  0.00    -0.003 C 
ATOM      8  C   UNL     1      -3.560  -2.120  24.109  0.00  0.00    +0.020 C 
ATOM      9  C   UNL     1      -1.200  -1.330  25.752  0.00  0.00    +0.072 C 
ATOM     10  C   UNL     1      -2.630  -0.831  26.062  0.00  0.00    +0.024 C 
ATOM     11  C   UNL     1      -2.083  -2.366  23.729  0.00  0.00    +0.089 C 
ATOM     12  C   UNL     1      -3.214  -3.230  26.299  0.00  0.00    +0.019 C 
ATOM     13  C   UNL     1      -1.839  -3.646  25.747  0.00  0.00    +0.085 C 
ENDROOT
BRANCH   8  14
ATOM     14  C   UNL     1      -4.164  -0.969  23.307  0.00  0.00    +0.089 C 
BRANCH  14   5
ATOM      5  N   UNL     1      -3.768   0.321  23.868  0.00  0.00    -0.298 NA
ATOM     16  C   UNL     1      -3.003   1.104  22.889  0.00  0.00    +0.089 C 
ATOM     17  C   UNL     1      -4.954   1.076  24.307  0.00  0.00    +0.119 C 
ATOM     18  C   UNL     1      -2.423   2.353  23.559  0.00  0.00    +0.051 C 
ATOM     19  C   UNL     1      -4.634   2.479  24.772  0.00  0.00    -0.030 A 
ATOM     20  C   UNL     1      -3.440   3.106  24.375  0.00  0.00    -0.042 A 
ATOM     21  C   UNL     1      -5.560   3.186  25.550  0.00  0.00    +0.005 A 
ATOM     22  C   UNL     1      -3.173   4.415  24.794  0.00  0.00    +0.004 A 
ATOM     24  C   UNL     1      -5.289   4.493  25.955  0.00  0.00    +0.000 A 
ATOM     25  C   UNL     1      -4.097   5.106  25.578  0.00  0.00    +0.000 A 
ENDBRANCH  14   5
ENDBRANCH   8  14
BRANCH   9  15
ATOM     15  C   UNL     1      -0.340  -0.232  25.123  0.00  0.00    +0.124 C 
BRANCH  15   6
ATOM      6  N   UNL     1       0.537  -0.783  24.104  0.00  0.00    -0.188 NA
ATOM     32  H   UNL     1       1.110  -1.590  24.378  0.00  0.00    +0.148 HD
BRANCH   6   1
ATOM      1  S   UNL     1       1.173   0.213  22.864  0.00  0.00    +0.058 S 
ATOM      2  O   UNL     1       0.826   1.593  23.144  0.00  0.00    -0.153 OA
ATOM      3  O   UNL     1       0.870  -0.367  21.570  0.00  0.00    -0.153 OA
BRANCH   1  23
ATOM     23  C   UNL     1       2.912   0.026  23.119  0.00  0.00    +0.105 A 
ATOM     26  C   UNL     1       3.773   1.095  22.869  0.00  0.00    +0.029 A 
ATOM     27  C   UNL     1       3.424  -1.192  23.567  0.00  0.00    +0.029 A 
ATOM     28  C   UNL     1       5.145   0.946  23.068  0.00  0.00    +0.005 A 
ATOM     29  C   UNL     1       4.797  -1.341  23.765  0.00  0.00    +0.005 A 
ATOM     30  C   UNL     1       5.657  -0.272  23.516  0.00  0.00    -0.050 A 
ATOM     31  C   UNL     1       7.125  -0.431  23.728  0.00  0.00    +0.044 C 
ENDBRANCH   1  23
ENDBRANCH   6   1
ENDBRANCH  15   6
ENDBRANCH   9  15
TORSDOF 6
ENDMDL
