MODEL 1
REMARK VINA RESULT:      -3.7      0.000      0.000
REMARK  Name = 38028312
REMARK  11 active torsions:
REMARK  status: ('A' for Active; 'I' for Inactive)
REMARK    1  A    between atoms: N_3  and  C_15
REMARK    2  A    between atoms: N_4  and  C_22
REMARK    3  A    between atoms: C_8  and  C_12
REMARK    4  A    between atoms: C_9  and  C_15
REMARK    5  A    between atoms: C_11  and  C_16
REMARK    6  A    between atoms: C_12  and  C_17
REMARK    7  A    between atoms: C_12  and  C_18
REMARK    8  A    between atoms: C_13  and  C_19
REMARK    9  A    between atoms: C_16  and  C_20
REMARK   10  A    between atoms: C_21  and  C_23
REMARK   11  A    between atoms: C_22  and  C_24
REMARK                            x       y       z     vdW  Elec       q    Type
REMARK                         _______ _______ _______ _____ _____    ______ ____
ROOT
ATOM      8  C   UNL     1      -1.820   0.556  24.883  0.00  0.00    +0.000 C 
ATOM      9  C   UNL     1      -0.892  -0.652  24.596  0.00  0.00    +0.032 C 
ATOM     10  C   UNL     1      -2.917   0.164  25.883  0.00  0.00    +0.012 C 
ATOM     11  C   UNL     1      -3.780  -1.005  25.372  0.00  0.00    +0.023 C 
ATOM     13  C   UNL     1      -2.933  -2.133  24.820  0.00  0.00    -0.073 C 
ATOM     14  C   UNL     1      -1.640  -1.959  24.491  0.00  0.00    -0.022 C 
ATOM     19  C   UNL     1      -3.593  -3.478  24.697  0.00  0.00    +0.039 C 
ENDROOT
BRANCH   8  12
ATOM     12  C   UNL     1      -1.037   1.759  25.418  0.00  0.00    -0.013 C 
ATOM     17  C   UNL     1      -0.210   2.395  24.306  0.00  0.00    +0.007 C 
ATOM     18  C   UNL     1      -0.146   1.339  26.583  0.00  0.00    +0.007 C 
ENDBRANCH   8  12
BRANCH   9  15
ATOM     15  C   UNL     1      -0.072  -0.428  23.320  0.00  0.00    +0.112 C 
BRANCH  15   3
ATOM      2  O   UNL     1       2.071  -0.148  21.430  0.00  0.00    -0.268 OA
ATOM      3  N   UNL     1       1.327  -0.403  23.614  0.00  0.00    -0.309 N 
ATOM     21  C   UNL     1       2.305  -0.262  22.630  0.00  0.00    +0.264 C 
ATOM     32  H   UNL     1       1.619  -0.450  24.586  0.00  0.00    +0.149 HD
BRANCH  21  23
ATOM      5  N   UNL     1       4.145  -1.420  23.676  0.00  0.00    -0.247 NA
ATOM      7  N   UNL     1       5.818   0.810  23.363  0.00  0.00    -0.259 NA
ATOM     23  C   UNL     1       3.716  -0.281  23.095  0.00  0.00    +0.143 A 
ATOM     25  C   UNL     1       4.537   0.814  22.942  0.00  0.00    +0.143 A 
ATOM     27  C   UNL     1       5.426  -1.424  24.097  0.00  0.00    +0.131 A 
ATOM     29  C   UNL     1       6.247  -0.329  23.943  0.00  0.00    +0.130 A 
ENDBRANCH  21  23
ENDBRANCH  15   3
ENDBRANCH   9  15
BRANCH  11  16
ATOM     16  C   UNL     1      -4.798  -0.524  24.331  0.00  0.00    +0.103 C 
BRANCH  16  20
ATOM      1  O   UNL     1      -4.212   1.587  23.304  0.00  0.00    -0.276 OA
ATOM      4  N   UNL     1      -5.554   1.570  25.201  0.00  0.00    -0.310 N 
ATOM     20  C   UNL     1      -4.803   0.981  24.194  0.00  0.00    +0.214 C 
ATOM     33  H   UNL     1      -6.009   0.984  25.895  0.00  0.00    +0.149 HD
BRANCH   4  22
ATOM     22  C   UNL     1      -5.733   2.999  25.320  0.00  0.00    +0.159 C 
BRANCH  22  24
ATOM      6  N   UNL     1      -4.005   4.259  24.167  0.00  0.00    -0.258 NA
ATOM     24  C   UNL     1      -4.420   3.729  25.339  0.00  0.00    +0.058 A 
ATOM     26  C   UNL     1      -3.713   3.822  26.527  0.00  0.00    +0.025 A 
ATOM     28  C   UNL     1      -2.501   4.504  26.511  0.00  0.00    +0.003 A 
ATOM     30  C   UNL     1      -2.823   4.914  24.190  0.00  0.00    +0.111 A 
ATOM     31  C   UNL     1      -2.041   5.064  25.324  0.00  0.00    +0.020 A 
ENDBRANCH  22  24
ENDBRANCH   4  22
ENDBRANCH  16  20
ENDBRANCH  11  16
TORSDOF 8
ENDMDL
MODEL 2
REMARK VINA RESULT:      -3.0      1.890      3.468
REMARK  Name = 38028312
REMARK  11 active torsions:
REMARK  status: ('A' for Active; 'I' for Inactive)
REMARK    1  A    between atoms: N_3  and  C_15
REMARK    2  A    between atoms: N_4  and  C_22
REMARK    3  A    between atoms: C_8  and  C_12
REMARK    4  A    between atoms: C_9  and  C_15
REMARK    5  A    between atoms: C_11  and  C_16
REMARK    6  A    between atoms: C_12  and  C_17
REMARK    7  A    between atoms: C_12  and  C_18
REMARK    8  A    between atoms: C_13  and  C_19
REMARK    9  A    between atoms: C_16  and  C_20
REMARK   10  A    between atoms: C_21  and  C_23
REMARK   11  A    between atoms: C_22  and  C_24
REMARK                            x       y       z     vdW  Elec       q    Type
REMARK                         _______ _______ _______ _____ _____    ______ ____
ROOT
ATOM      8  C   UNL     1      -3.746  -0.597  25.141  0.00  0.00    +0.000 C 
ATOM      9  C   UNL     1      -2.521   0.071  24.468  0.00  0.00    +0.032 C 
ATOM     10  C   UNL     1      -5.022  -0.313  24.334  0.00  0.00    +0.012 C 
ATOM     11  C   UNL     1      -5.301   1.197  24.198  0.00  0.00    +0.023 C 
ATOM     13  C   UNL     1      -4.060   1.965  23.794  0.00  0.00    -0.073 C 
ATOM     14  C   UNL     1      -2.827   1.441  23.910  0.00  0.00    -0.022 C 
ATOM     19  C   UNL     1      -4.271   3.335  23.211  0.00  0.00    +0.039 C 
ENDROOT
BRANCH   8  12
ATOM     12  C   UNL     1      -3.557  -2.109  25.294  0.00  0.00    -0.013 C 
ATOM     17  C   UNL     1      -2.089  -2.440  25.538  0.00  0.00    +0.007 C 
ATOM     18  C   UNL     1      -4.080  -2.839  24.061  0.00  0.00    +0.007 C 
ENDBRANCH   8  12
BRANCH   9  15
ATOM     15  C   UNL     1      -1.340   0.168  25.441  0.00  0.00    +0.112 C 
BRANCH  15   3
ATOM      2  O   UNL     1      -0.349  -1.207  23.124  0.00  0.00    -0.268 OA
ATOM      3  N   UNL     1      -0.126   0.444  24.739  0.00  0.00    -0.309 N 
ATOM     21  C   UNL     1       0.282  -0.276  23.616  0.00  0.00    +0.264 C 
ATOM     32  H   UNL     1       0.446   1.225  25.049  0.00  0.00    +0.149 HD
BRANCH  21  23
ATOM      5  N   UNL     1       2.334   0.989  23.720  0.00  0.00    -0.247 NA
ATOM      7  N   UNL     1       3.172  -0.033  21.246  0.00  0.00    -0.259 NA
ATOM     23  C   UNL     1       1.584   0.117  23.017  0.00  0.00    +0.143 A 
ATOM     25  C   UNL     1       1.995  -0.385  21.802  0.00  0.00    +0.143 A 
ATOM     27  C   UNL     1       3.510   1.341  23.165  0.00  0.00    +0.131 A 
ATOM     29  C   UNL     1       3.922   0.838  21.950  0.00  0.00    +0.130 A 
ENDBRANCH  21  23
ENDBRANCH  15   3
ENDBRANCH   9  15
BRANCH  11  16
ATOM     16  C   UNL     1      -5.902   1.764  25.488  0.00  0.00    +0.103 C 
BRANCH  16  20
ATOM      1  O   UNL     1      -5.863   4.180  25.631  0.00  0.00    -0.276 OA
ATOM      4  N   UNL     1      -4.067   2.955  26.451  0.00  0.00    -0.310 N 
ATOM     20  C   UNL     1      -5.308   3.107  25.850  0.00  0.00    +0.214 C 
ATOM     33  H   UNL     1      -3.688   2.024  26.591  0.00  0.00    +0.149 HD
BRANCH   4  22
ATOM     22  C   UNL     1      -3.266   4.072  26.900  0.00  0.00    +0.159 C 
BRANCH  22  24
ATOM      6  N   UNL     1      -1.142   3.368  25.954  0.00  0.00    -0.258 NA
ATOM     24  C   UNL     1      -2.097   4.324  25.992  0.00  0.00    +0.058 A 
ATOM     26  C   UNL     1      -2.051   5.497  25.254  0.00  0.00    +0.025 A 
ATOM     28  C   UNL     1      -0.954   5.699  24.423  0.00  0.00    +0.003 A 
ATOM     30  C   UNL     1      -0.091   3.600  25.135  0.00  0.00    +0.111 A 
ATOM     31  C   UNL     1       0.048   4.738  24.356  0.00  0.00    +0.020 A 
ENDBRANCH  22  24
ENDBRANCH   4  22
ENDBRANCH  16  20
ENDBRANCH  11  16
TORSDOF 8
ENDMDL
MODEL 3
REMARK VINA RESULT:      -2.1      2.032      4.843
REMARK  Name = 38028312
REMARK  11 active torsions:
REMARK  status: ('A' for Active; 'I' for Inactive)
REMARK    1  A    between atoms: N_3  and  C_15
REMARK    2  A    between atoms: N_4  and  C_22
REMARK    3  A    between atoms: C_8  and  C_12
REMARK    4  A    between atoms: C_9  and  C_15
REMARK    5  A    between atoms: C_11  and  C_16
REMARK    6  A    between atoms: C_12  and  C_17
REMARK    7  A    between atoms: C_12  and  C_18
REMARK    8  A    between atoms: C_13  and  C_19
REMARK    9  A    between atoms: C_16  and  C_20
REMARK   10  A    between atoms: C_21  and  C_23
REMARK   11  A    between atoms: C_22  and  C_24
REMARK                            x       y       z     vdW  Elec       q    Type
REMARK                         _______ _______ _______ _____ _____    ______ ____
ROOT
ATOM      8  C   UNL     1      -2.819   1.947  24.154  0.00  0.00    +0.000 C 
ATOM      9  C   UNL     1      -1.783   1.966  23.002  0.00  0.00    +0.032 C 
ATOM     10  C   UNL     1      -3.110   3.376  24.636  0.00  0.00    +0.012 C 
ATOM     11  C   UNL     1      -1.840   4.094  25.132  0.00  0.00    +0.023 C 
ATOM     13  C   UNL     1      -0.685   3.928  24.166  0.00  0.00    -0.073 C 
ATOM     14  C   UNL     1      -0.683   2.980  23.212  0.00  0.00    -0.022 C 
ATOM     19  C   UNL     1       0.449   4.907  24.292  0.00  0.00    +0.039 C 
ENDROOT
BRANCH   8  12
ATOM     12  C   UNL     1      -4.125   1.266  23.734  0.00  0.00    -0.013 C 
ATOM     17  C   UNL     1      -5.104   1.224  24.901  0.00  0.00    +0.007 C 
ATOM     18  C   UNL     1      -3.847  -0.139  23.208  0.00  0.00    +0.007 C 
ENDBRANCH   8  12
BRANCH   9  15
ATOM     15  C   UNL     1      -1.165   0.579  22.791  0.00  0.00    +0.112 C 
BRANCH  15   3
ATOM      2  O   UNL     1       0.941  -0.698  21.317  0.00  0.00    -0.268 OA
ATOM      3  N   UNL     1       0.228   0.590  23.110  0.00  0.00    -0.309 N 
ATOM     21  C   UNL     1       1.189  -0.060  22.335  0.00  0.00    +0.264 C 
ATOM     32  H   UNL     1       0.537   1.127  23.916  0.00  0.00    +0.149 HD
BRANCH  21  23
ATOM      5  N   UNL     1       3.113  -1.096  23.358  0.00  0.00    -0.247 NA
ATOM      7  N   UNL     1       4.589   1.280  23.151  0.00  0.00    -0.259 NA
ATOM     23  C   UNL     1       2.592   0.024  22.817  0.00  0.00    +0.143 A 
ATOM     25  C   UNL     1       3.317   1.191  22.716  0.00  0.00    +0.143 A 
ATOM     27  C   UNL     1       4.386  -1.007  23.793  0.00  0.00    +0.131 A 
ATOM     29  C   UNL     1       5.110   0.160  23.691  0.00  0.00    +0.130 A 
ENDBRANCH  21  23
ENDBRANCH  15   3
ENDBRANCH   9  15
BRANCH  11  16
ATOM     16  C   UNL     1      -1.452   3.620  26.537  0.00  0.00    +0.103 C 
BRANCH  16  20
ATOM      1  O   UNL     1       0.715   2.543  26.556  0.00  0.00    -0.276 OA
ATOM      4  N   UNL     1      -1.206   1.247  26.388  0.00  0.00    -0.310 N 
ATOM     20  C   UNL     1      -0.508   2.440  26.498  0.00  0.00    +0.214 C 
ATOM     33  H   UNL     1      -2.221   1.262  26.348  0.00  0.00    +0.149 HD
BRANCH   4  22
ATOM     22  C   UNL     1      -0.559  -0.044  26.327  0.00  0.00    +0.159 C 
BRANCH  22  24
ATOM      6  N   UNL     1      -0.927  -1.891  24.793  0.00  0.00    -0.258 NA
ATOM     24  C   UNL     1      -1.460  -1.096  25.748  0.00  0.00    +0.058 A 
ATOM     26  C   UNL     1      -2.763  -1.201  26.206  0.00  0.00    +0.025 A 
ATOM     28  C   UNL     1      -3.571  -2.186  25.649  0.00  0.00    +0.003 A 
ATOM     30  C   UNL     1      -1.742  -2.837  24.275  0.00  0.00    +0.111 A 
ATOM     31  C   UNL     1      -3.059  -3.025  24.665  0.00  0.00    +0.020 A 
ENDBRANCH  22  24
ENDBRANCH   4  22
ENDBRANCH  16  20
ENDBRANCH  11  16
TORSDOF 8
ENDMDL
MODEL 4
REMARK VINA RESULT:      -1.7      1.752      4.525
REMARK  Name = 38028312
REMARK  11 active torsions:
REMARK  status: ('A' for Active; 'I' for Inactive)
REMARK    1  A    between atoms: N_3  and  C_15
REMARK    2  A    between atoms: N_4  and  C_22
REMARK    3  A    between atoms: C_8  and  C_12
REMARK    4  A    between atoms: C_9  and  C_15
REMARK    5  A    between atoms: C_11  and  C_16
REMARK    6  A    between atoms: C_12  and  C_17
REMARK    7  A    between atoms: C_12  and  C_18
REMARK    8  A    between atoms: C_13  and  C_19
REMARK    9  A    between atoms: C_16  and  C_20
REMARK   10  A    between atoms: C_21  and  C_23
REMARK   11  A    between atoms: C_22  and  C_24
REMARK                            x       y       z     vdW  Elec       q    Type
REMARK                         _______ _______ _______ _____ _____    ______ ____
ROOT
ATOM      8  C   UNL     1      -2.514   2.428  23.400  0.00  0.00    +0.000 C 
ATOM      9  C   UNL     1      -0.985   2.184  23.317  0.00  0.00    +0.032 C 
ATOM     10  C   UNL     1      -2.807   3.921  23.610  0.00  0.00    +0.012 C 
ATOM     11  C   UNL     1      -2.154   4.468  24.894  0.00  0.00    +0.023 C 
ATOM     13  C   UNL     1      -0.707   4.040  25.017  0.00  0.00    -0.073 C 
ATOM     14  C   UNL     1      -0.199   3.025  24.294  0.00  0.00    -0.022 C 
ATOM     19  C   UNL     1       0.158   4.834  25.956  0.00  0.00    +0.039 C 
ENDROOT
BRANCH   8  12
ATOM     12  C   UNL     1      -3.238   1.929  22.146  0.00  0.00    -0.013 C 
ATOM     17  C   UNL     1      -2.246   1.316  21.166  0.00  0.00    +0.007 C 
ATOM     18  C   UNL     1      -4.013   3.068  21.491  0.00  0.00    +0.007 C 
ENDBRANCH   8  12
BRANCH   9  15
ATOM     15  C   UNL     1      -0.650   0.704  23.531  0.00  0.00    +0.112 C 
BRANCH  15   3
ATOM      2  O   UNL     1       1.237  -0.346  21.639  0.00  0.00    -0.268 OA
ATOM      3  N   UNL     1       0.754   0.526  23.734  0.00  0.00    -0.309 N 
ATOM     21  C   UNL     1       1.602   0.007  22.756  0.00  0.00    +0.264 C 
ATOM     32  H   UNL     1       1.158   0.827  24.617  0.00  0.00    +0.149 HD
BRANCH  21  23
ATOM      5  N   UNL     1       3.803   0.959  23.016  0.00  0.00    -0.247 NA
ATOM      7  N   UNL     1       4.833  -1.490  23.916  0.00  0.00    -0.259 NA
ATOM     23  C   UNL     1       3.032  -0.140  23.133  0.00  0.00    +0.143 A 
ATOM     25  C   UNL     1       3.538  -1.343  23.574  0.00  0.00    +0.143 A 
ATOM     27  C   UNL     1       5.099   0.812  23.358  0.00  0.00    +0.131 A 
ATOM     29  C   UNL     1       5.604  -0.390  23.800  0.00  0.00    +0.130 A 
ENDBRANCH  21  23
ENDBRANCH  15   3
ENDBRANCH   9  15
BRANCH  11  16
ATOM     16  C   UNL     1      -2.954   4.061  26.136  0.00  0.00    +0.103 C 
BRANCH  16  20
ATOM      1  O   UNL     1      -5.299   3.811  25.595  0.00  0.00    -0.276 OA
ATOM      4  N   UNL     1      -3.941   1.929  25.695  0.00  0.00    -0.310 N 
ATOM     20  C   UNL     1      -4.203   3.288  25.779  0.00  0.00    +0.214 C 
ATOM     33  H   UNL     1      -2.999   1.589  25.864  0.00  0.00    +0.149 HD
BRANCH   4  22
ATOM     22  C   UNL     1      -4.952   0.948  25.371  0.00  0.00    +0.159 C 
BRANCH  22  24
ATOM      6  N   UNL     1      -3.587  -0.942  26.053  0.00  0.00    -0.258 NA
ATOM     24  C   UNL     1      -4.355  -0.399  25.082  0.00  0.00    +0.058 A 
ATOM     26  C   UNL     1      -4.611  -1.008  23.864  0.00  0.00    +0.025 A 
ATOM     28  C   UNL     1      -4.043  -2.255  23.628  0.00  0.00    +0.003 A 
ATOM     30  C   UNL     1      -3.052  -2.155  25.788  0.00  0.00    +0.111 A 
ATOM     31  C   UNL     1      -3.248  -2.847  24.603  0.00  0.00    +0.020 A 
ENDBRANCH  22  24
ENDBRANCH   4  22
ENDBRANCH  16  20
ENDBRANCH  11  16
TORSDOF 8
ENDMDL
MODEL 5
REMARK VINA RESULT:      -1.6      1.825      7.302
REMARK  Name = 38028312
REMARK  11 active torsions:
REMARK  status: ('A' for Active; 'I' for Inactive)
REMARK    1  A    between atoms: N_3  and  C_15
REMARK    2  A    between atoms: N_4  and  C_22
REMARK    3  A    between atoms: C_8  and  C_12
REMARK    4  A    between atoms: C_9  and  C_15
REMARK    5  A    between atoms: C_11  and  C_16
REMARK    6  A    between atoms: C_12  and  C_17
REMARK    7  A    between atoms: C_12  and  C_18
REMARK    8  A    between atoms: C_13  and  C_19
REMARK    9  A    between atoms: C_16  and  C_20
REMARK   10  A    between atoms: C_21  and  C_23
REMARK   11  A    between atoms: C_22  and  C_24
REMARK                            x       y       z     vdW  Elec       q    Type
REMARK                         _______ _______ _______ _____ _____    ______ ____
ROOT
ATOM      8  C   UNL     1      -3.499   3.403  25.600  0.00  0.00    +0.000 C 
ATOM      9  C   UNL     1      -3.544   3.826  24.110  0.00  0.00    +0.032 C 
ATOM     10  C   UNL     1      -2.393   4.168  26.342  0.00  0.00    +0.012 C 
ATOM     11  C   UNL     1      -1.002   3.928  25.723  0.00  0.00    +0.023 C 
ATOM     13  C   UNL     1      -1.025   4.064  24.215  0.00  0.00    -0.073 C 
ATOM     14  C   UNL     1      -2.172   4.030  23.512  0.00  0.00    -0.022 C 
ATOM     19  C   UNL     1       0.296   4.289  23.534  0.00  0.00    +0.039 C 
ENDROOT
BRANCH   8  12
ATOM     12  C   UNL     1      -4.843   3.631  26.297  0.00  0.00    -0.013 C 
ATOM     17  C   UNL     1      -5.522   2.299  26.597  0.00  0.00    +0.007 C 
ATOM     18  C   UNL     1      -5.743   4.517  25.441  0.00  0.00    +0.007 C 
ENDBRANCH   8  12
BRANCH   9  15
ATOM     15  C   UNL     1      -4.322   2.808  23.270  0.00  0.00    +0.112 C 
BRANCH  15   3
ATOM      2  O   UNL     1      -5.961   0.795  24.496  0.00  0.00    -0.268 OA
ATOM      3  N   UNL     1      -3.930   1.473  23.600  0.00  0.00    -0.309 N 
ATOM     21  C   UNL     1      -4.794   0.555  24.197  0.00  0.00    +0.264 C 
ATOM     32  H   UNL     1      -2.993   1.167  23.354  0.00  0.00    +0.149 HD
BRANCH  21  23
ATOM      5  N   UNL     1      -4.302  -1.709  23.524  0.00  0.00    -0.247 NA
ATOM      7  N   UNL     1      -3.143  -2.273  26.015  0.00  0.00    -0.259 NA
ATOM     23  C   UNL     1      -4.227  -0.784  24.502  0.00  0.00    +0.143 A 
ATOM     25  C   UNL     1      -3.659  -1.061  25.725  0.00  0.00    +0.143 A 
ATOM     27  C   UNL     1      -3.787  -2.920  23.813  0.00  0.00    +0.131 A 
ATOM     29  C   UNL     1      -3.218  -3.197  25.036  0.00  0.00    +0.130 A 
ENDBRANCH  21  23
ENDBRANCH  15   3
ENDBRANCH   9  15
BRANCH  11  16
ATOM     16  C   UNL     1      -0.441   2.564  26.141  0.00  0.00    +0.103 C 
BRANCH  16  20
ATOM      1  O   UNL     1      -1.362   0.960  24.581  0.00  0.00    -0.276 OA
ATOM      4  N   UNL     1       0.891   1.515  24.456  0.00  0.00    -0.310 N 
ATOM     20  C   UNL     1      -0.389   1.592  24.984  0.00  0.00    +0.214 C 
ATOM     33  H   UNL     1       1.634   2.079  24.858  0.00  0.00    +0.149 HD
BRANCH   4  22
ATOM     22  C   UNL     1       1.235   0.661  23.341  0.00  0.00    +0.159 C 
BRANCH  22  24
ATOM      6  N   UNL     1       3.567   1.268  23.037  0.00  0.00    -0.258 NA
ATOM     24  C   UNL     1       2.690   0.289  23.349  0.00  0.00    +0.058 A 
ATOM     26  C   UNL     1       3.056  -1.009  23.666  0.00  0.00    +0.025 A 
ATOM     28  C   UNL     1       4.411  -1.322  23.664  0.00  0.00    +0.003 A 
ATOM     30  C   UNL     1       4.876   0.928  23.044  0.00  0.00    +0.111 A 
ATOM     31  C   UNL     1       5.345  -0.340  23.349  0.00  0.00    +0.020 A 
ENDBRANCH  22  24
ENDBRANCH   4  22
ENDBRANCH  16  20
ENDBRANCH  11  16
TORSDOF 8
ENDMDL
MODEL 6
REMARK VINA RESULT:      -1.5      1.834      4.665
REMARK  Name = 38028312
REMARK  11 active torsions:
REMARK  status: ('A' for Active; 'I' for Inactive)
REMARK    1  A    between atoms: N_3  and  C_15
REMARK    2  A    between atoms: N_4  and  C_22
REMARK    3  A    between atoms: C_8  and  C_12
REMARK    4  A    between atoms: C_9  and  C_15
REMARK    5  A    between atoms: C_11  and  C_16
REMARK    6  A    between atoms: C_12  and  C_17
REMARK    7  A    between atoms: C_12  and  C_18
REMARK    8  A    between atoms: C_13  and  C_19
REMARK    9  A    between atoms: C_16  and  C_20
REMARK   10  A    between atoms: C_21  and  C_23
REMARK   11  A    between atoms: C_22  and  C_24
REMARK                            x       y       z     vdW  Elec       q    Type
REMARK                         _______ _______ _______ _____ _____    ______ ____
ROOT
ATOM      8  C   UNL     1      -2.854   2.342  24.122  0.00  0.00    +0.000 C 
ATOM      9  C   UNL     1      -1.634   2.975  24.837  0.00  0.00    +0.032 C 
ATOM     10  C   UNL     1      -3.956   3.391  23.912  0.00  0.00    +0.012 C 
ATOM     11  C   UNL     1      -4.434   4.008  25.240  0.00  0.00    +0.023 C 
ATOM     13  C   UNL     1      -3.272   4.415  26.123  0.00  0.00    -0.073 C 
ATOM     14  C   UNL     1      -2.025   3.954  25.919  0.00  0.00    -0.022 C 
ATOM     19  C   UNL     1      -3.567   5.402  27.218  0.00  0.00    +0.039 C 
ENDROOT
BRANCH   8  12
ATOM     12  C   UNL     1      -2.466   1.721  22.777  0.00  0.00    -0.013 C 
ATOM     17  C   UNL     1      -2.843   2.654  21.631  0.00  0.00    +0.007 C 
ATOM     18  C   UNL     1      -3.131   0.359  22.607  0.00  0.00    +0.007 C 
ENDBRANCH   8  12
BRANCH   9  15
ATOM     15  C   UNL     1      -0.719   1.897  25.429  0.00  0.00    +0.112 C 
BRANCH  15   3
ATOM      2  O   UNL     1      -0.133  -0.381  23.784  0.00  0.00    -0.268 OA
ATOM      3  N   UNL     1       0.439   1.710  24.612  0.00  0.00    -0.309 N 
ATOM     21  C   UNL     1       0.645   0.566  23.840  0.00  0.00    +0.264 C 
ATOM     32  H   UNL     1       1.123   2.459  24.561  0.00  0.00    +0.149 HD
BRANCH  21  23
ATOM      5  N   UNL     1       2.986   1.108  23.623  0.00  0.00    -0.247 NA
ATOM      7  N   UNL     1       3.122  -0.167  21.128  0.00  0.00    -0.259 NA
ATOM     23  C   UNL     1       1.912   0.512  23.066  0.00  0.00    +0.143 A 
ATOM     25  C   UNL     1       1.979  -0.114  21.841  0.00  0.00    +0.143 A 
ATOM     27  C   UNL     1       4.129   1.055  22.910  0.00  0.00    +0.131 A 
ATOM     29  C   UNL     1       4.195   0.429  21.686  0.00  0.00    +0.130 A 
ENDBRANCH  21  23
ENDBRANCH  15   3
ENDBRANCH   9  15
BRANCH  11  16
ATOM     16  C   UNL     1      -5.379   3.056  25.982  0.00  0.00    +0.103 C 
BRANCH  16  20
ATOM      1  O   UNL     1      -6.636   1.861  24.294  0.00  0.00    -0.276 OA
ATOM      4  N   UNL     1      -4.958   0.761  25.466  0.00  0.00    -0.310 N 
ATOM     20  C   UNL     1      -5.748   1.854  25.143  0.00  0.00    +0.214 C 
ATOM     33  H   UNL     1      -4.247   0.851  26.185  0.00  0.00    +0.149 HD
BRANCH   4  22
ATOM     22  C   UNL     1      -5.092  -0.527  24.823  0.00  0.00    +0.159 C 
BRANCH  22  24
ATOM      6  N   UNL     1      -2.885  -0.878  25.775  0.00  0.00    -0.258 NA
ATOM     24  C   UNL     1      -3.836  -1.343  24.935  0.00  0.00    +0.058 A 
ATOM     26  C   UNL     1      -3.714  -2.506  24.191  0.00  0.00    +0.025 A 
ATOM     28  C   UNL     1      -2.539  -3.238  24.318  0.00  0.00    +0.003 A 
ATOM     30  C   UNL     1      -1.756  -1.616  25.872  0.00  0.00    +0.111 A 
ATOM     31  C   UNL     1      -1.536  -2.792  25.172  0.00  0.00    +0.020 A 
ENDBRANCH  22  24
ENDBRANCH   4  22
ENDBRANCH  16  20
ENDBRANCH  11  16
TORSDOF 8
ENDMDL
