MODEL 1
REMARK VINA RESULT:      -2.3      0.000      0.000
REMARK  Name = 45361019
REMARK  8 active torsions:
REMARK  status: ('A' for Active; 'I' for Inactive)
REMARK    1  A    between atoms: N_4  and  C_19
REMARK    2  A    between atoms: N_5  and  C_17
REMARK    3  A    between atoms: N_9  and  C_25
REMARK    4  A    between atoms: C_14  and  C_18
REMARK    5  A    between atoms: C_17  and  C_21
REMARK    6  A    between atoms: C_18  and  C_20
REMARK    7  A    between atoms: C_20  and  C_22
REMARK    8  A    between atoms: C_25  and  C_26
REMARK                            x       y       z     vdW  Elec       q    Type
REMARK                         _______ _______ _______ _____ _____    ______ ____
ROOT
ATOM      2  O   UNL     1      -6.710  -9.189  15.659  0.00  0.00    -0.274 OA
ATOM      4  N   UNL     1      -9.579  -8.880  13.079  0.00  0.00    -0.296 NA
ATOM      5  N   UNL     1      -9.174  -9.763  16.607  0.00  0.00    -0.283 NA
ATOM      6  N   UNL     1      -7.050 -10.159  13.615  0.00  0.00    -0.312 N 
ATOM     10  C   UNL     1      -9.989  -9.555  14.330  0.00  0.00    +0.084 C 
ATOM     11  C   UNL     1      -8.886 -10.191  15.225  0.00  0.00    +0.161 C 
ATOM     12  C   UNL     1     -10.718  -8.634  15.326  0.00  0.00    +0.036 C 
ATOM     13  C   UNL     1     -10.575  -9.360  16.647  0.00  0.00    +0.087 C 
ATOM     14  C   UNL     1      -8.950  -9.777  12.071  0.00  0.00    +0.074 C 
ATOM     15  C   UNL     1      -7.456  -9.779  14.880  0.00  0.00    +0.232 C 
ATOM     16  C   UNL     1      -7.929 -10.781  12.644  0.00  0.00    +0.123 C 
ATOM     19  C   UNL     1     -10.713  -8.156  12.478  0.00  0.00    +0.105 C 
ATOM     30  H   UNL     1      -6.101  -9.935  13.330  0.00  0.00    +0.149 HD
ENDROOT
BRANCH   5  17
ATOM     17  C   UNL     1      -8.866 -10.781  17.602  0.00  0.00    +0.159 C 
BRANCH  17  21
ATOM      7  N   UNL     1      -6.371 -10.768  17.782  0.00  0.00    -0.347 N 
ATOM      8  N   UNL     1      -7.471  -9.949  19.529  0.00  0.00    -0.239 NA
ATOM     21  C   UNL     1      -7.589 -10.485  18.333  0.00  0.00    +0.121 A 
ATOM     23  C   UNL     1      -5.415 -10.388  18.681  0.00  0.00    +0.104 A 
ATOM     24  C   UNL     1      -6.118  -9.886  19.751  0.00  0.00    +0.130 A 
ATOM     31  H   UNL     1      -6.204 -11.185  16.875  0.00  0.00    +0.167 HD
ENDBRANCH  17  21
ENDBRANCH   5  17
BRANCH  14  18
ATOM     18  C   UNL     1      -8.228  -8.950  10.987  0.00  0.00    +0.029 C 
BRANCH  18  20
ATOM     20  C   UNL     1      -7.525  -9.861   9.996  0.00  0.00    +0.097 C 
BRANCH  20  22
ATOM      3  O   UNL     1      -5.618  -8.447   9.522  0.00  0.00    -0.276 OA
ATOM      9  N   UNL     1      -5.258 -10.617  10.260  0.00  0.00    -0.311 N 
ATOM     22  C   UNL     1      -6.046  -9.536   9.891  0.00  0.00    +0.213 C 
ATOM     32  H   UNL     1      -5.701 -11.479  10.568  0.00  0.00    +0.149 HD
BRANCH   9  25
ATOM     25  C   UNL     1      -3.815 -10.561  10.244  0.00  0.00    +0.146 C 
BRANCH  25  26
ATOM      1  S   UNL     1      -1.643  -9.885  11.839  0.00  0.00    -0.100 S 
ATOM     26  C   UNL     1      -3.242 -10.460  11.628  0.00  0.00    +0.007 A 
ATOM     27  C   UNL     1      -3.838 -10.781  12.828  0.00  0.00    +0.013 A 
ATOM     28  C   UNL     1      -2.971 -10.550  13.934  0.00  0.00    +0.008 A 
ATOM     29  C   UNL     1      -1.745 -10.062  13.538  0.00  0.00    +0.045 A 
ENDBRANCH  25  26
ENDBRANCH   9  25
ENDBRANCH  20  22
ENDBRANCH  18  20
ENDBRANCH  14  18
TORSDOF 7
ENDMDL
MODEL 2
REMARK VINA RESULT:      -1.8     15.023     17.264
REMARK  Name = 45361019
REMARK  8 active torsions:
REMARK  status: ('A' for Active; 'I' for Inactive)
REMARK    1  A    between atoms: N_4  and  C_19
REMARK    2  A    between atoms: N_5  and  C_17
REMARK    3  A    between atoms: N_9  and  C_25
REMARK    4  A    between atoms: C_14  and  C_18
REMARK    5  A    between atoms: C_17  and  C_21
REMARK    6  A    between atoms: C_18  and  C_20
REMARK    7  A    between atoms: C_20  and  C_22
REMARK    8  A    between atoms: C_25  and  C_26
REMARK                            x       y       z     vdW  Elec       q    Type
REMARK                         _______ _______ _______ _____ _____    ______ ____
ROOT
ATOM      2  O   UNL     1      -0.496   2.014  23.794  0.00  0.00    -0.274 OA
ATOM      4  N   UNL     1      -2.797  -0.679  25.358  0.00  0.00    -0.296 NA
ATOM      5  N   UNL     1       0.513  -0.491  23.809  0.00  0.00    -0.283 NA
ATOM      6  N   UNL     1      -2.640   1.365  23.327  0.00  0.00    -0.312 N 
ATOM     10  C   UNL     1      -1.643  -1.248  24.628  0.00  0.00    +0.084 C 
ATOM     11  C   UNL     1      -0.935  -0.368  23.556  0.00  0.00    +0.161 C 
ATOM     12  C   UNL     1      -0.467  -1.652  25.538  0.00  0.00    +0.036 C 
ATOM     13  C   UNL     1       0.710  -1.708  24.588  0.00  0.00    +0.087 C 
ATOM     14  C   UNL     1      -3.973  -0.363  24.500  0.00  0.00    +0.074 C 
ATOM     15  C   UNL     1      -1.307   1.112  23.588  0.00  0.00    +0.232 C 
ATOM     16  C   UNL     1      -3.635   0.323  23.162  0.00  0.00    +0.123 C 
ATOM     19  C   UNL     1      -3.198  -1.555  26.471  0.00  0.00    +0.105 C 
ATOM     30  H   UNL     1      -2.949   2.332  23.310  0.00  0.00    +0.149 HD
ENDROOT
BRANCH   5  17
ATOM     17  C   UNL     1       1.314  -0.483  22.591  0.00  0.00    +0.159 C 
BRANCH  17  21
ATOM      7  N   UNL     1       3.616  -1.055  23.385  0.00  0.00    -0.347 N 
ATOM      8  N   UNL     1       3.333   1.023  22.656  0.00  0.00    -0.239 NA
ATOM     21  C   UNL     1       2.749  -0.136  22.864  0.00  0.00    +0.121 A 
ATOM     23  C   UNL     1       4.831  -0.444  23.517  0.00  0.00    +0.104 A 
ATOM     24  C   UNL     1       4.631   0.838  23.061  0.00  0.00    +0.130 A 
ATOM     31  H   UNL     1       3.401  -2.013  23.631  0.00  0.00    +0.167 HD
ENDBRANCH  17  21
ENDBRANCH   5  17
BRANCH  14  18
ATOM     18  C   UNL     1      -4.960   0.553  25.254  0.00  0.00    +0.029 C 
BRANCH  18  20
ATOM     20  C   UNL     1      -5.468   1.658  24.345  0.00  0.00    +0.097 C 
BRANCH  20  22
ATOM      3  O   UNL     1      -4.403   3.733  23.695  0.00  0.00    -0.276 OA
ATOM      9  N   UNL     1      -4.500   3.170  25.944  0.00  0.00    -0.311 N 
ATOM     22  C   UNL     1      -4.737   2.965  24.593  0.00  0.00    +0.213 C 
ATOM     32  H   UNL     1      -4.828   2.485  26.620  0.00  0.00    +0.149 HD
BRANCH   9  25
ATOM     25  C   UNL     1      -3.818   4.342  26.439  0.00  0.00    +0.146 C 
BRANCH  25  26
ATOM      1  S   UNL     1      -1.279   3.222  26.288  0.00  0.00    -0.100 S 
ATOM     26  C   UNL     1      -2.417   4.444  25.907  0.00  0.00    +0.007 A 
ATOM     27  C   UNL     1      -1.872   5.430  25.114  0.00  0.00    +0.013 A 
ATOM     28  C   UNL     1      -0.503   5.178  24.814  0.00  0.00    +0.008 A 
ATOM     29  C   UNL     1      -0.053   4.010  25.389  0.00  0.00    +0.045 A 
ENDBRANCH  25  26
ENDBRANCH   9  25
ENDBRANCH  20  22
ENDBRANCH  18  20
ENDBRANCH  14  18
TORSDOF 7
ENDMDL
MODEL 3
REMARK VINA RESULT:      -0.8     14.334     16.454
REMARK  Name = 45361019
REMARK  8 active torsions:
REMARK  status: ('A' for Active; 'I' for Inactive)
REMARK    1  A    between atoms: N_4  and  C_19
REMARK    2  A    between atoms: N_5  and  C_17
REMARK    3  A    between atoms: N_9  and  C_25
REMARK    4  A    between atoms: C_14  and  C_18
REMARK    5  A    between atoms: C_17  and  C_21
REMARK    6  A    between atoms: C_18  and  C_20
REMARK    7  A    between atoms: C_20  and  C_22
REMARK    8  A    between atoms: C_25  and  C_26
REMARK                            x       y       z     vdW  Elec       q    Type
REMARK                         _______ _______ _______ _____ _____    ______ ____
ROOT
ATOM      2  O   UNL     1      -2.686   2.299  22.675  0.00  0.00    -0.274 OA
ATOM      4  N   UNL     1      -2.306  -1.036  24.606  0.00  0.00    -0.296 NA
ATOM      5  N   UNL     1      -4.722   1.701  24.347  0.00  0.00    -0.283 NA
ATOM      6  N   UNL     1      -1.048   1.503  24.060  0.00  0.00    -0.312 N 
ATOM     10  C   UNL     1      -3.403  -0.186  25.118  0.00  0.00    +0.084 C 
ATOM     11  C   UNL     1      -3.367   1.339  24.806  0.00  0.00    +0.161 C 
ATOM     12  C   UNL     1      -4.797  -0.586  24.601  0.00  0.00    +0.036 C 
ATOM     13  C   UNL     1      -5.627   0.660  24.823  0.00  0.00    +0.087 C 
ATOM     14  C   UNL     1      -0.964  -0.713  25.164  0.00  0.00    +0.074 C 
ATOM     15  C   UNL     1      -2.366   1.756  23.732  0.00  0.00    +0.232 C 
ATOM     16  C   UNL     1      -0.644   0.792  25.257  0.00  0.00    +0.123 C 
ATOM     19  C   UNL     1      -2.611  -2.462  24.805  0.00  0.00    +0.105 C 
ATOM     30  H   UNL     1      -0.328   1.776  23.397  0.00  0.00    +0.149 HD
ENDROOT
BRANCH   5  17
ATOM     17  C   UNL     1      -5.140   3.029  24.773  0.00  0.00    +0.159 C 
BRANCH  17  21
ATOM      7  N   UNL     1      -3.198   4.576  24.461  0.00  0.00    -0.347 N 
ATOM      8  N   UNL     1      -3.607   3.947  26.551  0.00  0.00    -0.239 NA
ATOM     21  C   UNL     1      -3.990   3.840  25.297  0.00  0.00    +0.121 A 
ATOM     23  C   UNL     1      -2.251   5.191  25.229  0.00  0.00    +0.104 A 
ATOM     24  C   UNL     1      -2.524   4.788  26.515  0.00  0.00    +0.130 A 
ATOM     31  H   UNL     1      -3.292   4.650  23.456  0.00  0.00    +0.167 HD
ENDBRANCH  17  21
ENDBRANCH   5  17
BRANCH  14  18
ATOM     18  C   UNL     1       0.146  -1.372  24.318  0.00  0.00    +0.029 C 
BRANCH  18  20
ATOM     20  C   UNL     1      -0.096  -1.135  22.838  0.00  0.00    +0.097 C 
BRANCH  20  22
ATOM      3  O   UNL     1       1.336  -0.558  20.973  0.00  0.00    -0.276 OA
ATOM      9  N   UNL     1       1.880   0.211  23.094  0.00  0.00    -0.311 N 
ATOM     22  C   UNL     1       1.101  -0.478  22.175  0.00  0.00    +0.213 C 
ATOM     32  H   UNL     1       1.599   0.236  24.070  0.00  0.00    +0.149 HD
BRANCH   9  25
ATOM     25  C   UNL     1       3.078   0.921  22.711  0.00  0.00    +0.146 C 
BRANCH  25  26
ATOM      1  S   UNL     1       4.281  -1.359  23.747  0.00  0.00    -0.100 S 
ATOM     26  C   UNL     1       4.314   0.290  23.284  0.00  0.00    +0.007 A 
ATOM     27  C   UNL     1       5.544   0.867  23.511  0.00  0.00    +0.013 A 
ATOM     28  C   UNL     1       6.472  -0.058  24.071  0.00  0.00    +0.008 A 
ATOM     29  C   UNL     1       5.916  -1.305  24.252  0.00  0.00    +0.045 A 
ENDBRANCH  25  26
ENDBRANCH   9  25
ENDBRANCH  20  22
ENDBRANCH  18  20
ENDBRANCH  14  18
TORSDOF 7
ENDMDL
MODEL 4
REMARK VINA RESULT:       0.5     14.486     17.191
REMARK  Name = 45361019
REMARK  8 active torsions:
REMARK  status: ('A' for Active; 'I' for Inactive)
REMARK    1  A    between atoms: N_4  and  C_19
REMARK    2  A    between atoms: N_5  and  C_17
REMARK    3  A    between atoms: N_9  and  C_25
REMARK    4  A    between atoms: C_14  and  C_18
REMARK    5  A    between atoms: C_17  and  C_21
REMARK    6  A    between atoms: C_18  and  C_20
REMARK    7  A    between atoms: C_20  and  C_22
REMARK    8  A    between atoms: C_25  and  C_26
REMARK                            x       y       z     vdW  Elec       q    Type
REMARK                         _______ _______ _______ _____ _____    ______ ____
ROOT
ATOM      2  O   UNL     1      -0.770  -1.079  21.983  0.00  0.00    -0.274 OA
ATOM      4  N   UNL     1      -1.146   0.382  25.549  0.00  0.00    -0.296 NA
ATOM      5  N   UNL     1       1.273   0.485  22.805  0.00  0.00    -0.283 NA
ATOM      6  N   UNL     1      -1.101  -2.065  24.021  0.00  0.00    -0.312 N 
ATOM     10  C   UNL     1       0.212   0.554  24.987  0.00  0.00    +0.084 C 
ATOM     11  C   UNL     1       0.659  -0.383  23.827  0.00  0.00    +0.161 C 
ATOM     12  C   UNL     1       0.468   1.950  24.388  0.00  0.00    +0.036 C 
ATOM     13  C   UNL     1       1.650   1.728  23.469  0.00  0.00    +0.087 C 
ATOM     14  C   UNL     1      -1.378  -0.933  26.208  0.00  0.00    +0.074 C 
ATOM     15  C   UNL     1      -0.466  -1.180  23.171  0.00  0.00    +0.232 C 
ATOM     16  C   UNL     1      -0.822  -2.150  25.442  0.00  0.00    +0.123 C 
ATOM     19  C   UNL     1      -1.473   1.480  26.474  0.00  0.00    +0.105 C 
ATOM     30  H   UNL     1      -1.845  -2.643  23.642  0.00  0.00    +0.149 HD
ENDROOT
BRANCH   5  17
ATOM     17  C   UNL     1       2.400  -0.136  22.122  0.00  0.00    +0.159 C 
BRANCH  17  21
ATOM      7  N   UNL     1       4.092  -1.153  23.658  0.00  0.00    -0.347 N 
ATOM      8  N   UNL     1       4.462   0.957  23.073  0.00  0.00    -0.239 NA
ATOM     21  C   UNL     1       3.657  -0.075  22.940  0.00  0.00    +0.121 A 
ATOM     23  C   UNL     1       5.247  -0.787  24.289  0.00  0.00    +0.104 A 
ATOM     24  C   UNL     1       5.454   0.519  23.913  0.00  0.00    +0.130 A 
ATOM     31  H   UNL     1       3.641  -2.058  23.716  0.00  0.00    +0.167 HD
ENDBRANCH  17  21
ENDBRANCH   5  17
BRANCH  14  18
ATOM     18  C   UNL     1      -2.888  -1.170  26.422  0.00  0.00    +0.029 C 
BRANCH  18  20
ATOM     20  C   UNL     1      -3.578  -1.463  25.102  0.00  0.00    +0.097 C 
BRANCH  20  22
ATOM      3  O   UNL     1      -3.663   0.053  23.216  0.00  0.00    -0.276 OA
ATOM      9  N   UNL     1      -4.704   0.659  25.199  0.00  0.00    -0.311 N 
ATOM     22  C   UNL     1      -3.969  -0.186  24.380  0.00  0.00    +0.213 C 
ATOM     32  H   UNL     1      -4.925   0.370  26.148  0.00  0.00    +0.149 HD
BRANCH   9  25
ATOM     25  C   UNL     1      -5.194   1.939  24.745  0.00  0.00    +0.146 C 
BRANCH  25  26
ATOM      1  S   UNL     1      -3.054   3.426  23.782  0.00  0.00    -0.100 S 
ATOM     26  C   UNL     1      -4.203   3.040  24.991  0.00  0.00    +0.007 A 
ATOM     27  C   UNL     1      -4.065   3.834  26.109  0.00  0.00    +0.013 A 
ATOM     28  C   UNL     1      -3.003   4.772  25.969  0.00  0.00    +0.008 A 
ATOM     29  C   UNL     1      -2.369   4.660  24.751  0.00  0.00    +0.045 A 
ENDBRANCH  25  26
ENDBRANCH   9  25
ENDBRANCH  20  22
ENDBRANCH  18  20
ENDBRANCH  14  18
TORSDOF 7
ENDMDL
