MODEL 1
REMARK VINA RESULT:      21.5      0.000      0.000
REMARK  Name = 26745096
REMARK  5 active torsions:
REMARK  status: ('A' for Active; 'I' for Inactive)
REMARK    1  A    between atoms: O_3  and  C_28
REMARK    2  A    between atoms: O_3  and  C_34
REMARK    3  A    between atoms: C_9  and  C_14
REMARK    4  A    between atoms: C_15  and  C_17
REMARK    5  A    between atoms: C_18  and  C_19
REMARK                            x       y       z     vdW  Elec       q    Type
REMARK                         _______ _______ _______ _____ _____    ______ ____
ROOT
ATOM      2  O   UNL     1      -1.896   1.950  26.875  0.00  0.00    -0.270 OA
ATOM      4  N   UNL     1      -2.607   0.527  25.153  0.00  0.00    -0.280 N 
ATOM      5  N   UNL     1      -4.804  -1.776  23.208  0.00  0.00    -0.347 N 
ATOM      6  N   UNL     1      -3.844  -3.375  24.438  0.00  0.00    -0.240 NA
ATOM      9  C   UNL     1      -1.563  -0.509  25.456  0.00  0.00    +0.171 C 
ATOM     10  C   UNL     1      -2.209  -1.907  25.700  0.00  0.00    +0.089 C 
ATOM     11  C   UNL     1      -3.524   0.279  24.004  0.00  0.00    +0.163 C 
ATOM     12  C   UNL     1      -3.290  -2.158  24.720  0.00  0.00    +0.066 A 
ATOM     13  C   UNL     1      -3.867  -1.156  23.979  0.00  0.00    +0.056 A 
ATOM     15  C   UNL     1      -2.632   1.703  25.920  0.00  0.00    +0.248 C 
ATOM     16  C   UNL     1      -4.753  -3.111  23.521  0.00  0.00    +0.197 A 
ATOM     35  H   UNL     1      -5.420  -1.340  22.534  0.00  0.00    +0.167 HD
ENDROOT
BRANCH  15  17
ATOM     17  C   UNL     1      -3.601   2.748  25.559  0.00  0.00    +0.037 A 
ATOM     20  C   UNL     1      -3.198   3.834  24.783  0.00  0.00    +0.016 A 
ATOM     21  C   UNL     1      -4.923   2.653  25.994  0.00  0.00    +0.016 A 
ATOM     25  C   UNL     1      -4.118   4.827  24.441  0.00  0.00    +0.046 A 
ATOM     26  C   UNL     1      -5.843   3.646  25.652  0.00  0.00    +0.046 A 
ATOM     28  C   UNL     1      -5.439   4.733  24.877  0.00  0.00    +0.120 A 
BRANCH  28   3
ATOM      3  O   UNL     1      -6.336   5.700  24.543  0.00  0.00    -0.495 OA
ATOM     34  C   UNL     1      -6.990   6.376  25.616  0.00  0.00    +0.277 C 
ENDBRANCH  28   3
ENDBRANCH  15  17
BRANCH   9  14
ATOM      1  O   UNL     1      -0.798  -0.489  23.123  0.00  0.00    -0.336 OA
ATOM      7  N   UNL     1       0.858  -0.348  24.624  0.00  0.00    -0.190 NA
ATOM      8  N   UNL     1       0.391  -0.415  22.385  0.00  0.00    -0.056 NA
ATOM     14  C   UNL     1      -0.434  -0.443  24.431  0.00  0.00    +0.249 A 
ATOM     18  C   UNL     1       1.321  -0.334  23.341  0.00  0.00    +0.202 A 
BRANCH  18  19
ATOM     19  C   UNL     1       2.722  -0.236  23.046  0.00  0.00    +0.023 A 
ATOM     22  C   UNL     1       3.662  -0.716  23.960  0.00  0.00    +0.020 A 
ATOM     23  C   UNL     1       3.143   0.334  21.849  0.00  0.00    +0.012 A 
ATOM     24  C   UNL     1       5.036  -0.629  23.687  0.00  0.00    -0.017 A 
ATOM     27  C   UNL     1       5.464  -0.047  22.469  0.00  0.00    -0.018 A 
ATOM     29  C   UNL     1       4.505   0.430  21.562  0.00  0.00    +0.009 A 
ATOM     30  C   UNL     1       5.995  -1.106  24.594  0.00  0.00    +0.008 A 
ATOM     31  C   UNL     1       6.839   0.039  22.197  0.00  0.00    +0.008 A 
ATOM     32  C   UNL     1       7.357  -1.012  24.307  0.00  0.00    +0.001 A 
ATOM     33  C   UNL     1       7.778  -0.440  23.110  0.00  0.00    +0.001 A 
ENDBRANCH  18  19
ENDBRANCH   9  14
TORSDOF 4
ENDMDL
MODEL 2
REMARK VINA RESULT:      24.1      2.502      4.335
REMARK  Name = 26745096
REMARK  5 active torsions:
REMARK  status: ('A' for Active; 'I' for Inactive)
REMARK    1  A    between atoms: O_3  and  C_28
REMARK    2  A    between atoms: O_3  and  C_34
REMARK    3  A    between atoms: C_9  and  C_14
REMARK    4  A    between atoms: C_15  and  C_17
REMARK    5  A    between atoms: C_18  and  C_19
REMARK                            x       y       z     vdW  Elec       q    Type
REMARK                         _______ _______ _______ _____ _____    ______ ____
ROOT
ATOM      2  O   UNL     1      -4.167   0.642  22.705  0.00  0.00    -0.270 OA
ATOM      4  N   UNL     1      -2.624   1.932  23.909  0.00  0.00    -0.280 N 
ATOM      5  N   UNL     1      -1.142   4.876  25.655  0.00  0.00    -0.347 N 
ATOM      6  N   UNL     1      -0.334   5.388  23.636  0.00  0.00    -0.240 NA
ATOM      9  C   UNL     1      -1.603   1.902  22.809  0.00  0.00    +0.171 C 
ATOM     10  C   UNL     1      -1.172   3.343  22.398  0.00  0.00    +0.089 C 
ATOM     11  C   UNL     1      -2.270   2.643  25.171  0.00  0.00    +0.163 C 
ATOM     12  C   UNL     1      -0.997   4.195  23.596  0.00  0.00    +0.066 A 
ATOM     13  C   UNL     1      -1.507   3.859  24.826  0.00  0.00    +0.056 A 
ATOM     15  C   UNL     1      -3.833   1.241  23.727  0.00  0.00    +0.248 C 
ATOM     16  C   UNL     1      -0.438   5.774  24.892  0.00  0.00    +0.197 A 
ATOM     35  H   UNL     1      -1.347   4.959  26.642  0.00  0.00    +0.167 HD
ENDROOT
BRANCH  15  17
ATOM     17  C   UNL     1      -4.789   1.204  24.844  0.00  0.00    +0.037 A 
ATOM     20  C   UNL     1      -4.755   0.150  25.756  0.00  0.00    +0.016 A 
ATOM     21  C   UNL     1      -5.729   2.224  24.991  0.00  0.00    +0.016 A 
ATOM     25  C   UNL     1      -5.662   0.114  26.815  0.00  0.00    +0.046 A 
ATOM     26  C   UNL     1      -6.637   2.188  26.050  0.00  0.00    +0.046 A 
ATOM     28  C   UNL     1      -6.604   1.133  26.961  0.00  0.00    +0.120 A 
BRANCH  28   3
ATOM      3  O   UNL     1      -7.489   1.099  27.995  0.00  0.00    -0.495 OA
ATOM     34  C   UNL     1      -7.311   0.069  28.966  0.00  0.00    +0.277 C 
ENDBRANCH  28   3
ENDBRANCH  15  17
BRANCH   9  14
ATOM      1  O   UNL     1      -0.865  -0.299  23.610  0.00  0.00    -0.336 OA
ATOM      7  N   UNL     1       0.813   1.078  23.060  0.00  0.00    -0.190 NA
ATOM      8  N   UNL     1       0.316  -1.012  23.848  0.00  0.00    -0.056 NA
ATOM     14  C   UNL     1      -0.484   0.920  23.148  0.00  0.00    +0.249 A 
ATOM     18  C   UNL     1       1.261  -0.134  23.500  0.00  0.00    +0.202 A 
BRANCH  18  19
ATOM     19  C   UNL     1       2.662  -0.436  23.578  0.00  0.00    +0.023 A 
ATOM     22  C   UNL     1       3.602   0.594  23.516  0.00  0.00    +0.020 A 
ATOM     23  C   UNL     1       3.082  -1.755  23.718  0.00  0.00    +0.012 A 
ATOM     24  C   UNL     1       4.976   0.315  23.593  0.00  0.00    -0.017 A 
ATOM     27  C   UNL     1       5.403  -1.028  23.734  0.00  0.00    -0.018 A 
ATOM     29  C   UNL     1       4.443  -2.051  23.795  0.00  0.00    +0.009 A 
ATOM     30  C   UNL     1       5.935   1.338  23.532  0.00  0.00    +0.008 A 
ATOM     31  C   UNL     1       6.777  -1.306  23.810  0.00  0.00    +0.008 A 
ATOM     32  C   UNL     1       7.297   1.043  23.609  0.00  0.00    +0.001 A 
ATOM     33  C   UNL     1       7.717  -0.277  23.748  0.00  0.00    +0.001 A 
ENDBRANCH  18  19
ENDBRANCH   9  14
TORSDOF 4
ENDMDL
MODEL 3
REMARK VINA RESULT:      24.7      4.234      7.115
REMARK  Name = 26745096
REMARK  5 active torsions:
REMARK  status: ('A' for Active; 'I' for Inactive)
REMARK    1  A    between atoms: O_3  and  C_28
REMARK    2  A    between atoms: O_3  and  C_34
REMARK    3  A    between atoms: C_9  and  C_14
REMARK    4  A    between atoms: C_15  and  C_17
REMARK    5  A    between atoms: C_18  and  C_19
REMARK                            x       y       z     vdW  Elec       q    Type
REMARK                         _______ _______ _______ _____ _____    ______ ____
ROOT
ATOM      2  O   UNL     1      -1.807   0.835  22.278  0.00  0.00    -0.270 OA
ATOM      4  N   UNL     1      -2.992   1.634  24.136  0.00  0.00    -0.280 N 
ATOM      5  N   UNL     1      -5.887   2.581  26.289  0.00  0.00    -0.347 N 
ATOM      6  N   UNL     1      -5.719   4.560  25.263  0.00  0.00    -0.240 NA
ATOM      9  C   UNL     1      -2.485   3.037  23.970  0.00  0.00    +0.171 C 
ATOM     10  C   UNL     1      -3.661   4.056  23.874  0.00  0.00    +0.089 C 
ATOM     11  C   UNL     1      -3.893   1.349  25.290  0.00  0.00    +0.163 C 
ATOM     12  C   UNL     1      -4.718   3.723  24.856  0.00  0.00    +0.066 A 
ATOM     13  C   UNL     1      -4.801   2.498  25.470  0.00  0.00    +0.056 A 
ATOM     15  C   UNL     1      -2.549   0.646  23.241  0.00  0.00    +0.248 C 
ATOM     16  C   UNL     1      -6.407   3.841  26.128  0.00  0.00    +0.197 A 
ATOM     35  H   UNL     1      -6.245   1.857  26.899  0.00  0.00    +0.167 HD
ENDROOT
BRANCH  15  17
ATOM     17  C   UNL     1      -2.982  -0.741  23.466  0.00  0.00    +0.037 A 
ATOM     20  C   UNL     1      -4.296  -1.115  23.187  0.00  0.00    +0.016 A 
ATOM     21  C   UNL     1      -2.078  -1.682  23.959  0.00  0.00    +0.016 A 
ATOM     25  C   UNL     1      -4.707  -2.430  23.401  0.00  0.00    +0.046 A 
ATOM     26  C   UNL     1      -2.490  -2.998  24.174  0.00  0.00    +0.046 A 
ATOM     28  C   UNL     1      -3.805  -3.371  23.895  0.00  0.00    +0.120 A 
BRANCH  28   3
ATOM      3  O   UNL     1      -4.205  -4.655  24.104  0.00  0.00    -0.495 OA
ATOM     34  C   UNL     1      -3.817  -5.622  23.130  0.00  0.00    +0.277 C 
ENDBRANCH  28   3
ENDBRANCH  15  17
BRANCH   9  14
ATOM      1  O   UNL     1      -0.706   4.493  24.834  0.00  0.00    -0.336 OA
ATOM      7  N   UNL     1      -1.026   2.634  26.042  0.00  0.00    -0.190 NA
ATOM      8  N   UNL     1       0.220   4.547  25.883  0.00  0.00    -0.056 NA
ATOM     14  C   UNL     1      -1.399   3.337  25.001  0.00  0.00    +0.249 A 
ATOM     18  C   UNL     1      -0.031   3.417  26.551  0.00  0.00    +0.202 A 
BRANCH  18  19
ATOM     19  C   UNL     1       0.694   3.042  27.731  0.00  0.00    +0.023 A 
ATOM     22  C   UNL     1       0.024   2.916  28.950  0.00  0.00    +0.020 A 
ATOM     23  C   UNL     1       2.062   2.803  27.661  0.00  0.00    +0.012 A 
ATOM     24  C   UNL     1       0.718   2.549  30.113  0.00  0.00    -0.017 A 
ATOM     27  C   UNL     1       2.111   2.307  30.042  0.00  0.00    -0.018 A 
ATOM     29  C   UNL     1       2.768   2.438  28.808  0.00  0.00    +0.009 A 
ATOM     30  C   UNL     1       0.061   2.418  31.347  0.00  0.00    +0.008 A 
ATOM     31  C   UNL     1       2.804   1.940  31.206  0.00  0.00    +0.008 A 
ATOM     32  C   UNL     1       0.766   2.052  32.494  0.00  0.00    +0.001 A 
ATOM     33  C   UNL     1       2.136   1.814  32.424  0.00  0.00    +0.001 A 
ENDBRANCH  18  19
ENDBRANCH   9  14
TORSDOF 4
ENDMDL
