MODEL 1
REMARK VINA RESULT:       5.8      0.000      0.000
REMARK  Name = 45360600
REMARK  9 active torsions:
REMARK  status: ('A' for Active; 'I' for Inactive)
REMARK    1  A    between atoms: S_2  and  N_12
REMARK    2  A    between atoms: S_2  and  C_25
REMARK    3  A    between atoms: O_5  and  C_14
REMARK    4  A    between atoms: O_6  and  C_15
REMARK    5  A    between atoms: N_11  and  C_24
REMARK    6  A    between atoms: N_12  and  C_18
REMARK    7  A    between atoms: C_13  and  C_17
REMARK    8  A    between atoms: C_16  and  C_18
REMARK    9  A    between atoms: C_17  and  C_19
REMARK                            x       y       z     vdW  Elec       q    Type
REMARK                         _______ _______ _______ _____ _____    ______ ____
ROOT
ATOM      4  O   UNL     1      -4.146   1.705  24.314  0.00  0.00    -0.366 OA
ATOM     13  C   UNL     1      -4.966   0.849  25.130  0.00  0.00    +0.158 C 
ATOM     14  C   UNL     1      -5.529   1.741  26.224  0.00  0.00    +0.175 C 
ATOM     15  C   UNL     1      -5.729   3.044  25.479  0.00  0.00    +0.175 C 
ATOM     16  C   UNL     1      -4.506   3.082  24.569  0.00  0.00    +0.165 C 
ENDROOT
BRANCH  14   5
ATOM      5  O   UNL     1      -6.722   1.219  26.770  0.00  0.00    -0.387 OA
ATOM     36  H   UNL     1      -7.122   1.918  27.316  0.00  0.00    +0.210 HD
ENDBRANCH  14   5
BRANCH  15   6
ATOM      6  O   UNL     1      -6.891   2.970  24.654  0.00  0.00    -0.387 OA
ATOM     37  H   UNL     1      -7.374   2.164  24.904  0.00  0.00    +0.210 HD
ENDBRANCH  15   6
BRANCH  13  17
ATOM     17  C   UNL     1      -4.132  -0.303  25.662  0.00  0.00    +0.130 C 
BRANCH  17  19
ATOM      7  O   UNL     1      -4.235  -1.736  23.771  0.00  0.00    -0.276 OA
ATOM     10  N   UNL     1      -2.131  -0.953  24.374  0.00  0.00    -0.298 N 
ATOM     11  N   UNL     1       0.698  -0.621  23.860  0.00  0.00    -0.327 N 
ATOM     19  C   UNL     1      -3.515  -1.064  24.514  0.00  0.00    +0.218 C 
ATOM     20  C   UNL     1      -1.278  -0.156  25.256  0.00  0.00    +0.126 C 
ATOM     21  C   UNL     1      -1.460  -1.656  23.283  0.00  0.00    +0.126 C 
ATOM     22  C   UNL     1       0.183  -0.603  25.231  0.00  0.00    +0.124 C 
ATOM     23  C   UNL     1      -0.245  -0.886  22.770  0.00  0.00    +0.124 C 
BRANCH  11  24
ATOM      3  F   UNL     1       6.066   0.143  22.817  0.00  0.00    -0.205 F 
ATOM     24  C   UNL     1       2.052  -0.428  23.597  0.00  0.00    +0.030 A 
ATOM     26  C   UNL     1       2.972  -1.429  23.910  0.00  0.00    +0.026 A 
ATOM     27  C   UNL     1       2.489   0.765  23.019  0.00  0.00    +0.026 A 
ATOM     30  C   UNL     1       4.329  -1.236  23.647  0.00  0.00    +0.040 A 
ATOM     31  C   UNL     1       3.844   0.957  22.756  0.00  0.00    +0.040 A 
ATOM     32  C   UNL     1       4.764  -0.043  23.070  0.00  0.00    +0.124 A 
ENDBRANCH  11  24
ENDBRANCH  17  19
ENDBRANCH  13  17
BRANCH  16  18
ATOM     18  C   UNL     1      -3.306   3.765  25.212  0.00  0.00    +0.140 C 
BRANCH  18  12
ATOM     12  N   UNL     1      -2.152   2.847  25.199  0.00  0.00    -0.187 NA
ATOM     38  H   UNL     1      -2.246   2.083  25.882  0.00  0.00    +0.148 HD
BRANCH  12   2
ATOM      2  S   UNL     1      -0.575   3.461  25.017  0.00  0.00    +0.058 S 
ATOM      8  O   UNL     1       0.115   2.696  23.995  0.00  0.00    -0.153 OA
ATOM      9  O   UNL     1      -0.630   4.908  24.933  0.00  0.00    -0.153 OA
BRANCH   2  25
ATOM      1 CL   UNL     1       2.035   1.938  30.520  0.00  0.00    -0.084 Cl
ATOM     25  C   UNL     1       0.160   3.032  26.567  0.00  0.00    +0.105 A 
ATOM     28  C   UNL     1      -0.641   2.585  27.618  0.00  0.00    +0.030 A 
ATOM     29  C   UNL     1       1.540   3.141  26.738  0.00  0.00    +0.030 A 
ATOM     33  C   UNL     1      -0.060   2.247  28.841  0.00  0.00    +0.022 A 
ATOM     34  C   UNL     1       2.120   2.802  27.960  0.00  0.00    +0.022 A 
ATOM     35  C   UNL     1       1.319   2.356  29.012  0.00  0.00    +0.041 A 
ENDBRANCH   2  25
ENDBRANCH  12   2
ENDBRANCH  18  12
ENDBRANCH  16  18
TORSDOF 9
ENDMDL
MODEL 2
REMARK VINA RESULT:       5.8      2.840      4.698
REMARK  Name = 45360600
REMARK  9 active torsions:
REMARK  status: ('A' for Active; 'I' for Inactive)
REMARK    1  A    between atoms: S_2  and  N_12
REMARK    2  A    between atoms: S_2  and  C_25
REMARK    3  A    between atoms: O_5  and  C_14
REMARK    4  A    between atoms: O_6  and  C_15
REMARK    5  A    between atoms: N_11  and  C_24
REMARK    6  A    between atoms: N_12  and  C_18
REMARK    7  A    between atoms: C_13  and  C_17
REMARK    8  A    between atoms: C_16  and  C_18
REMARK    9  A    between atoms: C_17  and  C_19
REMARK                            x       y       z     vdW  Elec       q    Type
REMARK                         _______ _______ _______ _____ _____    ______ ____
ROOT
ATOM      4  O   UNL     1      -2.736   2.591  25.156  0.00  0.00    -0.366 OA
ATOM     13  C   UNL     1      -2.182   3.308  24.038  0.00  0.00    +0.158 C 
ATOM     14  C   UNL     1      -2.519   4.770  24.280  0.00  0.00    +0.175 C 
ATOM     15  C   UNL     1      -2.409   4.861  25.788  0.00  0.00    +0.175 C 
ATOM     16  C   UNL     1      -2.994   3.524  26.230  0.00  0.00    +0.165 C 
ENDROOT
BRANCH  14   5
ATOM      5  O   UNL     1      -1.635   5.636  23.601  0.00  0.00    -0.387 OA
ATOM     36  H   UNL     1      -1.709   5.443  22.651  0.00  0.00    +0.210 HD
ENDBRANCH  14   5
BRANCH  15   6
ATOM      6  O   UNL     1      -1.040   4.897  26.184  0.00  0.00    -0.387 OA
ATOM     37  H   UNL     1      -0.725   5.809  26.057  0.00  0.00    +0.210 HD
ENDBRANCH  15   6
BRANCH  13  17
ATOM     17  C   UNL     1      -2.758   2.763  22.743  0.00  0.00    +0.130 C 
BRANCH  17  19
ATOM      7  O   UNL     1      -3.135   0.491  22.165  0.00  0.00    -0.276 OA
ATOM     10  N   UNL     1      -0.981   1.054  22.831  0.00  0.00    -0.298 N 
ATOM     11  N   UNL     1       1.820   0.411  23.177  0.00  0.00    -0.327 N 
ATOM     19  C   UNL     1      -2.320   1.332  22.549  0.00  0.00    +0.218 C 
ATOM     20  C   UNL     1      -0.014   2.053  23.287  0.00  0.00    +0.126 C 
ATOM     21  C   UNL     1      -0.478  -0.307  22.662  0.00  0.00    +0.126 C 
ATOM     22  C   UNL     1       1.182   1.434  24.009  0.00  0.00    +0.124 C 
ATOM     23  C   UNL     1       0.984  -0.325  22.224  0.00  0.00    +0.124 C 
BRANCH  11  24
ATOM      3  F   UNL     1       7.191  -0.754  23.703  0.00  0.00    -0.205 F 
ATOM     24  C   UNL     1       3.175   0.116  23.310  0.00  0.00    +0.030 A 
ATOM     26  C   UNL     1       4.129   1.097  23.041  0.00  0.00    +0.026 A 
ATOM     27  C   UNL     1       3.577  -1.158  23.712  0.00  0.00    +0.026 A 
ATOM     30  C   UNL     1       5.487   0.803  23.174  0.00  0.00    +0.040 A 
ATOM     31  C   UNL     1       4.933  -1.451  23.845  0.00  0.00    +0.040 A 
ATOM     32  C   UNL     1       5.888  -0.471  23.576  0.00  0.00    +0.124 A 
ENDBRANCH  11  24
ENDBRANCH  17  19
ENDBRANCH  13  17
BRANCH  16  18
ATOM     18  C   UNL     1      -4.500   3.575  26.450  0.00  0.00    +0.140 C 
BRANCH  18  12
ATOM     12  N   UNL     1      -5.186   2.950  25.304  0.00  0.00    -0.187 NA
ATOM     38  H   UNL     1      -5.583   3.643  24.654  0.00  0.00    +0.148 HD
BRANCH  12   2
ATOM      2  S   UNL     1      -6.132   1.554  25.533  0.00  0.00    +0.058 S 
ATOM      8  O   UNL     1      -6.507   1.462  26.931  0.00  0.00    -0.153 OA
ATOM      9  O   UNL     1      -7.147   1.486  24.499  0.00  0.00    -0.153 OA
BRANCH   2  25
ATOM      1 CL   UNL     1      -1.961  -3.012  24.450  0.00  0.00    -0.084 Cl
ATOM     25  C   UNL     1      -4.957   0.268  25.228  0.00  0.00    +0.105 A 
ATOM     28  C   UNL     1      -3.845   0.128  26.058  0.00  0.00    +0.030 A 
ATOM     29  C   UNL     1      -5.143  -0.607  24.157  0.00  0.00    +0.030 A 
ATOM     33  C   UNL     1      -2.918  -0.886  25.817  0.00  0.00    +0.022 A 
ATOM     34  C   UNL     1      -4.217  -1.621  23.917  0.00  0.00    +0.022 A 
ATOM     35  C   UNL     1      -3.104  -1.760  24.747  0.00  0.00    +0.041 A 
ENDBRANCH   2  25
ENDBRANCH  12   2
ENDBRANCH  18  12
ENDBRANCH  16  18
TORSDOF 9
ENDMDL
MODEL 3
REMARK VINA RESULT:       6.2      2.583      3.494
REMARK  Name = 45360600
REMARK  9 active torsions:
REMARK  status: ('A' for Active; 'I' for Inactive)
REMARK    1  A    between atoms: S_2  and  N_12
REMARK    2  A    between atoms: S_2  and  C_25
REMARK    3  A    between atoms: O_5  and  C_14
REMARK    4  A    between atoms: O_6  and  C_15
REMARK    5  A    between atoms: N_11  and  C_24
REMARK    6  A    between atoms: N_12  and  C_18
REMARK    7  A    between atoms: C_13  and  C_17
REMARK    8  A    between atoms: C_16  and  C_18
REMARK    9  A    between atoms: C_17  and  C_19
REMARK                            x       y       z     vdW  Elec       q    Type
REMARK                         _______ _______ _______ _____ _____    ______ ____
ROOT
ATOM      4  O   UNL     1      -3.546   4.556  24.379  0.00  0.00    -0.366 OA
ATOM     13  C   UNL     1      -4.139   3.481  23.627  0.00  0.00    +0.158 C 
ATOM     14  C   UNL     1      -4.420   2.381  24.637  0.00  0.00    +0.175 C 
ATOM     15  C   UNL     1      -4.800   3.184  25.863  0.00  0.00    +0.175 C 
ATOM     16  C   UNL     1      -3.836   4.363  25.782  0.00  0.00    +0.165 C 
ENDROOT
BRANCH  14   5
ATOM      5  O   UNL     1      -5.442   1.510  24.199  0.00  0.00    -0.387 OA
ATOM     36  H   UNL     1      -5.859   1.130  24.991  0.00  0.00    +0.210 HD
ENDBRANCH  14   5
BRANCH  15   6
ATOM      6  O   UNL     1      -6.128   3.689  25.733  0.00  0.00    -0.387 OA
ATOM     37  H   UNL     1      -6.538   3.660  26.615  0.00  0.00    +0.210 HD
ENDBRANCH  15   6
BRANCH  13  17
ATOM     17  C   UNL     1      -3.197   3.053  22.516  0.00  0.00    +0.130 C 
BRANCH  17  19
ATOM      7  O   UNL     1      -3.687   0.735  22.670  0.00  0.00    -0.276 OA
ATOM     10  N   UNL     1      -1.456   1.346  22.892  0.00  0.00    -0.298 N 
ATOM     11  N   UNL     1       1.353   0.676  23.087  0.00  0.00    -0.327 N 
ATOM     19  C   UNL     1      -2.814   1.604  22.697  0.00  0.00    +0.218 C 
ATOM     20  C   UNL     1      -0.420   2.380  22.924  0.00  0.00    +0.126 C 
ATOM     21  C   UNL     1      -1.005  -0.032  23.070  0.00  0.00    +0.126 C 
ATOM     22  C   UNL     1       0.845   1.928  23.653  0.00  0.00    +0.124 C 
ATOM     23  C   UNL     1       0.391  -0.254  22.491  0.00  0.00    +0.124 C 
BRANCH  11  24
ATOM      3  F   UNL     1       6.725  -0.581  23.310  0.00  0.00    -0.205 F 
ATOM     24  C   UNL     1       2.708   0.358  23.144  0.00  0.00    +0.030 A 
ATOM     26  C   UNL     1       3.663   1.323  22.822  0.00  0.00    +0.026 A 
ATOM     27  C   UNL     1       3.110  -0.923  23.522  0.00  0.00    +0.026 A 
ATOM     30  C   UNL     1       5.021   1.006  22.878  0.00  0.00    +0.040 A 
ATOM     31  C   UNL     1       4.467  -1.239  23.579  0.00  0.00    +0.040 A 
ATOM     32  C   UNL     1       5.422  -0.276  23.256  0.00  0.00    +0.124 A 
ENDBRANCH  11  24
ENDBRANCH  17  19
ENDBRANCH  13  17
BRANCH  16  18
ATOM     18  C   UNL     1      -2.518   4.105  26.499  0.00  0.00    +0.140 C 
BRANCH  18  12
ATOM     12  N   UNL     1      -1.700   3.170  25.704  0.00  0.00    -0.187 NA
ATOM     38  H   UNL     1      -2.212   2.782  24.899  0.00  0.00    +0.148 HD
BRANCH  12   2
ATOM      2  S   UNL     1      -0.650   2.080  26.482  0.00  0.00    +0.058 S 
ATOM      8  O   UNL     1       0.640   2.112  25.821  0.00  0.00    -0.153 OA
ATOM      9  O   UNL     1      -0.740   2.270  27.918  0.00  0.00    -0.153 OA
BRANCH   2  25
ATOM      1 CL   UNL     1      -3.284  -3.448  25.097  0.00  0.00    -0.084 Cl
ATOM     25  C   UNL     1      -1.392   0.523  26.092  0.00  0.00    +0.105 A 
ATOM     28  C   UNL     1      -0.590  -0.598  25.881  0.00  0.00    +0.030 A 
ATOM     29  C   UNL     1      -2.780   0.417  25.995  0.00  0.00    +0.030 A 
ATOM     33  C   UNL     1      -1.175  -1.826  25.573  0.00  0.00    +0.022 A 
ATOM     34  C   UNL     1      -3.364  -0.811  25.688  0.00  0.00    +0.022 A 
ATOM     35  C   UNL     1      -2.562  -1.933  25.476  0.00  0.00    +0.041 A 
ENDBRANCH   2  25
ENDBRANCH  12   2
ENDBRANCH  18  12
ENDBRANCH  16  18
TORSDOF 9
ENDMDL
MODEL 4
REMARK VINA RESULT:       6.5      2.927      4.629
REMARK  Name = 45360600
REMARK  9 active torsions:
REMARK  status: ('A' for Active; 'I' for Inactive)
REMARK    1  A    between atoms: S_2  and  N_12
REMARK    2  A    between atoms: S_2  and  C_25
REMARK    3  A    between atoms: O_5  and  C_14
REMARK    4  A    between atoms: O_6  and  C_15
REMARK    5  A    between atoms: N_11  and  C_24
REMARK    6  A    between atoms: N_12  and  C_18
REMARK    7  A    between atoms: C_13  and  C_17
REMARK    8  A    between atoms: C_16  and  C_18
REMARK    9  A    between atoms: C_17  and  C_19
REMARK                            x       y       z     vdW  Elec       q    Type
REMARK                         _______ _______ _______ _____ _____    ______ ____
ROOT
ATOM      4  O   UNL     1      -1.741   3.990  24.784  0.00  0.00    -0.366 OA
ATOM     13  C   UNL     1      -3.051   3.923  24.193  0.00  0.00    +0.158 C 
ATOM     14  C   UNL     1      -3.865   3.015  25.100  0.00  0.00    +0.175 C 
ATOM     15  C   UNL     1      -3.307   3.369  26.463  0.00  0.00    +0.175 C 
ATOM     16  C   UNL     1      -1.824   3.557  26.161  0.00  0.00    +0.165 C 
ENDROOT
BRANCH  14   5
ATOM      5  O   UNL     1      -5.251   3.254  24.984  0.00  0.00    -0.387 OA
ATOM     36  H   UNL     1      -5.710   2.432  25.228  0.00  0.00    +0.210 HD
ENDBRANCH  14   5
BRANCH  15   6
ATOM      6  O   UNL     1      -3.831   4.621  26.903  0.00  0.00    -0.387 OA
ATOM     37  H   UNL     1      -4.290   5.026  26.147  0.00  0.00    +0.210 HD
ENDBRANCH  15   6
BRANCH  13  17
ATOM     17  C   UNL     1      -2.945   3.413  22.767  0.00  0.00    +0.130 C 
BRANCH  17  19
ATOM      7  O   UNL     1      -3.544   1.120  22.613  0.00  0.00    -0.276 OA
ATOM     10  N   UNL     1      -1.296   1.589  22.971  0.00  0.00    -0.298 N 
ATOM     11  N   UNL     1       1.472   0.763  23.155  0.00  0.00    -0.327 N 
ATOM     19  C   UNL     1      -2.634   1.936  22.773  0.00  0.00    +0.218 C 
ATOM     20  C   UNL     1      -0.216   2.558  23.161  0.00  0.00    +0.126 C 
ATOM     21  C   UNL     1      -0.914   0.179  22.984  0.00  0.00    +0.126 C 
ATOM     22  C   UNL     1       1.003   1.957  23.861  0.00  0.00    +0.124 C 
ATOM     23  C   UNL     1       0.488  -0.037  22.419  0.00  0.00    +0.124 C 
BRANCH  11  24
ATOM      3  F   UNL     1       6.771  -0.774  23.360  0.00  0.00    -0.205 F 
ATOM     24  C   UNL     1       2.809   0.375  23.207  0.00  0.00    +0.030 A 
ATOM     26  C   UNL     1       3.809   1.275  22.840  0.00  0.00    +0.026 A 
ATOM     27  C   UNL     1       3.146  -0.912  23.626  0.00  0.00    +0.026 A 
ATOM     30  C   UNL     1       5.149   0.887  22.892  0.00  0.00    +0.040 A 
ATOM     31  C   UNL     1       4.485  -1.299  23.678  0.00  0.00    +0.040 A 
ATOM     32  C   UNL     1       5.486  -0.400  23.310  0.00  0.00    +0.124 A 
ENDBRANCH  11  24
ENDBRANCH  17  19
ENDBRANCH  13  17
BRANCH  16  18
ATOM     18  C   UNL     1      -1.021   2.269  26.293  0.00  0.00    +0.140 C 
BRANCH  18  12
ATOM     12  N   UNL     1      -1.925   1.111  26.160  0.00  0.00    -0.187 NA
ATOM     38  H   UNL     1      -2.826   1.256  26.636  0.00  0.00    +0.148 HD
BRANCH  12   2
ATOM      2  S   UNL     1      -1.305  -0.471  26.258  0.00  0.00    +0.058 S 
ATOM      8  O   UNL     1      -0.031  -0.522  25.565  0.00  0.00    -0.153 OA
ATOM      9  O   UNL     1      -1.412  -0.945  27.624  0.00  0.00    -0.153 OA
BRANCH   2  25
ATOM      1 CL   UNL     1      -5.419  -3.680  22.766  0.00  0.00    -0.084 Cl
ATOM     25  C   UNL     1      -2.463  -1.374  25.275  0.00  0.00    +0.105 A 
ATOM     28  C   UNL     1      -3.732  -0.848  25.033  0.00  0.00    +0.030 A 
ATOM     29  C   UNL     1      -2.108  -2.613  24.741  0.00  0.00    +0.030 A 
ATOM     33  C   UNL     1      -4.646  -1.562  24.257  0.00  0.00    +0.022 A 
ATOM     34  C   UNL     1      -3.022  -3.326  23.965  0.00  0.00    +0.022 A 
ATOM     35  C   UNL     1      -4.291  -2.800  23.724  0.00  0.00    +0.041 A 
ENDBRANCH   2  25
ENDBRANCH  12   2
ENDBRANCH  18  12
ENDBRANCH  16  18
TORSDOF 9
ENDMDL
MODEL 5
REMARK VINA RESULT:       6.5      2.605      4.208
REMARK  Name = 45360600
REMARK  9 active torsions:
REMARK  status: ('A' for Active; 'I' for Inactive)
REMARK    1  A    between atoms: S_2  and  N_12
REMARK    2  A    between atoms: S_2  and  C_25
REMARK    3  A    between atoms: O_5  and  C_14
REMARK    4  A    between atoms: O_6  and  C_15
REMARK    5  A    between atoms: N_11  and  C_24
REMARK    6  A    between atoms: N_12  and  C_18
REMARK    7  A    between atoms: C_13  and  C_17
REMARK    8  A    between atoms: C_16  and  C_18
REMARK    9  A    between atoms: C_17  and  C_19
REMARK                            x       y       z     vdW  Elec       q    Type
REMARK                         _______ _______ _______ _____ _____    ______ ____
ROOT
ATOM      4  O   UNL     1      -4.715  -0.827  24.062  0.00  0.00    -0.366 OA
ATOM     13  C   UNL     1      -3.485  -1.224  23.427  0.00  0.00    +0.158 C 
ATOM     14  C   UNL     1      -2.456  -1.308  24.542  0.00  0.00    +0.175 C 
ATOM     15  C   UNL     1      -3.296  -1.822  25.692  0.00  0.00    +0.175 C 
ATOM     16  C   UNL     1      -4.611  -1.079  25.482  0.00  0.00    +0.165 C 
ENDROOT
BRANCH  14   5
ATOM      5  O   UNL     1      -1.383  -2.162  24.207  0.00  0.00    -0.387 OA
ATOM     36  H   UNL     1      -1.691  -2.754  23.501  0.00  0.00    +0.210 HD
ENDBRANCH  14   5
BRANCH  15   6
ATOM      6  O   UNL     1      -3.547  -3.218  25.538  0.00  0.00    -0.387 OA
ATOM     37  H   UNL     1      -3.369  -3.641  26.395  0.00  0.00    +0.210 HD
ENDBRANCH  15   6
BRANCH  13  17
ATOM     17  C   UNL     1      -3.122  -0.222  22.345  0.00  0.00    +0.130 C 
BRANCH  17  19
ATOM      7  O   UNL     1      -2.860   1.896  23.387  0.00  0.00    -0.276 OA
ATOM     10  N   UNL     1      -0.914   0.712  22.924  0.00  0.00    -0.298 N 
ATOM     11  N   UNL     1       1.948   0.343  23.149  0.00  0.00    -0.327 N 
ATOM     19  C   UNL     1      -2.297   0.895  22.936  0.00  0.00    +0.218 C 
ATOM     20  C   UNL     1      -0.248  -0.476  22.388  0.00  0.00    +0.126 C 
ATOM     21  C   UNL     1      -0.047   1.747  23.483  0.00  0.00    +0.126 C 
ATOM     22  C   UNL     1       1.212  -0.219  22.014  0.00  0.00    +0.124 C 
ATOM     23  C   UNL     1       1.209   1.156  24.120  0.00  0.00    +0.124 C 
BRANCH  11  24
ATOM      3  F   UNL     1       7.385  -0.452  23.697  0.00  0.00    -0.205 F 
ATOM     24  C   UNL     1       3.320   0.143  23.287  0.00  0.00    +0.030 A 
ATOM     26  C   UNL     1       3.803  -1.091  23.723  0.00  0.00    +0.026 A 
ATOM     27  C   UNL     1       4.210   1.176  22.989  0.00  0.00    +0.026 A 
ATOM     30  C   UNL     1       5.177  -1.292  23.862  0.00  0.00    +0.040 A 
ATOM     31  C   UNL     1       5.583   0.974  23.128  0.00  0.00    +0.040 A 
ATOM     32  C   UNL     1       6.066  -0.259  23.564  0.00  0.00    +0.124 A 
ENDBRANCH  11  24
ENDBRANCH  17  19
ENDBRANCH  13  17
BRANCH  16  18
ATOM     18  C   UNL     1      -4.658   0.265  26.198  0.00  0.00    +0.140 C 
BRANCH  18  12
ATOM     12  N   UNL     1      -5.277   1.271  25.314  0.00  0.00    -0.187 NA
ATOM     38  H   UNL     1      -4.938   1.208  24.344  0.00  0.00    +0.148 HD
BRANCH  12   2
ATOM      2  S   UNL     1      -5.549   2.852  25.881  0.00  0.00    +0.058 S 
ATOM      8  O   UNL     1      -6.538   3.494  25.034  0.00  0.00    -0.153 OA
ATOM      9  O   UNL     1      -5.731   2.821  27.320  0.00  0.00    -0.153 OA
BRANCH   2  25
ATOM      1 CL   UNL     1      -0.038   5.611  24.683  0.00  0.00    -0.084 Cl
ATOM     25  C   UNL     1      -3.998   3.629  25.543  0.00  0.00    +0.105 A 
ATOM     28  C   UNL     1      -3.899   4.578  24.526  0.00  0.00    +0.030 A 
ATOM     29  C   UNL     1      -2.871   3.292  26.295  0.00  0.00    +0.030 A 
ATOM     33  C   UNL     1      -2.675   5.190  24.260  0.00  0.00    +0.022 A 
ATOM     34  C   UNL     1      -1.648   3.905  26.029  0.00  0.00    +0.022 A 
ATOM     35  C   UNL     1      -1.549   4.854  25.012  0.00  0.00    +0.041 A 
ENDBRANCH   2  25
ENDBRANCH  12   2
ENDBRANCH  18  12
ENDBRANCH  16  18
TORSDOF 9
ENDMDL
MODEL 6
REMARK VINA RESULT:       6.9      1.740      2.058
REMARK  Name = 45360600
REMARK  9 active torsions:
REMARK  status: ('A' for Active; 'I' for Inactive)
REMARK    1  A    between atoms: S_2  and  N_12
REMARK    2  A    between atoms: S_2  and  C_25
REMARK    3  A    between atoms: O_5  and  C_14
REMARK    4  A    between atoms: O_6  and  C_15
REMARK    5  A    between atoms: N_11  and  C_24
REMARK    6  A    between atoms: N_12  and  C_18
REMARK    7  A    between atoms: C_13  and  C_17
REMARK    8  A    between atoms: C_16  and  C_18
REMARK    9  A    between atoms: C_17  and  C_19
REMARK                            x       y       z     vdW  Elec       q    Type
REMARK                         _______ _______ _______ _____ _____    ______ ____
ROOT
ATOM      4  O   UNL     1      -4.709   0.221  23.955  0.00  0.00    -0.366 OA
ATOM     13  C   UNL     1      -5.168   0.045  25.308  0.00  0.00    +0.158 C 
ATOM     14  C   UNL     1      -5.341   1.447  25.868  0.00  0.00    +0.175 C 
ATOM     15  C   UNL     1      -5.825   2.204  24.649  0.00  0.00    +0.175 C 
ATOM     16  C   UNL     1      -4.996   1.574  23.534  0.00  0.00    +0.165 C 
ENDROOT
BRANCH  14   5
ATOM      5  O   UNL     1      -6.253   1.478  26.945  0.00  0.00    -0.387 OA
ATOM     36  H   UNL     1      -5.794   1.126  27.726  0.00  0.00    +0.210 HD
ENDBRANCH  14   5
BRANCH  15   6
ATOM      6  O   UNL     1      -7.198   1.912  24.398  0.00  0.00    -0.387 OA
ATOM     37  H   UNL     1      -7.336   0.969  24.591  0.00  0.00    +0.210 HD
ENDBRANCH  15   6
BRANCH  13  17
ATOM     17  C   UNL     1      -4.169  -0.795  26.083  0.00  0.00    +0.130 C 
BRANCH  17  19
ATOM      7  O   UNL     1      -4.059  -2.705  24.676  0.00  0.00    -0.276 OA
ATOM     10  N   UNL     1      -2.119  -1.441  24.873  0.00  0.00    -0.298 N 
ATOM     11  N   UNL     1       0.588  -0.801  24.070  0.00  0.00    -0.327 N 
ATOM     19  C   UNL     1      -3.455  -1.738  25.146  0.00  0.00    +0.218 C 
ATOM     20  C   UNL     1      -1.403  -0.293  25.432  0.00  0.00    +0.126 C 
ATOM     21  C   UNL     1      -1.360  -2.304  23.971  0.00  0.00    +0.126 C 
ATOM     22  C   UNL     1       0.115  -0.478  25.418  0.00  0.00    +0.124 C 
ATOM     23  C   UNL     1      -0.321  -1.520  23.172  0.00  0.00    +0.124 C 
BRANCH  11  24
ATOM      3  F   UNL     1       5.696   0.521  22.443  0.00  0.00    -0.205 F 
ATOM     24  C   UNL     1       1.876  -0.466  23.659  0.00  0.00    +0.030 A 
ATOM     26  C   UNL     1       2.924  -1.365  23.857  0.00  0.00    +0.026 A 
ATOM     27  C   UNL     1       2.118   0.765  23.051  0.00  0.00    +0.026 A 
ATOM     30  C   UNL     1       4.215  -1.032  23.446  0.00  0.00    +0.040 A 
ATOM     31  C   UNL     1       3.408   1.098  22.639  0.00  0.00    +0.040 A 
ATOM     32  C   UNL     1       4.456   0.200  22.838  0.00  0.00    +0.124 A 
ENDBRANCH  11  24
ENDBRANCH  17  19
ENDBRANCH  13  17
BRANCH  16  18
ATOM     18  C   UNL     1      -3.668   2.283  23.306  0.00  0.00    +0.140 C 
BRANCH  18  12
ATOM     12  N   UNL     1      -3.914   3.710  23.025  0.00  0.00    -0.187 NA
ATOM     38  H   UNL     1      -3.618   3.984  22.077  0.00  0.00    +0.148 HD
BRANCH  12   2
ATOM      2  S   UNL     1      -3.637   4.878  24.231  0.00  0.00    +0.058 S 
ATOM      8  O   UNL     1      -3.156   6.096  23.608  0.00  0.00    -0.153 OA
ATOM      9  O   UNL     1      -4.775   4.918  25.130  0.00  0.00    -0.153 OA
BRANCH   2  25
ATOM      1 CL   UNL     1       1.206   2.376  27.347  0.00  0.00    -0.084 Cl
ATOM     25  C   UNL     1      -2.273   4.173  25.109  0.00  0.00    +0.105 A 
ATOM     28  C   UNL     1      -2.470   3.617  26.372  0.00  0.00    +0.030 A 
ATOM     29  C   UNL     1      -1.001   4.174  24.536  0.00  0.00    +0.030 A 
ATOM     33  C   UNL     1      -1.394   3.061  27.064  0.00  0.00    +0.022 A 
ATOM     34  C   UNL     1       0.074   3.618  25.228  0.00  0.00    +0.022 A 
ATOM     35  C   UNL     1      -0.122   3.062  26.493  0.00  0.00    +0.041 A 
ENDBRANCH   2  25
ENDBRANCH  12   2
ENDBRANCH  18  12
ENDBRANCH  16  18
TORSDOF 9
ENDMDL
MODEL 7
REMARK VINA RESULT:       7.9      2.481      4.461
REMARK  Name = 45360600
REMARK  9 active torsions:
REMARK  status: ('A' for Active; 'I' for Inactive)
REMARK    1  A    between atoms: S_2  and  N_12
REMARK    2  A    between atoms: S_2  and  C_25
REMARK    3  A    between atoms: O_5  and  C_14
REMARK    4  A    between atoms: O_6  and  C_15
REMARK    5  A    between atoms: N_11  and  C_24
REMARK    6  A    between atoms: N_12  and  C_18
REMARK    7  A    between atoms: C_13  and  C_17
REMARK    8  A    between atoms: C_16  and  C_18
REMARK    9  A    between atoms: C_17  and  C_19
REMARK                            x       y       z     vdW  Elec       q    Type
REMARK                         _______ _______ _______ _____ _____    ______ ____
ROOT
ATOM      4  O   UNL     1      -3.650   2.175  25.907  0.00  0.00    -0.366 OA
ATOM     13  C   UNL     1      -4.154   3.438  26.376  0.00  0.00    +0.158 C 
ATOM     14  C   UNL     1      -5.230   3.845  25.382  0.00  0.00    +0.175 C 
ATOM     15  C   UNL     1      -5.834   2.504  25.023  0.00  0.00    +0.175 C 
ATOM     16  C   UNL     1      -4.605   1.602  24.983  0.00  0.00    +0.165 C 
ENDROOT
BRANCH  14   5
ATOM      5  O   UNL     1      -6.160   4.744  25.948  0.00  0.00    -0.387 OA
ATOM     36  H   UNL     1      -6.542   5.264  25.221  0.00  0.00    +0.210 HD
ENDBRANCH  14   5
BRANCH  15   6
ATOM      6  O   UNL     1      -6.685   2.046  26.071  0.00  0.00    -0.387 OA
ATOM     37  H   UNL     1      -6.361   1.172  26.348  0.00  0.00    +0.210 HD
ENDBRANCH  15   6
BRANCH  13  17
ATOM     17  C   UNL     1      -3.016   4.438  26.475  0.00  0.00    +0.130 C 
BRANCH  17  19
ATOM      7  O   UNL     1      -2.789   5.591  24.412  0.00  0.00    -0.276 OA
ATOM     10  N   UNL     1      -1.413   3.746  24.733  0.00  0.00    -0.298 N 
ATOM     11  N   UNL     1       0.797   2.056  23.934  0.00  0.00    -0.327 N 
ATOM     19  C   UNL     1      -2.402   4.654  25.114  0.00  0.00    +0.218 C 
ATOM     20  C   UNL     1      -0.954   2.634  25.568  0.00  0.00    +0.126 C 
ATOM     21  C   UNL     1      -0.765   3.891  23.432  0.00  0.00    +0.126 C 
ATOM     22  C   UNL     1      -0.289   1.521  24.759  0.00  0.00    +0.124 C 
ATOM     23  C   UNL     1       0.693   3.442  23.467  0.00  0.00    +0.124 C 
BRANCH  11  24
ATOM      3  F   UNL     1       5.102  -1.089  22.496  0.00  0.00    -0.205 F 
ATOM     24  C   UNL     1       1.884   1.263  23.571  0.00  0.00    +0.030 A 
ATOM     26  C   UNL     1       1.756  -0.125  23.553  0.00  0.00    +0.026 A 
ATOM     27  C   UNL     1       3.098   1.857  23.226  0.00  0.00    +0.026 A 
ATOM     30  C   UNL     1       2.843  -0.921  23.190  0.00  0.00    +0.040 A 
ATOM     31  C   UNL     1       4.184   1.062  22.863  0.00  0.00    +0.040 A 
ATOM     32  C   UNL     1       4.057  -0.326  22.845  0.00  0.00    +0.124 A 
ENDBRANCH  11  24
ENDBRANCH  17  19
ENDBRANCH  13  17
BRANCH  16  18
ATOM     18  C   UNL     1      -3.949   1.547  23.610  0.00  0.00    +0.140 C 
BRANCH  18  12
ATOM     12  N   UNL     1      -3.995   0.164  23.099  0.00  0.00    -0.187 NA
ATOM     38  H   UNL     1      -4.450   0.098  22.177  0.00  0.00    +0.148 HD
BRANCH  12   2
ATOM      2  S   UNL     1      -4.322  -1.127  24.157  0.00  0.00    +0.058 S 
ATOM      8  O   UNL     1      -4.963  -0.608  25.351  0.00  0.00    -0.153 OA
ATOM      9  O   UNL     1      -4.932  -2.214  23.415  0.00  0.00    -0.153 OA
BRANCH   2  25
ATOM      1 CL   UNL     1       1.461  -2.924  25.814  0.00  0.00    -0.084 Cl
ATOM     25  C   UNL     1      -2.693  -1.633  24.624  0.00  0.00    +0.105 A 
ATOM     28  C   UNL     1      -2.055  -1.022  25.703  0.00  0.00    +0.030 A 
ATOM     29  C   UNL     1      -2.047  -2.644  23.912  0.00  0.00    +0.030 A 
ATOM     33  C   UNL     1      -0.770  -1.421  26.070  0.00  0.00    +0.022 A 
ATOM     34  C   UNL     1      -0.763  -3.043  24.281  0.00  0.00    +0.022 A 
ATOM     35  C   UNL     1      -0.124  -2.432  25.359  0.00  0.00    +0.041 A 
ENDBRANCH   2  25
ENDBRANCH  12   2
ENDBRANCH  18  12
ENDBRANCH  16  18
TORSDOF 9
ENDMDL
MODEL 8
REMARK VINA RESULT:       8.2      2.832      4.059
REMARK  Name = 45360600
REMARK  9 active torsions:
REMARK  status: ('A' for Active; 'I' for Inactive)
REMARK    1  A    between atoms: S_2  and  N_12
REMARK    2  A    between atoms: S_2  and  C_25
REMARK    3  A    between atoms: O_5  and  C_14
REMARK    4  A    between atoms: O_6  and  C_15
REMARK    5  A    between atoms: N_11  and  C_24
REMARK    6  A    between atoms: N_12  and  C_18
REMARK    7  A    between atoms: C_13  and  C_17
REMARK    8  A    between atoms: C_16  and  C_18
REMARK    9  A    between atoms: C_17  and  C_19
REMARK                            x       y       z     vdW  Elec       q    Type
REMARK                         _______ _______ _______ _____ _____    ______ ____
ROOT
ATOM      4  O   UNL     1      -2.948   0.367  25.201  0.00  0.00    -0.366 OA
ATOM     13  C   UNL     1      -3.567  -0.562  24.293  0.00  0.00    +0.158 C 
ATOM     14  C   UNL     1      -2.912  -1.905  24.570  0.00  0.00    +0.175 C 
ATOM     15  C   UNL     1      -2.696  -1.834  26.067  0.00  0.00    +0.175 C 
ATOM     16  C   UNL     1      -2.303  -0.374  26.263  0.00  0.00    +0.165 C 
ENDROOT
BRANCH  14   5
ATOM      5  O   UNL     1      -3.730  -2.985  24.173  0.00  0.00    -0.387 OA
ATOM     36  H   UNL     1      -4.288  -3.222  24.933  0.00  0.00    +0.210 HD
ENDBRANCH  14   5
BRANCH  15   6
ATOM      6  O   UNL     1      -3.924  -2.059  26.756  0.00  0.00    -0.387 OA
ATOM     37  H   UNL     1      -3.885  -2.953  27.137  0.00  0.00    +0.210 HD
ENDBRANCH  15   6
BRANCH  13  17
ATOM     17  C   UNL     1      -3.379  -0.083  22.864  0.00  0.00    +0.130 C 
BRANCH  17  19
ATOM      7  O   UNL     1      -2.927   2.248  22.825  0.00  0.00    -0.276 OA
ATOM     10  N   UNL     1      -1.087   0.829  22.830  0.00  0.00    -0.298 N 
ATOM     11  N   UNL     1       1.764   0.367  23.028  0.00  0.00    -0.327 N 
ATOM     19  C   UNL     1      -2.454   1.110  22.840  0.00  0.00    +0.218 C 
ATOM     20  C   UNL     1      -0.527  -0.524  22.848  0.00  0.00    +0.126 C 
ATOM     21  C   UNL     1      -0.127   1.930  22.812  0.00  0.00    +0.126 C 
ATOM     22  C   UNL     1       0.904  -0.579  22.313  0.00  0.00    +0.124 C 
ATOM     23  C   UNL     1       1.152   1.584  23.571  0.00  0.00    +0.124 C 
BRANCH  11  24
ATOM      3  F   UNL     1       7.185  -0.539  23.553  0.00  0.00    -0.205 F 
ATOM     24  C   UNL     1       3.131   0.139  23.160  0.00  0.00    +0.030 A 
ATOM     26  C   UNL     1       3.590  -1.102  23.600  0.00  0.00    +0.026 A 
ATOM     27  C   UNL     1       4.041   1.151  22.852  0.00  0.00    +0.026 A 
ATOM     30  C   UNL     1       4.960  -1.332  23.733  0.00  0.00    +0.040 A 
ATOM     31  C   UNL     1       5.410   0.921  22.985  0.00  0.00    +0.040 A 
ATOM     32  C   UNL     1       5.869  -0.320  23.425  0.00  0.00    +0.124 A 
ENDBRANCH  11  24
ENDBRANCH  17  19
ENDBRANCH  13  17
BRANCH  16  18
ATOM     18  C   UNL     1      -0.803  -0.139  26.150  0.00  0.00    +0.140 C 
BRANCH  18  12
ATOM     12  N   UNL     1      -0.556   1.144  25.466  0.00  0.00    -0.187 NA
ATOM     38  H   UNL     1       0.124   1.059  24.697  0.00  0.00    +0.148 HD
BRANCH  12   2
ATOM      2  S   UNL     1      -0.448   2.584  26.366  0.00  0.00    +0.058 S 
ATOM      8  O   UNL     1      -0.465   2.260  27.780  0.00  0.00    -0.153 OA
ATOM      9  O   UNL     1       0.610   3.413  25.820  0.00  0.00    -0.153 OA
BRANCH   2  25
ATOM      1 CL   UNL     1      -5.935   5.335  25.049  0.00  0.00    -0.084 Cl
ATOM     25  C   UNL     1      -1.993   3.359  25.995  0.00  0.00    +0.105 A 
ATOM     28  C   UNL     1      -2.025   4.509  25.206  0.00  0.00    +0.030 A 
ATOM     29  C   UNL     1      -3.180   2.820  26.492  0.00  0.00    +0.030 A 
ATOM     33  C   UNL     1      -3.244   5.120  24.914  0.00  0.00    +0.022 A 
ATOM     34  C   UNL     1      -4.399   3.431  26.199  0.00  0.00    +0.022 A 
ATOM     35  C   UNL     1      -4.431   4.581  25.410  0.00  0.00    +0.041 A 
ENDBRANCH   2  25
ENDBRANCH  12   2
ENDBRANCH  18  12
ENDBRANCH  16  18
TORSDOF 9
ENDMDL
