MODEL 1
REMARK VINA RESULT:       6.4      0.000      0.000
REMARK  Name = 45783302
REMARK  6 active torsions:
REMARK  status: ('A' for Active; 'I' for Inactive)
REMARK    1  A    between atoms: N_4  and  C_14
REMARK    2  A    between atoms: N_9  and  C_29
REMARK    3  A    between atoms: C_10  and  C_15
REMARK    4  A    between atoms: C_14  and  C_16
REMARK    5  A    between atoms: C_17  and  C_20
REMARK    6  A    between atoms: C_32  and  C_33
REMARK                            x       y       z     vdW  Elec       q    Type
REMARK                         _______ _______ _______ _____ _____    ______ ____
ROOT
ATOM      4  N   UNL     1      -4.961   2.849  25.312  0.00  0.00    -0.287 NA
ATOM     10  C   UNL     1      -4.204   3.428  24.183  0.00  0.00    +0.146 C 
ATOM     11  C   UNL     1      -4.226   4.946  24.435  0.00  0.00    +0.030 C 
ATOM     12  C   UNL     1      -5.068   5.130  25.689  0.00  0.00    +0.017 C 
ATOM     13  C   UNL     1      -5.915   3.874  25.736  0.00  0.00    +0.085 C 
ENDROOT
BRANCH  10  15
ATOM      1  O   UNL     1      -1.847   3.493  24.825  0.00  0.00    -0.336 OA
ATOM      5  N   UNL     1      -2.352   1.869  23.367  0.00  0.00    -0.190 NA
ATOM      7  N   UNL     1      -0.649   2.814  24.568  0.00  0.00    -0.056 NA
ATOM     15  C   UNL     1      -2.799   2.873  24.080  0.00  0.00    +0.245 A 
ATOM     17  C   UNL     1      -1.029   1.871  23.700  0.00  0.00    +0.202 A 
BRANCH  17  20
ATOM      2  O   UNL     1       6.192   0.157  23.785  0.00  0.00    -0.377 OA
ATOM      6  N   UNL     1       3.423   0.051  23.315  0.00  0.00    -0.311 N 
ATOM      8  N   UNL     1       1.674  -0.947  22.072  0.00  0.00    -0.240 NA
ATOM     20  C   UNL     1      -0.113   0.916  23.147  0.00  0.00    +0.027 A 
ATOM     21  C   UNL     1       4.180   1.277  23.026  0.00  0.00    +0.134 C 
ATOM     22  C   UNL     1       4.218  -1.182  23.339  0.00  0.00    +0.134 C 
ATOM     25  C   UNL     1       2.074   0.004  22.945  0.00  0.00    +0.122 A 
ATOM     26  C   UNL     1       5.412   1.345  23.920  0.00  0.00    +0.178 C 
ATOM     27  C   UNL     1       5.449  -0.983  24.216  0.00  0.00    +0.178 C 
ATOM     28  C   UNL     1       1.230   0.949  23.505  0.00  0.00    +0.055 A 
ATOM     30  C   UNL     1      -0.564  -0.047  22.251  0.00  0.00    +0.031 A 
ATOM     31  C   UNL     1       0.361  -0.947  21.747  0.00  0.00    +0.113 A 
ENDBRANCH  17  20
ENDBRANCH  10  15
BRANCH   4  14
ATOM     14  C   UNL     1      -5.619   1.593  24.977  0.00  0.00    +0.120 C 
BRANCH  14  16
ATOM     16  C   UNL     1      -4.652   0.439  24.968  0.00  0.00    -0.033 A 
ATOM     18  C   UNL     1      -3.787   0.244  26.044  0.00  0.00    +0.007 A 
ATOM     19  C   UNL     1      -4.620  -0.435  23.880  0.00  0.00    +0.007 A 
ATOM     23  C   UNL     1      -2.890  -0.824  26.035  0.00  0.00    +0.023 A 
ATOM     24  C   UNL     1      -3.723  -1.503  23.871  0.00  0.00    +0.023 A 
ATOM     29  C   UNL     1      -2.858  -1.698  24.948  0.00  0.00    +0.033 A 
BRANCH  29   9
ATOM      3  O   UNL     1       0.114  -1.761  25.424  0.00  0.00    -0.276 OA
ATOM      9  N   UNL     1      -1.962  -2.766  24.938  0.00  0.00    -0.286 N 
ATOM     32  C   UNL     1      -0.579  -2.739  25.166  0.00  0.00    +0.214 C 
ATOM     33  C   UNL     1       0.031  -4.115  25.067  0.00  0.00    +0.109 C 
ATOM     34  H   UNL     1      -2.373  -3.677  24.740  0.00  0.00    +0.155 HD
ENDBRANCH  29   9
ENDBRANCH  14  16
ENDBRANCH   4  14
TORSDOF 5
ENDMDL
MODEL 2
REMARK VINA RESULT:       7.5      1.119      1.183
REMARK  Name = 45783302
REMARK  6 active torsions:
REMARK  status: ('A' for Active; 'I' for Inactive)
REMARK    1  A    between atoms: N_4  and  C_14
REMARK    2  A    between atoms: N_9  and  C_29
REMARK    3  A    between atoms: C_10  and  C_15
REMARK    4  A    between atoms: C_14  and  C_16
REMARK    5  A    between atoms: C_17  and  C_20
REMARK    6  A    between atoms: C_32  and  C_33
REMARK                            x       y       z     vdW  Elec       q    Type
REMARK                         _______ _______ _______ _____ _____    ______ ____
ROOT
ATOM      4  N   UNL     1      -4.243   3.713  25.782  0.00  0.00    -0.287 NA
ATOM     10  C   UNL     1      -3.140   4.209  24.934  0.00  0.00    +0.146 C 
ATOM     11  C   UNL     1      -2.725   5.546  25.573  0.00  0.00    +0.030 C 
ATOM     12  C   UNL     1      -3.688   5.748  26.734  0.00  0.00    +0.017 C 
ATOM     13  C   UNL     1      -4.883   4.896  26.358  0.00  0.00    +0.085 C 
ENDROOT
BRANCH  10  15
ATOM      1  O   UNL     1      -1.307   2.981  25.987  0.00  0.00    -0.336 OA
ATOM      5  N   UNL     1      -1.550   2.562  23.799  0.00  0.00    -0.190 NA
ATOM      7  N   UNL     1      -0.311   2.055  25.654  0.00  0.00    -0.056 NA
ATOM     15  C   UNL     1      -1.992   3.225  24.839  0.00  0.00    +0.245 A 
ATOM     17  C   UNL     1      -0.519   1.859  24.349  0.00  0.00    +0.202 A 
BRANCH  17  20
ATOM      2  O   UNL     1       6.532  -0.341  23.609  0.00  0.00    -0.377 OA
ATOM      6  N   UNL     1       3.742  -0.161  23.322  0.00  0.00    -0.311 N 
ATOM      8  N   UNL     1       1.850  -0.778  22.040  0.00  0.00    -0.240 NA
ATOM     20  C   UNL     1       0.285   0.965  23.565  0.00  0.00    +0.027 A 
ATOM     21  C   UNL     1       4.579   1.042  23.214  0.00  0.00    +0.134 C 
ATOM     22  C   UNL     1       4.433  -1.428  23.060  0.00  0.00    +0.134 C 
ATOM     25  C   UNL     1       2.375  -0.042  23.045  0.00  0.00    +0.122 A 
ATOM     26  C   UNL     1       5.860   0.851  24.017  0.00  0.00    +0.178 C 
ATOM     27  C   UNL     1       5.723  -1.487  23.871  0.00  0.00    +0.178 C 
ATOM     28  C   UNL     1       1.644   0.835  23.829  0.00  0.00    +0.055 A 
ATOM     30  C   UNL     1      -0.293   0.225  22.540  0.00  0.00    +0.031 A 
ATOM     31  C   UNL     1       0.526  -0.624  21.813  0.00  0.00    +0.113 A 
ENDBRANCH  17  20
ENDBRANCH  10  15
BRANCH   4  14
ATOM     14  C   UNL     1      -5.191   2.875  25.060  0.00  0.00    +0.120 C 
BRANCH  14  16
ATOM     16  C   UNL     1      -4.620   1.514  24.762  0.00  0.00    -0.033 A 
ATOM     18  C   UNL     1      -4.483   0.575  25.783  0.00  0.00    +0.007 A 
ATOM     19  C   UNL     1      -4.225   1.192  23.463  0.00  0.00    +0.007 A 
ATOM     23  C   UNL     1      -3.954  -0.686  25.508  0.00  0.00    +0.023 A 
ATOM     24  C   UNL     1      -3.694  -0.068  23.186  0.00  0.00    +0.023 A 
ATOM     29  C   UNL     1      -3.559  -1.007  24.209  0.00  0.00    +0.033 A 
BRANCH  29   9
ATOM      3  O   UNL     1      -0.858  -2.175  24.845  0.00  0.00    -0.276 OA
ATOM      9  N   UNL     1      -3.030  -2.267  23.932  0.00  0.00    -0.286 N 
ATOM     32  C   UNL     1      -1.757  -2.762  24.252  0.00  0.00    +0.214 C 
ATOM     33  C   UNL     1      -1.572  -4.181  23.776  0.00  0.00    +0.109 C 
ATOM     34  H   UNL     1      -3.653  -2.901  23.435  0.00  0.00    +0.155 HD
ENDBRANCH  29   9
ENDBRANCH  14  16
ENDBRANCH   4  14
TORSDOF 5
ENDMDL
MODEL 3
REMARK VINA RESULT:       8.5      2.467      3.902
REMARK  Name = 45783302
REMARK  6 active torsions:
REMARK  status: ('A' for Active; 'I' for Inactive)
REMARK    1  A    between atoms: N_4  and  C_14
REMARK    2  A    between atoms: N_9  and  C_29
REMARK    3  A    between atoms: C_10  and  C_15
REMARK    4  A    between atoms: C_14  and  C_16
REMARK    5  A    between atoms: C_17  and  C_20
REMARK    6  A    between atoms: C_32  and  C_33
REMARK                            x       y       z     vdW  Elec       q    Type
REMARK                         _______ _______ _______ _____ _____    ______ ____
ROOT
ATOM      4  N   UNL     1      -4.750   2.999  24.449  0.00  0.00    -0.287 NA
ATOM     10  C   UNL     1      -4.432   2.028  25.516  0.00  0.00    +0.146 C 
ATOM     11  C   UNL     1      -5.801   1.519  26.002  0.00  0.00    +0.030 C 
ATOM     12  C   UNL     1      -6.827   2.303  25.196  0.00  0.00    +0.017 C 
ATOM     13  C   UNL     1      -6.070   3.544  24.768  0.00  0.00    +0.085 C 
ENDROOT
BRANCH  10  15
ATOM      1  O   UNL     1      -4.067   0.042  24.138  0.00  0.00    -0.336 OA
ATOM      5  N   UNL     1      -2.289   0.647  25.361  0.00  0.00    -0.190 NA
ATOM      7  N   UNL     1      -3.060  -0.887  23.848  0.00  0.00    -0.056 NA
ATOM     15  C   UNL     1      -3.530   0.910  25.036  0.00  0.00    +0.245 A 
ATOM     17  C   UNL     1      -2.044  -0.463  24.607  0.00  0.00    +0.202 A 
BRANCH  17  20
ATOM      2  O   UNL     1       4.883   0.336  22.065  0.00  0.00    -0.377 OA
ATOM      6  N   UNL     1       2.639  -0.626  23.455  0.00  0.00    -0.311 N 
ATOM      8  N   UNL     1       1.706  -2.418  24.690  0.00  0.00    -0.240 NA
ATOM     20  C   UNL     1      -0.773  -1.127  24.634  0.00  0.00    +0.027 A 
ATOM     21  C   UNL     1       2.560  -0.358  22.013  0.00  0.00    +0.134 C 
ATOM     22  C   UNL     1       3.990  -0.867  23.973  0.00  0.00    +0.134 C 
ATOM     25  C   UNL     1       1.537  -1.224  24.077  0.00  0.00    +0.122 A 
ATOM     26  C   UNL     1       3.576   0.713  21.632  0.00  0.00    +0.178 C 
ATOM     27  C   UNL     1       4.931   0.231  23.487  0.00  0.00    +0.178 C 
ATOM     28  C   UNL     1       0.332  -0.545  24.022  0.00  0.00    +0.055 A 
ATOM     30  C   UNL     1      -0.639  -2.354  25.274  0.00  0.00    +0.031 A 
ATOM     31  C   UNL     1       0.610  -2.953  25.273  0.00  0.00    +0.113 A 
ENDBRANCH  17  20
ENDBRANCH  10  15
BRANCH   4  14
ATOM     14  C   UNL     1      -3.745   4.044  24.306  0.00  0.00    +0.120 C 
BRANCH  14  16
ATOM     16  C   UNL     1      -2.473   3.701  25.035  0.00  0.00    -0.033 A 
ATOM     18  C   UNL     1      -2.440   3.722  26.429  0.00  0.00    +0.007 A 
ATOM     19  C   UNL     1      -1.326   3.364  24.316  0.00  0.00    +0.007 A 
ATOM     23  C   UNL     1      -1.262   3.406  27.105  0.00  0.00    +0.023 A 
ATOM     24  C   UNL     1      -0.147   3.048  24.991  0.00  0.00    +0.023 A 
ATOM     29  C   UNL     1      -0.115   3.069  26.386  0.00  0.00    +0.033 A 
BRANCH  29   9
ATOM      3  O   UNL     1       0.410   2.675  29.324  0.00  0.00    -0.276 OA
ATOM      9  N   UNL     1       1.064   2.752  27.060  0.00  0.00    -0.286 N 
ATOM     32  C   UNL     1       1.254   2.581  28.438  0.00  0.00    +0.214 C 
ATOM     33  C   UNL     1       2.685   2.241  28.768  0.00  0.00    +0.109 C 
ATOM     34  H   UNL     1       1.884   2.631  26.469  0.00  0.00    +0.155 HD
ENDBRANCH  29   9
ENDBRANCH  14  16
ENDBRANCH   4  14
TORSDOF 5
ENDMDL
MODEL 4
REMARK VINA RESULT:       9.3      1.845      4.719
REMARK  Name = 45783302
REMARK  6 active torsions:
REMARK  status: ('A' for Active; 'I' for Inactive)
REMARK    1  A    between atoms: N_4  and  C_14
REMARK    2  A    between atoms: N_9  and  C_29
REMARK    3  A    between atoms: C_10  and  C_15
REMARK    4  A    between atoms: C_14  and  C_16
REMARK    5  A    between atoms: C_17  and  C_20
REMARK    6  A    between atoms: C_32  and  C_33
REMARK                            x       y       z     vdW  Elec       q    Type
REMARK                         _______ _______ _______ _____ _____    ______ ____
ROOT
ATOM      4  N   UNL     1      -4.443  -1.678  23.943  0.00  0.00    -0.287 NA
ATOM     10  C   UNL     1      -3.540  -2.084  25.040  0.00  0.00    +0.146 C 
ATOM     11  C   UNL     1      -3.184  -3.549  24.730  0.00  0.00    +0.030 C 
ATOM     12  C   UNL     1      -3.979  -3.898  23.481  0.00  0.00    +0.017 C 
ATOM     13  C   UNL     1      -5.117  -2.896  23.492  0.00  0.00    +0.085 C 
ENDROOT
BRANCH  10  15
ATOM      1  O   UNL     1      -1.919  -0.863  26.402  0.00  0.00    -0.336 OA
ATOM      5  N   UNL     1      -1.576  -0.687  24.195  0.00  0.00    -0.190 NA
ATOM      7  N   UNL     1      -0.789  -0.049  26.246  0.00  0.00    -0.056 NA
ATOM     15  C   UNL     1      -2.318  -1.195  25.146  0.00  0.00    +0.245 A 
ATOM     17  C   UNL     1      -0.651   0.008  24.918  0.00  0.00    +0.202 A 
BRANCH  17  20
ATOM      2  O   UNL     1       6.540  -0.604  23.183  0.00  0.00    -0.377 OA
ATOM      6  N   UNL     1       3.902   0.349  23.355  0.00  0.00    -0.311 N 
ATOM      8  N   UNL     1       2.449   2.191  23.042  0.00  0.00    -0.240 NA
ATOM     20  C   UNL     1       0.400   0.748  24.283  0.00  0.00    +0.027 A 
ATOM     21  C   UNL     1       4.622  -0.064  24.566  0.00  0.00    +0.134 C 
ATOM     22  C   UNL     1       4.752   0.723  22.219  0.00  0.00    +0.134 C 
ATOM     25  C   UNL     1       2.640   0.935  23.505  0.00  0.00    +0.122 A 
ATOM     26  C   UNL     1       5.680  -1.102  24.208  0.00  0.00    +0.178 C 
ATOM     27  C   UNL     1       5.803  -0.356  21.986  0.00  0.00    +0.178 C 
ATOM     28  C   UNL     1       1.659   0.179  24.125  0.00  0.00    +0.055 A 
ATOM     30  C   UNL     1       0.164   2.038  23.821  0.00  0.00    +0.031 A 
ATOM     31  C   UNL     1       1.213   2.711  23.214  0.00  0.00    +0.113 A 
ENDBRANCH  17  20
ENDBRANCH  10  15
BRANCH   4  14
ATOM     14  C   UNL     1      -5.390  -0.641  24.334  0.00  0.00    +0.120 C 
BRANCH  14  16
ATOM     16  C   UNL     1      -4.741   0.716  24.392  0.00  0.00    -0.033 A 
ATOM     18  C   UNL     1      -3.868   1.116  23.381  0.00  0.00    +0.007 A 
ATOM     19  C   UNL     1      -5.012   1.574  25.459  0.00  0.00    +0.007 A 
ATOM     23  C   UNL     1      -3.266   2.373  23.435  0.00  0.00    +0.023 A 
ATOM     24  C   UNL     1      -4.410   2.831  25.513  0.00  0.00    +0.023 A 
ATOM     29  C   UNL     1      -3.537   3.231  24.501  0.00  0.00    +0.033 A 
BRANCH  29   9
ATOM      3  O   UNL     1      -0.929   4.099  25.731  0.00  0.00    -0.276 OA
ATOM      9  N   UNL     1      -2.935   4.488  24.556  0.00  0.00    -0.286 N 
ATOM     32  C   UNL     1      -1.714   4.839  25.146  0.00  0.00    +0.214 C 
ATOM     33  C   UNL     1      -1.417   6.309  24.987  0.00  0.00    +0.109 C 
ATOM     34  H   UNL     1      -3.457   5.239  24.107  0.00  0.00    +0.155 HD
ENDBRANCH  29   9
ENDBRANCH  14  16
ENDBRANCH   4  14
TORSDOF 5
ENDMDL
MODEL 5
REMARK VINA RESULT:       9.3      2.413      3.755
REMARK  Name = 45783302
REMARK  6 active torsions:
REMARK  status: ('A' for Active; 'I' for Inactive)
REMARK    1  A    between atoms: N_4  and  C_14
REMARK    2  A    between atoms: N_9  and  C_29
REMARK    3  A    between atoms: C_10  and  C_15
REMARK    4  A    between atoms: C_14  and  C_16
REMARK    5  A    between atoms: C_17  and  C_20
REMARK    6  A    between atoms: C_32  and  C_33
REMARK                            x       y       z     vdW  Elec       q    Type
REMARK                         _______ _______ _______ _____ _____    ______ ____
ROOT
ATOM      4  N   UNL     1      -4.187   2.588  24.492  0.00  0.00    -0.287 NA
ATOM     10  C   UNL     1      -3.845   1.457  25.379  0.00  0.00    +0.146 C 
ATOM     11  C   UNL     1      -5.101   0.567  25.379  0.00  0.00    +0.030 C 
ATOM     12  C   UNL     1      -6.114   1.307  24.518  0.00  0.00    +0.017 C 
ATOM     13  C   UNL     1      -5.640   2.746  24.567  0.00  0.00    +0.085 C 
ENDROOT
BRANCH  10  15
ATOM      1  O   UNL     1      -2.232  -0.355  25.672  0.00  0.00    -0.336 OA
ATOM      5  N   UNL     1      -1.819   0.959  23.906  0.00  0.00    -0.190 NA
ATOM      7  N   UNL     1      -1.077  -0.867  25.067  0.00  0.00    -0.056 NA
ATOM     15  C   UNL     1      -2.604   0.717  24.925  0.00  0.00    +0.245 A 
ATOM     17  C   UNL     1      -0.897  -0.039  24.034  0.00  0.00    +0.202 A 
BRANCH  17  20
ATOM      2  O   UNL     1       6.504   0.461  23.794  0.00  0.00    -0.377 OA
ATOM      6  N   UNL     1       3.833  -0.033  23.077  0.00  0.00    -0.311 N 
ATOM      8  N   UNL     1       2.314  -0.462  21.313  0.00  0.00    -0.240 NA
ATOM     20  C   UNL     1       0.192  -0.181  23.111  0.00  0.00    +0.027 A 
ATOM     21  C   UNL     1       4.215   1.254  23.674  0.00  0.00    +0.134 C 
ATOM     22  C   UNL     1       4.922  -0.768  22.426  0.00  0.00    +0.134 C 
ATOM     25  C   UNL     1       2.518  -0.184  22.620  0.00  0.00    +0.122 A 
ATOM     26  C   UNL     1       5.453   1.069  24.545  0.00  0.00    +0.178 C 
ATOM     27  C   UNL     1       6.123  -0.844  23.362  0.00  0.00    +0.178 C 
ATOM     28  C   UNL     1       1.503  -0.035  23.550  0.00  0.00    +0.055 A 
ATOM     30  C   UNL     1      -0.060  -0.467  21.774  0.00  0.00    +0.031 A 
ATOM     31  C   UNL     1       1.026  -0.596  20.923  0.00  0.00    +0.113 A 
ENDBRANCH  17  20
ENDBRANCH  10  15
BRANCH   4  14
ATOM     14  C   UNL     1      -3.485   3.818  24.834  0.00  0.00    +0.120 C 
BRANCH  14  16
ATOM     16  C   UNL     1      -2.170   3.542  25.514  0.00  0.00    -0.033 A 
ATOM     18  C   UNL     1      -2.141   3.214  26.869  0.00  0.00    +0.007 A 
ATOM     19  C   UNL     1      -0.980   3.615  24.789  0.00  0.00    +0.007 A 
ATOM     23  C   UNL     1      -0.923   2.959  27.500  0.00  0.00    +0.023 A 
ATOM     24  C   UNL     1       0.238   3.360  25.419  0.00  0.00    +0.023 A 
ATOM     29  C   UNL     1       0.266   3.032  26.775  0.00  0.00    +0.033 A 
BRANCH  29   9
ATOM      3  O   UNL     1       0.921   2.671  29.691  0.00  0.00    -0.276 OA
ATOM      9  N   UNL     1       1.484   2.777  27.404  0.00  0.00    -0.286 N 
ATOM     32  C   UNL     1       1.735   2.618  28.774  0.00  0.00    +0.214 C 
ATOM     33  C   UNL     1       3.193   2.352  29.050  0.00  0.00    +0.109 C 
ATOM     34  H   UNL     1       2.287   2.697  26.783  0.00  0.00    +0.155 HD
ENDBRANCH  29   9
ENDBRANCH  14  16
ENDBRANCH   4  14
TORSDOF 5
ENDMDL
