MODEL 1
REMARK VINA RESULT:       1.1      0.000      0.000
REMARK  Name = 11865736
REMARK  11 active torsions:
REMARK  status: ('A' for Active; 'I' for Inactive)
REMARK    1  A    between atoms: N_6  and  C_11
REMARK    2  A    between atoms: N_7  and  C_17
REMARK    3  A    between atoms: N_8  and  C_27
REMARK    4  A    between atoms: C_12  and  C_15
REMARK    5  A    between atoms: C_16  and  C_20
REMARK    6  A    between atoms: C_17  and  C_19
REMARK    7  A    between atoms: C_17  and  C_22
REMARK    8  A    between atoms: C_19  and  C_21
REMARK    9  A    between atoms: C_24  and  C_29
REMARK   10  A    between atoms: C_24  and  C_30
REMARK   11  A    between atoms: C_27  and  C_34
REMARK                            x       y       z     vdW  Elec       q    Type
REMARK                         _______ _______ _______ _____ _____    ______ ____
ROOT
ATOM      1  O   UNL     1       0.987   1.924  24.233  0.00  0.00    -0.274 OA
ATOM      7  N   UNL     1      -0.101   0.557  22.694  0.00  0.00    -0.302 N 
ATOM     15  C   UNL     1       0.077   1.713  23.435  0.00  0.00    +0.234 C 
ATOM     37  H   UNL     1      -0.940   0.461  22.129  0.00  0.00    +0.150 HD
ENDROOT
BRANCH  15  12
ATOM      2  O   UNL     1      -2.914   0.646  23.013  0.00  0.00    -0.271 OA
ATOM      5  N   UNL     1      -2.091   2.544  24.058  0.00  0.00    -0.285 N 
ATOM     11  C   UNL     1      -0.867   4.411  24.886  0.00  0.00    +0.094 C 
ATOM     12  C   UNL     1      -0.974   2.742  23.145  0.00  0.00    +0.164 C 
ATOM     13  C   UNL     1      -0.471   4.155  23.431  0.00  0.00    +0.056 C 
ATOM     14  C   UNL     1      -2.165   3.623  25.047  0.00  0.00    +0.131 C 
ATOM     16  C   UNL     1      -3.018   1.535  23.859  0.00  0.00    +0.240 C 
BRANCH  11   6
ATOM      3  O   UNL     1      -1.196   2.557  27.072  0.00  0.00    -0.253 OA
ATOM      6  N   UNL     1       0.150   3.963  25.805  0.00  0.00    -0.295 N 
ATOM      8  N   UNL     1       1.056   2.802  27.573  0.00  0.00    -0.296 N 
ATOM     18  C   UNL     1      -0.099   3.061  26.838  0.00  0.00    +0.300 C 
ATOM     36  H   UNL     1       1.077   4.370  25.737  0.00  0.00    +0.151 HD
ATOM     38  H   UNL     1       1.923   3.253  27.294  0.00  0.00    +0.151 HD
BRANCH   8  27
ATOM     27  C   UNL     1       1.080   1.903  28.701  0.00  0.00    +0.132 C 
BRANCH  27  34
ATOM     34  C   UNL     1       2.150   2.337  29.648  0.00  0.00    -0.016 C 
ATOM     35  C   UNL     1       3.113   3.210  29.335  0.00  0.00    +0.005 C 
ENDBRANCH  27  34
ENDBRANCH   8  27
ENDBRANCH  11   6
BRANCH  16  20
ATOM     20  C   UNL     1      -4.207   1.542  24.734  0.00  0.00    +0.066 C 
ATOM     24  C   UNL     1      -5.056   2.576  24.866  0.00  0.00    -0.071 C 
ATOM     29  C   UNL     1      -4.820   3.842  24.084  0.00  0.00    +0.039 C 
ATOM     30  C   UNL     1      -6.275   2.621  25.745  0.00  0.00    +0.039 C 
ENDBRANCH  16  20
ENDBRANCH  15  12
BRANCH   7  17
ATOM     17  C   UNL     1       0.790  -0.578  22.773  0.00  0.00    +0.163 C 
BRANCH  17  22
ATOM      4  O   UNL     1       2.424  -0.045  21.055  0.00  0.00    -0.274 OA
ATOM     10  N   UNL     1       3.008   0.250  23.256  0.00  0.00    -0.328 N 
ATOM     22  C   UNL     1       2.143  -0.121  22.248  0.00  0.00    +0.231 C 
ATOM     40  H   UNL     1       2.754   0.205  24.238  0.00  0.00    +0.145 HD
ATOM     41  H   UNL     1       3.941   0.588  23.043  0.00  0.00    +0.145 HD
ENDBRANCH  17  22
BRANCH  17  19
ATOM     19  C   UNL     1       0.922  -1.113  24.204  0.00  0.00    +0.069 C 
BRANCH  19  21
ATOM      9  N   UNL     1      -1.923  -0.606  26.477  0.00  0.00    -0.360 N 
ATOM     21  C   UNL     1      -0.375  -1.095  24.962  0.00  0.00    -0.020 A 
ATOM     23  C   UNL     1      -1.548  -1.839  24.655  0.00  0.00    +0.003 A 
ATOM     25  C   UNL     1      -0.636  -0.346  26.088  0.00  0.00    +0.087 A 
ATOM     26  C   UNL     1      -2.503  -1.515  25.620  0.00  0.00    +0.047 A 
ATOM     28  C   UNL     1      -1.888  -2.761  23.645  0.00  0.00    +0.010 A 
ATOM     31  C   UNL     1      -3.788  -2.068  25.626  0.00  0.00    +0.026 A 
ATOM     32  C   UNL     1      -3.170  -3.322  23.638  0.00  0.00    +0.001 A 
ATOM     33  C   UNL     1      -4.104  -2.980  24.615  0.00  0.00    +0.002 A 
ATOM     39  H   UNL     1      -2.379  -0.194  27.278  0.00  0.00    +0.165 HD
ENDBRANCH  19  21
ENDBRANCH  17  19
ENDBRANCH   7  17
TORSDOF 9
ENDMDL
MODEL 2
REMARK VINA RESULT:       1.8      2.158      5.526
REMARK  Name = 11865736
REMARK  11 active torsions:
REMARK  status: ('A' for Active; 'I' for Inactive)
REMARK    1  A    between atoms: N_6  and  C_11
REMARK    2  A    between atoms: N_7  and  C_17
REMARK    3  A    between atoms: N_8  and  C_27
REMARK    4  A    between atoms: C_12  and  C_15
REMARK    5  A    between atoms: C_16  and  C_20
REMARK    6  A    between atoms: C_17  and  C_19
REMARK    7  A    between atoms: C_17  and  C_22
REMARK    8  A    between atoms: C_19  and  C_21
REMARK    9  A    between atoms: C_24  and  C_29
REMARK   10  A    between atoms: C_24  and  C_30
REMARK   11  A    between atoms: C_27  and  C_34
REMARK                            x       y       z     vdW  Elec       q    Type
REMARK                         _______ _______ _______ _____ _____    ______ ____
ROOT
ATOM      1  O   UNL     1      -1.481   1.712  23.872  0.00  0.00    -0.274 OA
ATOM      7  N   UNL     1      -1.097   2.385  26.067  0.00  0.00    -0.302 N 
ATOM     15  C   UNL     1      -1.387   1.467  25.071  0.00  0.00    +0.234 C 
ATOM     37  H   UNL     1      -1.130   2.084  27.037  0.00  0.00    +0.150 HD
ENDROOT
BRANCH  15  12
ATOM      2  O   UNL     1      -4.344   0.236  24.978  0.00  0.00    -0.271 OA
ATOM      5  N   UNL     1      -2.265  -0.726  24.624  0.00  0.00    -0.285 N 
ATOM     11  C   UNL     1       0.029  -1.348  24.487  0.00  0.00    +0.094 C 
ATOM     12  C   UNL     1      -1.560   0.079  25.612  0.00  0.00    +0.164 C 
ATOM     13  C   UNL     1      -0.216  -0.618  25.808  0.00  0.00    +0.056 C 
ATOM     14  C   UNL     1      -1.376  -1.721  24.019  0.00  0.00    +0.131 C 
ATOM     16  C   UNL     1      -3.635  -0.620  24.448  0.00  0.00    +0.240 C 
BRANCH  11   6
ATOM      3  O   UNL     1       2.844  -1.366  23.855  0.00  0.00    -0.253 OA
ATOM      6  N   UNL     1       0.709  -0.512  23.530  0.00  0.00    -0.295 N 
ATOM      8  N   UNL     1       2.473   0.331  22.317  0.00  0.00    -0.296 N 
ATOM     18  C   UNL     1       2.079  -0.588  23.287  0.00  0.00    +0.300 C 
ATOM     36  H   UNL     1       0.177   0.209  23.054  0.00  0.00    +0.151 HD
ATOM     38  H   UNL     1       1.766   0.922  21.890  0.00  0.00    +0.151 HD
BRANCH   8  27
ATOM     27  C   UNL     1       3.841   0.465  21.876  0.00  0.00    +0.132 C 
BRANCH  27  34
ATOM     34  C   UNL     1       4.700   0.816  23.045  0.00  0.00    -0.016 C 
ATOM     35  C   UNL     1       5.732   0.073  23.462  0.00  0.00    +0.005 C 
ENDBRANCH  27  34
ENDBRANCH   8  27
ENDBRANCH  11   6
BRANCH  16  20
ATOM     20  C   UNL     1      -4.269  -1.611  23.557  0.00  0.00    +0.066 C 
ATOM     24  C   UNL     1      -4.284  -2.937  23.771  0.00  0.00    -0.071 C 
ATOM     29  C   UNL     1      -3.617  -3.503  24.998  0.00  0.00    +0.039 C 
ATOM     30  C   UNL     1      -4.919  -3.976  22.888  0.00  0.00    +0.039 C 
ENDBRANCH  16  20
ENDBRANCH  15  12
BRANCH   7  17
ATOM     17  C   UNL     1      -0.862   3.787  25.805  0.00  0.00    +0.163 C 
BRANCH  17  22
ATOM      4  O   UNL     1      -0.212   4.793  23.692  0.00  0.00    -0.274 OA
ATOM     10  N   UNL     1       0.803   2.836  24.334  0.00  0.00    -0.328 N 
ATOM     22  C   UNL     1      -0.090   3.874  24.497  0.00  0.00    +0.231 C 
ATOM     40  H   UNL     1       0.911   2.096  25.021  0.00  0.00    +0.145 HD
ATOM     41  H   UNL     1       1.392   2.781  23.511  0.00  0.00    +0.145 HD
ENDBRANCH  17  22
BRANCH  17  19
ATOM     19  C   UNL     1      -2.168   4.586  25.712  0.00  0.00    +0.069 C 
BRANCH  19  21
ATOM      9  N   UNL     1      -4.373   3.061  23.196  0.00  0.00    -0.360 N 
ATOM     21  C   UNL     1      -3.230   3.888  24.910  0.00  0.00    -0.020 A 
ATOM     23  C   UNL     1      -4.393   3.247  25.420  0.00  0.00    +0.003 A 
ATOM     25  C   UNL     1      -3.245   3.757  23.540  0.00  0.00    +0.087 A 
ATOM     26  C   UNL     1      -5.093   2.737  24.325  0.00  0.00    +0.047 A 
ATOM     28  C   UNL     1      -4.919   3.052  26.712  0.00  0.00    +0.010 A 
ATOM     31  C   UNL     1      -6.298   2.038  24.457  0.00  0.00    +0.026 A 
ATOM     32  C   UNL     1      -6.124   2.354  26.860  0.00  0.00    +0.001 A 
ATOM     33  C   UNL     1      -6.802   1.856  25.749  0.00  0.00    +0.002 A 
ATOM     39  H   UNL     1      -4.641   2.823  22.252  0.00  0.00    +0.165 HD
ENDBRANCH  19  21
ENDBRANCH  17  19
ENDBRANCH   7  17
TORSDOF 9
ENDMDL
MODEL 3
REMARK VINA RESULT:       2.3      1.987      4.223
REMARK  Name = 11865736
REMARK  11 active torsions:
REMARK  status: ('A' for Active; 'I' for Inactive)
REMARK    1  A    between atoms: N_6  and  C_11
REMARK    2  A    between atoms: N_7  and  C_17
REMARK    3  A    between atoms: N_8  and  C_27
REMARK    4  A    between atoms: C_12  and  C_15
REMARK    5  A    between atoms: C_16  and  C_20
REMARK    6  A    between atoms: C_17  and  C_19
REMARK    7  A    between atoms: C_17  and  C_22
REMARK    8  A    between atoms: C_19  and  C_21
REMARK    9  A    between atoms: C_24  and  C_29
REMARK   10  A    between atoms: C_24  and  C_30
REMARK   11  A    between atoms: C_27  and  C_34
REMARK                            x       y       z     vdW  Elec       q    Type
REMARK                         _______ _______ _______ _____ _____    ______ ____
ROOT
ATOM      1  O   UNL     1      -0.836   1.096  22.021  0.00  0.00    -0.274 OA
ATOM      7  N   UNL     1      -1.247   0.587  24.255  0.00  0.00    -0.302 N 
ATOM     15  C   UNL     1      -1.503   1.210  23.045  0.00  0.00    +0.234 C 
ATOM     37  H   UNL     1      -1.819   0.824  25.060  0.00  0.00    +0.150 HD
ENDROOT
BRANCH  15  12
ATOM      2  O   UNL     1      -4.239  -0.267  23.819  0.00  0.00    -0.271 OA
ATOM      5  N   UNL     1      -3.416   1.830  24.364  0.00  0.00    -0.285 N 
ATOM     11  C   UNL     1      -2.294   3.921  24.562  0.00  0.00    +0.094 C 
ATOM     12  C   UNL     1      -2.739   2.057  23.094  0.00  0.00    +0.164 C 
ATOM     13  C   UNL     1      -2.401   3.546  23.084  0.00  0.00    +0.056 C 
ATOM     14  C   UNL     1      -3.307   3.001  25.239  0.00  0.00    +0.131 C 
ATOM     16  C   UNL     1      -4.179   0.696  24.585  0.00  0.00    +0.240 C 
BRANCH  11   6
ATOM      3  O   UNL     1      -1.512   2.203  26.745  0.00  0.00    -0.253 OA
ATOM      6  N   UNL     1      -0.961   3.717  25.072  0.00  0.00    -0.295 N 
ATOM      8  N   UNL     1       0.691   2.855  26.423  0.00  0.00    -0.296 N 
ATOM     18  C   UNL     1      -0.672   2.864  26.136  0.00  0.00    +0.300 C 
ATOM     36  H   UNL     1      -0.203   4.266  24.679  0.00  0.00    +0.151 HD
ATOM     38  H   UNL     1       1.313   3.422  25.853  0.00  0.00    +0.151 HD
BRANCH   8  27
ATOM     27  C   UNL     1       1.263   2.057  27.480  0.00  0.00    +0.132 C 
BRANCH  27  34
ATOM     34  C   UNL     1       1.637   2.950  28.618  0.00  0.00    -0.016 C 
ATOM     35  C   UNL     1       1.579   2.583  29.903  0.00  0.00    +0.005 C 
ENDBRANCH  27  34
ENDBRANCH   8  27
ENDBRANCH  11   6
BRANCH  16  20
ATOM     20  C   UNL     1      -4.967   0.658  25.832  0.00  0.00    +0.066 C 
ATOM     24  C   UNL     1      -6.108   1.338  26.040  0.00  0.00    -0.071 C 
ATOM     29  C   UNL     1      -6.663   2.218  24.950  0.00  0.00    +0.039 C 
ATOM     30  C   UNL     1      -6.937   1.324  27.294  0.00  0.00    +0.039 C 
ENDBRANCH  16  20
ENDBRANCH  15  12
BRANCH   7  17
ATOM     17  C   UNL     1      -0.126  -0.302  24.464  0.00  0.00    +0.163 C 
BRANCH  17  22
ATOM      4  O   UNL     1      -0.088  -2.339  25.788  0.00  0.00    -0.274 OA
ATOM     10  N   UNL     1      -1.967  -1.865  24.556  0.00  0.00    -0.328 N 
ATOM     22  C   UNL     1      -0.687  -1.609  25.003  0.00  0.00    +0.231 C 
ATOM     40  H   UNL     1      -2.460  -1.241  23.925  0.00  0.00    +0.145 HD
ATOM     41  H   UNL     1      -2.464  -2.699  24.850  0.00  0.00    +0.145 HD
ENDBRANCH  17  22
BRANCH  17  19
ATOM     19  C   UNL     1       0.667  -0.549  23.175  0.00  0.00    +0.069 C 
BRANCH  19  21
ATOM      9  N   UNL     1       3.481   1.802  22.915  0.00  0.00    -0.360 N 
ATOM     21  C   UNL     1       1.978   0.184  23.139  0.00  0.00    -0.020 A 
ATOM     23  C   UNL     1       3.264  -0.365  23.404  0.00  0.00    +0.003 A 
ATOM     25  C   UNL     1       2.144   1.518  22.842  0.00  0.00    +0.087 A 
ATOM     26  C   UNL     1       4.189   0.670  23.256  0.00  0.00    +0.047 A 
ATOM     28  C   UNL     1       3.730  -1.647  23.755  0.00  0.00    +0.010 A 
ATOM     31  C   UNL     1       5.563   0.487  23.443  0.00  0.00    +0.026 A 
ATOM     32  C   UNL     1       5.103  -1.845  23.946  0.00  0.00    +0.001 A 
ATOM     33  C   UNL     1       6.004  -0.793  23.791  0.00  0.00    +0.002 A 
ATOM     39  H   UNL     1       3.890   2.709  22.740  0.00  0.00    +0.165 HD
ENDBRANCH  19  21
ENDBRANCH  17  19
ENDBRANCH   7  17
TORSDOF 9
ENDMDL
MODEL 4
REMARK VINA RESULT:       2.5      1.859      5.541
REMARK  Name = 11865736
REMARK  11 active torsions:
REMARK  status: ('A' for Active; 'I' for Inactive)
REMARK    1  A    between atoms: N_6  and  C_11
REMARK    2  A    between atoms: N_7  and  C_17
REMARK    3  A    between atoms: N_8  and  C_27
REMARK    4  A    between atoms: C_12  and  C_15
REMARK    5  A    between atoms: C_16  and  C_20
REMARK    6  A    between atoms: C_17  and  C_19
REMARK    7  A    between atoms: C_17  and  C_22
REMARK    8  A    between atoms: C_19  and  C_21
REMARK    9  A    between atoms: C_24  and  C_29
REMARK   10  A    between atoms: C_24  and  C_30
REMARK   11  A    between atoms: C_27  and  C_34
REMARK                            x       y       z     vdW  Elec       q    Type
REMARK                         _______ _______ _______ _____ _____    ______ ____
ROOT
ATOM      1  O   UNL     1       0.137   1.231  25.043  0.00  0.00    -0.274 OA
ATOM      7  N   UNL     1      -0.637   1.230  27.238  0.00  0.00    -0.302 N 
ATOM     15  C   UNL     1      -0.367   0.660  26.005  0.00  0.00    +0.234 C 
ATOM     37  H   UNL     1      -1.136   0.682  27.933  0.00  0.00    +0.150 HD
ENDROOT
BRANCH  15  12
ATOM      2  O   UNL     1      -3.493  -0.034  26.128  0.00  0.00    -0.271 OA
ATOM      5  N   UNL     1      -1.753  -0.982  24.926  0.00  0.00    -0.285 N 
ATOM     11  C   UNL     1       0.303  -1.752  24.004  0.00  0.00    +0.094 C 
ATOM     12  C   UNL     1      -0.741  -0.791  25.957  0.00  0.00    +0.164 C 
ATOM     13  C   UNL     1       0.437  -1.660  25.524  0.00  0.00    +0.056 C 
ATOM     14  C   UNL     1      -1.206  -1.705  23.775  0.00  0.00    +0.131 C 
ATOM     16  C   UNL     1      -3.078  -0.644  25.142  0.00  0.00    +0.240 C 
BRANCH  11   6
ATOM      3  O   UNL     1       3.142  -1.488  23.561  0.00  0.00    -0.253 OA
ATOM      6  N   UNL     1       0.980  -0.667  23.339  0.00  0.00    -0.295 N 
ATOM      8  N   UNL     1       2.751   0.536  22.495  0.00  0.00    -0.296 N 
ATOM     18  C   UNL     1       2.362  -0.620  23.168  0.00  0.00    +0.300 C 
ATOM     36  H   UNL     1       0.432   0.131  23.034  0.00  0.00    +0.151 HD
ATOM     38  H   UNL     1       2.033   1.189  22.193  0.00  0.00    +0.151 HD
BRANCH   8  27
ATOM     27  C   UNL     1       4.128   0.837  22.187  0.00  0.00    +0.132 C 
BRANCH  27  34
ATOM     34  C   UNL     1       4.935   0.770  23.441  0.00  0.00    -0.016 C 
ATOM     35  C   UNL     1       5.938  -0.093  23.637  0.00  0.00    +0.005 C 
ENDBRANCH  27  34
ENDBRANCH   8  27
ENDBRANCH  11   6
BRANCH  16  20
ATOM     20  C   UNL     1      -4.045  -1.051  24.104  0.00  0.00    +0.066 C 
ATOM     24  C   UNL     1      -4.374  -2.323  23.817  0.00  0.00    -0.071 C 
ATOM     29  C   UNL     1      -3.735  -3.450  24.585  0.00  0.00    +0.039 C 
ATOM     30  C   UNL     1      -5.353  -2.776  22.770  0.00  0.00    +0.039 C 
ENDBRANCH  16  20
ENDBRANCH  15  12
BRANCH   7  17
ATOM     17  C   UNL     1      -0.348   2.611  27.550  0.00  0.00    +0.163 C 
BRANCH  17  22
ATOM      4  O   UNL     1       2.035   3.084  27.517  0.00  0.00    -0.274 OA
ATOM     10  N   UNL     1       1.117   2.205  29.429  0.00  0.00    -0.328 N 
ATOM     22  C   UNL     1       1.060   2.654  28.126  0.00  0.00    +0.231 C 
ATOM     40  H   UNL     1       0.298   1.874  29.929  0.00  0.00    +0.145 HD
ATOM     41  H   UNL     1       1.995   2.193  29.937  0.00  0.00    +0.145 HD
ENDBRANCH  17  22
BRANCH  17  19
ATOM     19  C   UNL     1      -0.451   3.518  26.318  0.00  0.00    +0.069 C 
BRANCH  19  21
ATOM      9  N   UNL     1      -4.009   4.121  25.615  0.00  0.00    -0.360 N 
ATOM     21  C   UNL     1      -1.850   3.629  25.783  0.00  0.00    -0.020 A 
ATOM     23  C   UNL     1      -2.321   3.141  24.532  0.00  0.00    +0.003 A 
ATOM     25  C   UNL     1      -2.911   4.227  26.426  0.00  0.00    +0.087 A 
ATOM     26  C   UNL     1      -3.677   3.462  24.451  0.00  0.00    +0.047 A 
ATOM     28  C   UNL     1      -1.721   2.455  23.458  0.00  0.00    +0.010 A 
ATOM     31  C   UNL     1      -4.468   3.131  23.345  0.00  0.00    +0.026 A 
ATOM     32  C   UNL     1      -2.499   2.116  22.345  0.00  0.00    +0.001 A 
ATOM     33  C   UNL     1      -3.851   2.450  22.291  0.00  0.00    +0.002 A 
ATOM     39  H   UNL     1      -4.929   4.472  25.839  0.00  0.00    +0.165 HD
ENDBRANCH  19  21
ENDBRANCH  17  19
ENDBRANCH   7  17
TORSDOF 9
ENDMDL
MODEL 5
REMARK VINA RESULT:       3.2      1.673      4.197
REMARK  Name = 11865736
REMARK  11 active torsions:
REMARK  status: ('A' for Active; 'I' for Inactive)
REMARK    1  A    between atoms: N_6  and  C_11
REMARK    2  A    between atoms: N_7  and  C_17
REMARK    3  A    between atoms: N_8  and  C_27
REMARK    4  A    between atoms: C_12  and  C_15
REMARK    5  A    between atoms: C_16  and  C_20
REMARK    6  A    between atoms: C_17  and  C_19
REMARK    7  A    between atoms: C_17  and  C_22
REMARK    8  A    between atoms: C_19  and  C_21
REMARK    9  A    between atoms: C_24  and  C_29
REMARK   10  A    between atoms: C_24  and  C_30
REMARK   11  A    between atoms: C_27  and  C_34
REMARK                            x       y       z     vdW  Elec       q    Type
REMARK                         _______ _______ _______ _____ _____    ______ ____
ROOT
ATOM      1  O   UNL     1       1.111   2.222  24.068  0.00  0.00    -0.274 OA
ATOM      7  N   UNL     1      -0.567   0.666  23.644  0.00  0.00    -0.302 N 
ATOM     15  C   UNL     1      -0.022   1.938  23.691  0.00  0.00    +0.234 C 
ATOM     37  H   UNL     1      -1.547   0.561  23.395  0.00  0.00    +0.150 HD
ENDROOT
BRANCH  15  12
ATOM      2  O   UNL     1      -2.990   0.966  22.976  0.00  0.00    -0.271 OA
ATOM      5  N   UNL     1      -2.205   2.907  23.972  0.00  0.00    -0.285 N 
ATOM     11  C   UNL     1      -0.996   4.781  24.805  0.00  0.00    +0.094 C 
ATOM     12  C   UNL     1      -0.975   2.983  23.194  0.00  0.00    +0.164 C 
ATOM     13  C   UNL     1      -0.439   4.392  23.435  0.00  0.00    +0.056 C 
ATOM     14  C   UNL     1      -2.343   4.064  24.859  0.00  0.00    +0.131 C 
ATOM     16  C   UNL     1      -3.151   1.924  23.733  0.00  0.00    +0.240 C 
BRANCH  11   6
ATOM      3  O   UNL     1      -1.296   2.457  26.489  0.00  0.00    -0.253 OA
ATOM      6  N   UNL     1      -0.125   4.367  25.876  0.00  0.00    -0.295 N 
ATOM      8  N   UNL     1       0.646   3.061  27.606  0.00  0.00    -0.296 N 
ATOM     18  C   UNL     1      -0.346   3.225  26.642  0.00  0.00    +0.300 C 
ATOM     36  H   UNL     1       0.654   4.968  26.125  0.00  0.00    +0.151 HD
ATOM     38  H   UNL     1       1.403   3.738  27.647  0.00  0.00    +0.151 HD
BRANCH   8  27
ATOM     27  C   UNL     1       0.660   1.958  28.536  0.00  0.00    +0.132 C 
BRANCH  27  34
ATOM     34  C   UNL     1       1.763   2.162  29.521  0.00  0.00    -0.016 C 
ATOM     35  C   UNL     1       2.858   2.889  29.273  0.00  0.00    +0.005 C 
ENDBRANCH  27  34
ENDBRANCH   8  27
ENDBRANCH  11   6
BRANCH  16  20
ATOM     20  C   UNL     1      -4.436   2.052  24.448  0.00  0.00    +0.066 C 
ATOM     24  C   UNL     1      -4.939   1.136  25.293  0.00  0.00    -0.071 C 
ATOM     29  C   UNL     1      -4.172  -0.133  25.561  0.00  0.00    +0.039 C 
ATOM     30  C   UNL     1      -6.241   1.231  26.039  0.00  0.00    +0.039 C 
ENDBRANCH  16  20
ENDBRANCH  15  12
BRANCH   7  17
ATOM     17  C   UNL     1       0.156  -0.519  24.046  0.00  0.00    +0.163 C 
BRANCH  17  22
ATOM      4  O   UNL     1      -1.646  -2.141  23.874  0.00  0.00    -0.274 OA
ATOM     10  N   UNL     1      -0.802  -1.654  25.954  0.00  0.00    -0.328 N 
ATOM     22  C   UNL     1      -0.870  -1.507  24.584  0.00  0.00    +0.231 C 
ATOM     40  H   UNL     1      -0.138  -1.141  26.525  0.00  0.00    +0.145 HD
ATOM     41  H   UNL     1      -1.421  -2.293  26.439  0.00  0.00    +0.145 HD
ENDBRANCH  17  22
BRANCH  17  19
ATOM     19  C   UNL     1       0.942  -1.141  22.886  0.00  0.00    +0.069 C 
BRANCH  19  21
ATOM      9  N   UNL     1       3.695   0.999  21.722  0.00  0.00    -0.360 N 
ATOM     21  C   UNL     1       2.228  -0.421  22.592  0.00  0.00    -0.020 A 
ATOM     23  C   UNL     1       3.499  -0.684  23.174  0.00  0.00    +0.003 A 
ATOM     25  C   UNL     1       2.380   0.620  21.704  0.00  0.00    +0.087 A 
ATOM     26  C   UNL     1       4.402   0.220  22.612  0.00  0.00    +0.047 A 
ATOM     28  C   UNL     1       3.969  -1.608  24.128  0.00  0.00    +0.010 A 
ATOM     31  C   UNL     1       5.758   0.247  22.957  0.00  0.00    +0.026 A 
ATOM     32  C   UNL     1       5.324  -1.592  24.483  0.00  0.00    +0.001 A 
ATOM     33  C   UNL     1       6.202  -0.678  23.905  0.00  0.00    +0.002 A 
ATOM     39  H   UNL     1       4.091   1.741  21.163  0.00  0.00    +0.165 HD
ENDBRANCH  19  21
ENDBRANCH  17  19
ENDBRANCH   7  17
TORSDOF 9
ENDMDL
MODEL 6
REMARK VINA RESULT:       3.3      1.506      2.090
REMARK  Name = 11865736
REMARK  11 active torsions:
REMARK  status: ('A' for Active; 'I' for Inactive)
REMARK    1  A    between atoms: N_6  and  C_11
REMARK    2  A    between atoms: N_7  and  C_17
REMARK    3  A    between atoms: N_8  and  C_27
REMARK    4  A    between atoms: C_12  and  C_15
REMARK    5  A    between atoms: C_16  and  C_20
REMARK    6  A    between atoms: C_17  and  C_19
REMARK    7  A    between atoms: C_17  and  C_22
REMARK    8  A    between atoms: C_19  and  C_21
REMARK    9  A    between atoms: C_24  and  C_29
REMARK   10  A    between atoms: C_24  and  C_30
REMARK   11  A    between atoms: C_27  and  C_34
REMARK                            x       y       z     vdW  Elec       q    Type
REMARK                         _______ _______ _______ _____ _____    ______ ____
ROOT
ATOM      1  O   UNL     1      -2.189   1.903  21.957  0.00  0.00    -0.274 OA
ATOM      7  N   UNL     1      -1.110   2.191  23.999  0.00  0.00    -0.302 N 
ATOM     15  C   UNL     1      -1.996   2.535  22.992  0.00  0.00    +0.234 C 
ATOM     37  H   UNL     1      -0.971   2.837  24.771  0.00  0.00    +0.150 HD
ENDROOT
BRANCH  15  12
ATOM      2  O   UNL     1      -5.170   2.270  23.343  0.00  0.00    -0.271 OA
ATOM      5  N   UNL     1      -3.600   3.556  24.463  0.00  0.00    -0.285 N 
ATOM     11  C   UNL     1      -1.726   4.799  25.244  0.00  0.00    +0.094 C 
ATOM     12  C   UNL     1      -2.750   3.792  23.304  0.00  0.00    +0.164 C 
ATOM     13  C   UNL     1      -1.811   4.921  23.722  0.00  0.00    +0.056 C 
ATOM     14  C   UNL     1      -3.105   4.277  25.639  0.00  0.00    +0.131 C 
ATOM     16  C   UNL     1      -4.794   2.863  24.355  0.00  0.00    +0.240 C 
BRANCH  11   6
ATOM      3  O   UNL     1      -1.486   3.444  27.781  0.00  0.00    -0.253 OA
ATOM      6  N   UNL     1      -0.675   3.899  25.652  0.00  0.00    -0.295 N 
ATOM      8  N   UNL     1       0.483   2.470  27.034  0.00  0.00    -0.296 N 
ATOM     18  C   UNL     1      -0.638   3.286  26.903  0.00  0.00    +0.300 C 
ATOM     36  H   UNL     1       0.107   3.752  25.023  0.00  0.00    +0.151 HD
ATOM     38  H   UNL     1       1.120   2.387  26.248  0.00  0.00    +0.151 HD
BRANCH   8  27
ATOM     27  C   UNL     1       0.766   1.716  28.232  0.00  0.00    +0.132 C 
BRANCH  27  34
ATOM     34  C   UNL     1       1.548   2.572  29.173  0.00  0.00    -0.016 C 
ATOM     35  C   UNL     1       2.843   2.867  29.012  0.00  0.00    +0.005 C 
ENDBRANCH  27  34
ENDBRANCH   8  27
ENDBRANCH  11   6
BRANCH  16  20
ATOM     20  C   UNL     1      -5.662   2.844  25.548  0.00  0.00    +0.066 C 
ATOM     24  C   UNL     1      -5.918   1.756  26.294  0.00  0.00    -0.071 C 
ATOM     29  C   UNL     1      -5.297   0.434  25.924  0.00  0.00    +0.039 C 
ATOM     30  C   UNL     1      -6.794   1.697  27.515  0.00  0.00    +0.039 C 
ENDBRANCH  16  20
ENDBRANCH  15  12
BRANCH   7  17
ATOM     17  C   UNL     1      -0.279   1.009  23.952  0.00  0.00    +0.163 C 
BRANCH  17  22
ATOM      4  O   UNL     1       1.588   2.562  24.035  0.00  0.00    -0.274 OA
ATOM     10  N   UNL     1       1.901   0.521  23.030  0.00  0.00    -0.328 N 
ATOM     22  C   UNL     1       1.143   1.474  23.678  0.00  0.00    +0.231 C 
ATOM     40  H   UNL     1       1.526  -0.384  22.762  0.00  0.00    +0.145 HD
ATOM     41  H   UNL     1       2.872   0.697  22.798  0.00  0.00    +0.145 HD
ENDBRANCH  17  22
BRANCH  17  19
ATOM     19  C   UNL     1      -0.339   0.205  25.257  0.00  0.00    +0.069 C 
BRANCH  19  21
ATOM      9  N   UNL     1      -1.271  -3.348  25.103  0.00  0.00    -0.360 N 
ATOM     21  C   UNL     1      -0.968  -1.148  25.086  0.00  0.00    -0.020 A 
ATOM     23  C   UNL     1      -2.266  -1.422  24.573  0.00  0.00    +0.003 A 
ATOM     25  C   UNL     1      -0.380  -2.352  25.405  0.00  0.00    +0.087 A 
ATOM     26  C   UNL     1      -2.431  -2.808  24.594  0.00  0.00    +0.047 A 
ATOM     28  C   UNL     1      -3.319  -0.620  24.090  0.00  0.00    +0.010 A 
ATOM     31  C   UNL     1      -3.602  -3.436  24.155  0.00  0.00    +0.026 A 
ATOM     32  C   UNL     1      -4.497  -1.235  23.647  0.00  0.00    +0.001 A 
ATOM     33  C   UNL     1      -4.634  -2.621  23.680  0.00  0.00    +0.002 A 
ATOM     39  H   UNL     1      -1.101  -4.335  25.233  0.00  0.00    +0.165 HD
ENDBRANCH  19  21
ENDBRANCH  17  19
ENDBRANCH   7  17
TORSDOF 9
ENDMDL
MODEL 7
REMARK VINA RESULT:       4.2      1.941      4.221
REMARK  Name = 11865736
REMARK  11 active torsions:
REMARK  status: ('A' for Active; 'I' for Inactive)
REMARK    1  A    between atoms: N_6  and  C_11
REMARK    2  A    between atoms: N_7  and  C_17
REMARK    3  A    between atoms: N_8  and  C_27
REMARK    4  A    between atoms: C_12  and  C_15
REMARK    5  A    between atoms: C_16  and  C_20
REMARK    6  A    between atoms: C_17  and  C_19
REMARK    7  A    between atoms: C_17  and  C_22
REMARK    8  A    between atoms: C_19  and  C_21
REMARK    9  A    between atoms: C_24  and  C_29
REMARK   10  A    between atoms: C_24  and  C_30
REMARK   11  A    between atoms: C_27  and  C_34
REMARK                            x       y       z     vdW  Elec       q    Type
REMARK                         _______ _______ _______ _____ _____    ______ ____
ROOT
ATOM      1  O   UNL     1      -3.525  -0.303  25.513  0.00  0.00    -0.274 OA
ATOM      7  N   UNL     1      -1.631  -0.541  24.182  0.00  0.00    -0.302 N 
ATOM     15  C   UNL     1      -2.804   0.070  24.592  0.00  0.00    +0.234 C 
ATOM     37  H   UNL     1      -1.162  -0.193  23.350  0.00  0.00    +0.150 HD
ENDROOT
BRANCH  15  12
ATOM      2  O   UNL     1      -5.850   1.064  24.591  0.00  0.00    -0.271 OA
ATOM      5  N   UNL     1      -3.850   2.235  24.631  0.00  0.00    -0.285 N 
ATOM     11  C   UNL     1      -1.614   3.045  24.515  0.00  0.00    +0.094 C 
ATOM     12  C   UNL     1      -3.115   1.298  23.791  0.00  0.00    +0.164 C 
ATOM     13  C   UNL     1      -1.843   2.040  23.385  0.00  0.00    +0.056 C 
ATOM     14  C   UNL     1      -3.027   3.398  24.972  0.00  0.00    +0.131 C 
ATOM     16  C   UNL     1      -5.198   2.063  24.897  0.00  0.00    +0.240 C 
BRANCH  11   6
ATOM      3  O   UNL     1       0.614   4.275  25.874  0.00  0.00    -0.253 OA
ATOM      6  N   UNL     1      -0.830   2.480  25.585  0.00  0.00    -0.295 N 
ATOM      8  N   UNL     1       0.816   2.374  27.189  0.00  0.00    -0.296 N 
ATOM     18  C   UNL     1       0.234   3.147  26.186  0.00  0.00    +0.300 C 
ATOM     36  H   UNL     1      -1.022   1.526  25.873  0.00  0.00    +0.151 HD
ATOM     38  H   UNL     1       0.422   1.459  27.389  0.00  0.00    +0.151 HD
BRANCH   8  27
ATOM     27  C   UNL     1       1.940   2.826  27.973  0.00  0.00    +0.132 C 
BRANCH  27  34
ATOM     34  C   UNL     1       1.845   2.242  29.344  0.00  0.00    -0.016 C 
ATOM     35  C   UNL     1       0.932   2.611  30.250  0.00  0.00    +0.005 C 
ENDBRANCH  27  34
ENDBRANCH   8  27
ENDBRANCH  11   6
BRANCH  16  20
ATOM     20  C   UNL     1      -5.882   3.165  25.601  0.00  0.00    +0.066 C 
ATOM     24  C   UNL     1      -5.756   4.468  25.293  0.00  0.00    -0.071 C 
ATOM     29  C   UNL     1      -4.862   4.882  24.153  0.00  0.00    +0.039 C 
ATOM     30  C   UNL     1      -6.435   5.617  25.984  0.00  0.00    +0.039 C 
ENDBRANCH  16  20
ENDBRANCH  15  12
BRANCH   7  17
ATOM     17  C   UNL     1      -1.098  -1.730  24.807  0.00  0.00    +0.163 C 
BRANCH  17  22
ATOM      4  O   UNL     1      -1.919  -3.597  23.487  0.00  0.00    -0.274 OA
ATOM     10  N   UNL     1      -3.030  -3.047  25.420  0.00  0.00    -0.328 N 
ATOM     22  C   UNL     1      -2.044  -2.874  24.471  0.00  0.00    +0.231 C 
ATOM     40  H   UNL     1      -3.107  -2.456  26.241  0.00  0.00    +0.145 HD
ATOM     41  H   UNL     1      -3.720  -3.784  25.324  0.00  0.00    +0.145 HD
ENDBRANCH  17  22
BRANCH  17  19
ATOM     19  C   UNL     1       0.323  -2.051  24.327  0.00  0.00    +0.069 C 
BRANCH  19  21
ATOM      9  N   UNL     1       1.432   1.141  22.878  0.00  0.00    -0.360 N 
ATOM     21  C   UNL     1       1.040  -0.854  23.769  0.00  0.00    -0.020 A 
ATOM     23  C   UNL     1       2.448  -0.697  23.632  0.00  0.00    +0.003 A 
ATOM     25  C   UNL     1       0.442   0.292  23.298  0.00  0.00    +0.087 A 
ATOM     26  C   UNL     1       2.667   0.562  23.071  0.00  0.00    +0.047 A 
ATOM     28  C   UNL     1       3.559  -1.509  23.932  0.00  0.00    +0.010 A 
ATOM     31  C   UNL     1       3.947   1.053  22.793  0.00  0.00    +0.026 A 
ATOM     32  C   UNL     1       4.847  -1.031  23.660  0.00  0.00    +0.001 A 
ATOM     33  C   UNL     1       5.035   0.231  23.099  0.00  0.00    +0.002 A 
ATOM     39  H   UNL     1       1.278   2.057  22.482  0.00  0.00    +0.165 HD
ENDBRANCH  19  21
ENDBRANCH  17  19
ENDBRANCH   7  17
TORSDOF 9
ENDMDL
