MODEL 1
REMARK VINA RESULT:       3.0      0.000      0.000
REMARK  Name = 11887598
REMARK  8 active torsions:
REMARK  status: ('A' for Active; 'I' for Inactive)
REMARK    1  A    between atoms: S_1  and  N_7
REMARK    2  A    between atoms: S_1  and  C_27
REMARK    3  A    between atoms: N_8  and  C_19
REMARK    4  A    between atoms: C_12  and  C_15
REMARK    5  A    between atoms: C_15  and  C_19
REMARK    6  A    between atoms: C_19  and  C_25
REMARK    7  A    between atoms: C_20  and  C_23
REMARK    8  A    between atoms: C_26  and  C_28
REMARK                            x       y       z     vdW  Elec       q    Type
REMARK                         _______ _______ _______ _____ _____    ______ ____
ROOT
ATOM      6  O   UNL     1       0.910  -0.865  22.210  0.00  0.00    -0.270 OA
ATOM      7  N   UNL     1      -0.919   3.176  24.660  0.00  0.00    -0.162 NA
ATOM      9  N   UNL     1       0.670   1.207  23.266  0.00  0.00    -0.294 N 
ATOM     20  C   UNL     1      -1.556   1.938  24.131  0.00  0.00    +0.183 C 
ATOM     21  C   UNL     1      -0.766   1.291  22.997  0.00  0.00    +0.138 C 
ATOM     22  C   UNL     1       0.355   3.558  23.999  0.00  0.00    +0.129 C 
ATOM     24  C   UNL     1       1.278   2.350  23.956  0.00  0.00    +0.125 C 
ATOM     26  C   UNL     1       1.391   0.106  22.792  0.00  0.00    +0.248 C 
ENDROOT
BRANCH  26  28
ATOM     11  N   UNL     1       4.810  -1.077  23.767  0.00  0.00    -0.263 NA
ATOM     28  C   UNL     1       2.848   0.096  22.997  0.00  0.00    +0.055 A 
ATOM     33  C   UNL     1       3.623   1.187  22.636  0.00  0.00    +0.016 A 
ATOM     34  C   UNL     1       3.478  -1.002  23.552  0.00  0.00    +0.123 A 
ATOM     36  C   UNL     1       4.998   1.149  22.842  0.00  0.00    +0.020 A 
ATOM     37  C   UNL     1       5.537   0.004  23.406  0.00  0.00    +0.111 A 
ENDBRANCH  26  28
BRANCH  20  23
ATOM      2  O   UNL     1      -2.122   1.411  26.386  0.00  0.00    -0.274 OA
ATOM      8  N   UNL     1      -1.128  -0.224  25.059  0.00  0.00    -0.303 N 
ATOM     23  C   UNL     1      -1.648   1.033  25.318  0.00  0.00    +0.234 C 
ATOM     38  H   UNL     1      -0.683  -0.399  24.163  0.00  0.00    +0.149 HD
BRANCH   8  19
ATOM     19  C   UNL     1      -1.078  -1.277  26.048  0.00  0.00    +0.159 C 
BRANCH  19  25
ATOM      5  O   UNL     1       0.155  -3.370  25.980  0.00  0.00    -0.274 OA
ATOM     10  N   UNL     1      -0.851  -2.629  24.053  0.00  0.00    -0.328 N 
ATOM     25  C   UNL     1      -0.529  -2.537  25.391  0.00  0.00    +0.231 C 
ATOM     39  H   UNL     1      -0.539  -3.417  23.496  0.00  0.00    +0.145 HD
ATOM     40  H   UNL     1      -1.399  -1.923  23.573  0.00  0.00    +0.145 HD
ENDBRANCH  19  25
BRANCH  19  15
ATOM     15  C   UNL     1      -2.434  -1.503  26.723  0.00  0.00    +0.035 C 
BRANCH  15  12
ATOM     12  C   UNL     1      -3.562  -1.859  25.757  0.00  0.00    -0.009 C 
ATOM     13  C   UNL     1      -3.798  -0.720  24.756  0.00  0.00    +0.003 C 
ATOM     14  C   UNL     1      -3.255  -3.173  25.026  0.00  0.00    +0.003 C 
ATOM     16  C   UNL     1      -4.887  -1.074  23.745  0.00  0.00    +0.000 C 
ATOM     17  C   UNL     1      -4.344  -3.523  24.014  0.00  0.00    +0.000 C 
ATOM     18  C   UNL     1      -4.582  -2.385  23.027  0.00  0.00    +0.000 C 
ENDBRANCH  15  12
ENDBRANCH  19  15
ENDBRANCH   8  19
ENDBRANCH  20  23
BRANCH   7   1
ATOM      1  S   UNL     1      -1.964   4.461  25.083  0.00  0.00    +0.062 S 
ATOM      3  O   UNL     1      -1.919   5.470  24.046  0.00  0.00    -0.153 OA
ATOM      4  O   UNL     1      -1.743   4.810  26.471  0.00  0.00    -0.153 OA
BRANCH   1  27
ATOM     27  C   UNL     1      -3.524   3.642  24.971  0.00  0.00    +0.106 A 
ATOM     29  C   UNL     1      -4.314   3.531  26.103  0.00  0.00    +0.028 A 
ATOM     30  C   UNL     1      -3.930   3.122  23.753  0.00  0.00    +0.028 A 
ATOM     31  C   UNL     1      -5.545   2.882  26.014  0.00  0.00    +0.002 A 
ATOM     32  C   UNL     1      -5.161   2.473  23.664  0.00  0.00    +0.002 A 
ATOM     35  C   UNL     1      -5.970   2.353  24.795  0.00  0.00    +0.000 A 
ENDBRANCH   1  27
ENDBRANCH   7   1
TORSDOF 8
ENDMDL
MODEL 2
REMARK VINA RESULT:       4.0      2.124      6.539
REMARK  Name = 11887598
REMARK  8 active torsions:
REMARK  status: ('A' for Active; 'I' for Inactive)
REMARK    1  A    between atoms: S_1  and  N_7
REMARK    2  A    between atoms: S_1  and  C_27
REMARK    3  A    between atoms: N_8  and  C_19
REMARK    4  A    between atoms: C_12  and  C_15
REMARK    5  A    between atoms: C_15  and  C_19
REMARK    6  A    between atoms: C_19  and  C_25
REMARK    7  A    between atoms: C_20  and  C_23
REMARK    8  A    between atoms: C_26  and  C_28
REMARK                            x       y       z     vdW  Elec       q    Type
REMARK                         _______ _______ _______ _____ _____    ______ ____
ROOT
ATOM      6  O   UNL     1      -1.302   2.369  27.424  0.00  0.00    -0.270 OA
ATOM      7  N   UNL     1       0.585   0.246  23.227  0.00  0.00    -0.162 NA
ATOM      9  N   UNL     1      -0.373   2.004  25.310  0.00  0.00    -0.294 N 
ATOM     20  C   UNL     1       0.149  -0.312  24.537  0.00  0.00    +0.183 C 
ATOM     21  C   UNL     1       0.196   0.706  25.673  0.00  0.00    +0.138 C 
ATOM     22  C   UNL     1       0.984   1.677  23.257  0.00  0.00    +0.129 C 
ATOM     24  C   UNL     1      -0.103   2.485  23.950  0.00  0.00    +0.125 C 
ATOM     26  C   UNL     1      -1.061   2.743  26.278  0.00  0.00    +0.248 C 
ENDROOT
BRANCH  26  28
ATOM     11  N   UNL     1      -3.167   5.841  26.203  0.00  0.00    -0.263 NA
ATOM     28  C   UNL     1      -1.541   4.084  25.910  0.00  0.00    +0.055 A 
ATOM     33  C   UNL     1      -0.866   4.845  24.966  0.00  0.00    +0.016 A 
ATOM     34  C   UNL     1      -2.673   4.618  26.495  0.00  0.00    +0.123 A 
ATOM     36  C   UNL     1      -1.343   6.110  24.639  0.00  0.00    +0.020 A 
ATOM     37  C   UNL     1      -2.487   6.557  25.278  0.00  0.00    +0.111 A 
ENDBRANCH  26  28
BRANCH  20  23
ATOM      2  O   UNL     1      -1.625  -1.135  23.174  0.00  0.00    -0.274 OA
ATOM      8  N   UNL     1      -2.017  -0.771  25.440  0.00  0.00    -0.303 N 
ATOM     23  C   UNL     1      -1.246  -0.791  24.291  0.00  0.00    +0.234 C 
ATOM     38  H   UNL     1      -1.621  -0.385  26.293  0.00  0.00    +0.149 HD
BRANCH   8  19
ATOM     19  C   UNL     1      -3.407  -1.164  25.466  0.00  0.00    +0.159 C 
BRANCH  19  25
ATOM      5  O   UNL     1      -3.077  -3.524  25.944  0.00  0.00    -0.274 OA
ATOM     10  N   UNL     1      -4.070  -2.938  23.958  0.00  0.00    -0.328 N 
ATOM     25  C   UNL     1      -3.497  -2.658  25.181  0.00  0.00    +0.231 C 
ATOM     39  H   UNL     1      -4.182  -3.896  23.644  0.00  0.00    +0.145 HD
ATOM     40  H   UNL     1      -4.394  -2.212  23.328  0.00  0.00    +0.145 HD
ENDBRANCH  19  25
BRANCH  19  15
ATOM     15  C   UNL     1      -4.264  -0.326  24.512  0.00  0.00    +0.035 C 
BRANCH  15  12
ATOM     12  C   UNL     1      -4.208   1.177  24.777  0.00  0.00    -0.009 C 
ATOM     13  C   UNL     1      -3.899   1.944  23.484  0.00  0.00    +0.003 C 
ATOM     14  C   UNL     1      -5.521   1.667  25.401  0.00  0.00    +0.003 C 
ATOM     16  C   UNL     1      -3.889   3.454  23.713  0.00  0.00    +0.000 C 
ATOM     17  C   UNL     1      -5.509   3.177  25.627  0.00  0.00    +0.000 C 
ATOM     18  C   UNL     1      -5.193   3.936  24.342  0.00  0.00    +0.000 C 
ENDBRANCH  15  12
ENDBRANCH  19  15
ENDBRANCH   8  19
ENDBRANCH  20  23
BRANCH   7   1
ATOM      1  S   UNL     1       1.518  -0.777  22.224  0.00  0.00    +0.062 S 
ATOM      3  O   UNL     1       1.491  -0.265  20.870  0.00  0.00    -0.153 OA
ATOM      4  O   UNL     1       1.173  -2.154  22.506  0.00  0.00    -0.153 OA
BRANCH   1  27
ATOM     27  C   UNL     1       3.127  -0.474  22.884  0.00  0.00    +0.106 A 
ATOM     29  C   UNL     1       3.731   0.752  22.661  0.00  0.00    +0.028 A 
ATOM     30  C   UNL     1       3.759  -1.469  23.612  0.00  0.00    +0.028 A 
ATOM     31  C   UNL     1       5.003   0.990  23.180  0.00  0.00    +0.002 A 
ATOM     32  C   UNL     1       5.031  -1.230  24.132  0.00  0.00    +0.002 A 
ATOM     35  C   UNL     1       5.654   0.000  23.916  0.00  0.00    +0.000 A 
ENDBRANCH   1  27
ENDBRANCH   7   1
TORSDOF 8
ENDMDL
MODEL 3
REMARK VINA RESULT:       4.1      2.999      4.629
REMARK  Name = 11887598
REMARK  8 active torsions:
REMARK  status: ('A' for Active; 'I' for Inactive)
REMARK    1  A    between atoms: S_1  and  N_7
REMARK    2  A    between atoms: S_1  and  C_27
REMARK    3  A    between atoms: N_8  and  C_19
REMARK    4  A    between atoms: C_12  and  C_15
REMARK    5  A    between atoms: C_15  and  C_19
REMARK    6  A    between atoms: C_19  and  C_25
REMARK    7  A    between atoms: C_20  and  C_23
REMARK    8  A    between atoms: C_26  and  C_28
REMARK                            x       y       z     vdW  Elec       q    Type
REMARK                         _______ _______ _______ _____ _____    ______ ____
ROOT
ATOM      6  O   UNL     1       2.396   4.261  27.311  0.00  0.00    -0.270 OA
ATOM      7  N   UNL     1      -1.381   2.180  24.650  0.00  0.00    -0.162 NA
ATOM      9  N   UNL     1       0.424   3.181  26.671  0.00  0.00    -0.294 N 
ATOM     20  C   UNL     1      -0.172   2.956  24.256  0.00  0.00    +0.183 C 
ATOM     21  C   UNL     1       0.359   3.851  25.372  0.00  0.00    +0.138 C 
ATOM     22  C   UNL     1      -1.851   2.412  26.040  0.00  0.00    +0.129 C 
ATOM     24  C   UNL     1      -0.676   2.266  26.996  0.00  0.00    +0.125 C 
ATOM     26  C   UNL     1       1.462   3.499  27.553  0.00  0.00    +0.248 C 
ENDROOT
BRANCH  26  28
ATOM     11  N   UNL     1       2.507   1.422  30.491  0.00  0.00    -0.263 NA
ATOM     28  C   UNL     1       1.448   2.879  28.887  0.00  0.00    +0.055 A 
ATOM     33  C   UNL     1       0.418   3.138  29.779  0.00  0.00    +0.016 A 
ATOM     34  C   UNL     1       2.460   2.024  29.282  0.00  0.00    +0.123 A 
ATOM     36  C   UNL     1       0.432   2.537  31.034  0.00  0.00    +0.020 A 
ATOM     37  C   UNL     1       1.489   1.695  31.338  0.00  0.00    +0.111 A 
ENDBRANCH  26  28
BRANCH  20  23
ATOM      2  O   UNL     1       1.976   2.206  23.546  0.00  0.00    -0.274 OA
ATOM      8  N   UNL     1       0.295   0.636  23.908  0.00  0.00    -0.303 N 
ATOM     23  C   UNL     1       0.828   1.913  23.871  0.00  0.00    +0.234 C 
ATOM     38  H   UNL     1      -0.694   0.520  24.109  0.00  0.00    +0.149 HD
BRANCH   8  19
ATOM     19  C   UNL     1       1.049  -0.545  23.557  0.00  0.00    +0.159 C 
BRANCH  19  25
ATOM      5  O   UNL     1       0.794  -0.715  21.146  0.00  0.00    -0.274 OA
ATOM     10  N   UNL     1       2.803   0.016  21.985  0.00  0.00    -0.328 N 
ATOM     25  C   UNL     1       1.501  -0.424  22.107  0.00  0.00    +0.231 C 
ATOM     39  H   UNL     1       3.228   0.133  21.072  0.00  0.00    +0.145 HD
ATOM     40  H   UNL     1       3.383   0.234  22.788  0.00  0.00    +0.145 HD
ENDBRANCH  19  25
BRANCH  19  15
ATOM     15  C   UNL     1       0.267  -1.835  23.828  0.00  0.00    +0.035 C 
BRANCH  15  12
ATOM     12  C   UNL     1      -1.187  -1.609  24.239  0.00  0.00    -0.009 C 
ATOM     13  C   UNL     1      -2.040  -2.842  23.911  0.00  0.00    +0.003 C 
ATOM     14  C   UNL     1      -1.281  -1.260  25.730  0.00  0.00    +0.003 C 
ATOM     16  C   UNL     1      -3.489  -2.661  24.361  0.00  0.00    +0.000 C 
ATOM     17  C   UNL     1      -2.730  -1.082  26.177  0.00  0.00    +0.000 C 
ATOM     18  C   UNL     1      -3.578  -2.307  25.842  0.00  0.00    +0.000 C 
ENDBRANCH  15  12
ENDBRANCH  19  15
ENDBRANCH   8  19
ENDBRANCH  20  23
BRANCH   7   1
ATOM      1  S   UNL     1      -2.597   1.993  23.463  0.00  0.00    +0.062 S 
ATOM      3  O   UNL     1      -2.642   0.608  23.045  0.00  0.00    -0.153 OA
ATOM      4  O   UNL     1      -2.475   3.060  22.492  0.00  0.00    -0.153 OA
BRANCH   1  27
ATOM     27  C   UNL     1      -4.034   2.309  24.439  0.00  0.00    +0.106 A 
ATOM     29  C   UNL     1      -4.846   1.251  24.812  0.00  0.00    +0.028 A 
ATOM     30  C   UNL     1      -4.325   3.610  24.815  0.00  0.00    +0.028 A 
ATOM     31  C   UNL     1      -5.982   1.501  25.582  0.00  0.00    +0.002 A 
ATOM     32  C   UNL     1      -5.461   3.860  25.585  0.00  0.00    +0.002 A 
ATOM     35  C   UNL     1      -6.290   2.805  25.969  0.00  0.00    +0.000 A 
ENDBRANCH   1  27
ENDBRANCH   7   1
TORSDOF 8
ENDMDL
MODEL 4
REMARK VINA RESULT:       5.8      1.471      2.435
REMARK  Name = 11887598
REMARK  8 active torsions:
REMARK  status: ('A' for Active; 'I' for Inactive)
REMARK    1  A    between atoms: S_1  and  N_7
REMARK    2  A    between atoms: S_1  and  C_27
REMARK    3  A    between atoms: N_8  and  C_19
REMARK    4  A    between atoms: C_12  and  C_15
REMARK    5  A    between atoms: C_15  and  C_19
REMARK    6  A    between atoms: C_19  and  C_25
REMARK    7  A    between atoms: C_20  and  C_23
REMARK    8  A    between atoms: C_26  and  C_28
REMARK                            x       y       z     vdW  Elec       q    Type
REMARK                         _______ _______ _______ _____ _____    ______ ____
ROOT
ATOM      6  O   UNL     1       1.509  -0.988  21.900  0.00  0.00    -0.270 OA
ATOM      7  N   UNL     1      -0.533   2.674  24.745  0.00  0.00    -0.162 NA
ATOM      9  N   UNL     1       1.180   0.888  23.255  0.00  0.00    -0.294 N 
ATOM     20  C   UNL     1      -1.124   1.575  23.933  0.00  0.00    +0.183 C 
ATOM     21  C   UNL     1      -0.202   1.087  22.818  0.00  0.00    +0.138 C 
ATOM     22  C   UNL     1       0.830   3.098  24.333  0.00  0.00    +0.129 C 
ATOM     24  C   UNL     1       1.718   1.869  24.205  0.00  0.00    +0.125 C 
ATOM     26  C   UNL     1       1.930  -0.153  22.698  0.00  0.00    +0.248 C 
ENDROOT
BRANCH  26  28
ATOM     11  N   UNL     1       5.112  -1.602  24.043  0.00  0.00    -0.263 NA
ATOM     28  C   UNL     1       3.344  -0.269  23.088  0.00  0.00    +0.055 A 
ATOM     33  C   UNL     1       4.225   0.783  22.887  0.00  0.00    +0.016 A 
ATOM     34  C   UNL     1       3.827  -1.430  23.662  0.00  0.00    +0.123 A 
ATOM     36  C   UNL     1       5.556   0.643  23.265  0.00  0.00    +0.020 A 
ATOM     37  C   UNL     1       5.946  -0.558  23.835  0.00  0.00    +0.111 A 
ENDBRANCH  26  28
BRANCH  20  23
ATOM      2  O   UNL     1      -0.768   0.388  25.970  0.00  0.00    -0.274 OA
ATOM      8  N   UNL     1      -2.415  -0.355  24.502  0.00  0.00    -0.303 N 
ATOM     23  C   UNL     1      -1.403   0.490  24.923  0.00  0.00    +0.234 C 
ATOM     38  H   UNL     1      -2.814  -0.226  23.577  0.00  0.00    +0.149 HD
BRANCH   8  19
ATOM     19  C   UNL     1      -2.860  -1.497  25.268  0.00  0.00    +0.159 C 
BRANCH  19  25
ATOM      5  O   UNL     1      -4.099  -3.190  24.042  0.00  0.00    -0.274 OA
ATOM     10  N   UNL     1      -1.810  -3.158  23.853  0.00  0.00    -0.328 N 
ATOM     25  C   UNL     1      -3.017  -2.685  24.327  0.00  0.00    +0.231 C 
ATOM     39  H   UNL     1      -1.775  -3.951  23.223  0.00  0.00    +0.145 HD
ATOM     40  H   UNL     1      -0.922  -2.743  24.114  0.00  0.00    +0.145 HD
ENDBRANCH  19  25
BRANCH  19  15
ATOM     15  C   UNL     1      -4.135  -1.200  26.065  0.00  0.00    +0.035 C 
BRANCH  15  12
ATOM     12  C   UNL     1      -4.622   0.243  25.949  0.00  0.00    -0.009 C 
ATOM     13  C   UNL     1      -5.037   0.561  24.506  0.00  0.00    +0.003 C 
ATOM     14  C   UNL     1      -5.781   0.504  26.920  0.00  0.00    +0.003 C 
ATOM     16  C   UNL     1      -5.578   1.984  24.375  0.00  0.00    +0.000 C 
ATOM     17  C   UNL     1      -6.321   1.926  26.785  0.00  0.00    +0.000 C 
ATOM     18  C   UNL     1      -6.724   2.241  25.348  0.00  0.00    +0.000 C 
ENDBRANCH  15  12
ENDBRANCH  19  15
ENDBRANCH   8  19
ENDBRANCH  20  23
BRANCH   7   1
ATOM      1  S   UNL     1      -1.593   3.921  25.242  0.00  0.00    +0.062 S 
ATOM      3  O   UNL     1      -0.875   5.178  25.247  0.00  0.00    -0.153 OA
ATOM      4  O   UNL     1      -2.327   3.478  26.408  0.00  0.00    -0.153 OA
BRANCH   1  27
ATOM     27  C   UNL     1      -2.708   3.943  23.874  0.00  0.00    +0.106 A 
ATOM     29  C   UNL     1      -3.655   4.950  23.787  0.00  0.00    +0.028 A 
ATOM     30  C   UNL     1      -2.618   2.951  22.911  0.00  0.00    +0.028 A 
ATOM     31  C   UNL     1      -4.537   4.966  22.707  0.00  0.00    +0.002 A 
ATOM     32  C   UNL     1      -3.500   2.967  21.830  0.00  0.00    +0.002 A 
ATOM     35  C   UNL     1      -4.460   3.975  21.728  0.00  0.00    +0.000 A 
ENDBRANCH   1  27
ENDBRANCH   7   1
TORSDOF 8
ENDMDL
