MODEL 1
REMARK VINA RESULT:       4.7      0.000      0.000
REMARK  Name = 75368494
REMARK  3 active torsions:
REMARK  status: ('A' for Active; 'I' for Inactive)
REMARK    1  A    between atoms: N_4  and  C_9
REMARK    2  A    between atoms: C_18  and  C_19
REMARK    3  A    between atoms: C_24  and  C_25
REMARK                            x       y       z     vdW  Elec       q    Type
REMARK                         _______ _______ _______ _____ _____    ______ ____
ROOT
ATOM      2  O   UNL     1       1.830  -1.913  23.993  0.00  0.00    -0.252 OA
ATOM      3  O   UNL     1      -4.965  -0.972  25.318  0.00  0.00    -0.270 OA
ATOM      4  N   UNL     1       1.553   0.412  23.713  0.00  0.00    -0.280 N 
ATOM      5  N   UNL     1      -0.198  -0.807  24.421  0.00  0.00    -0.278 N 
ATOM      6  N   UNL     1      -2.937  -0.344  24.342  0.00  0.00    -0.294 N 
ATOM      7  C   UNL     1      -0.664   0.569  24.471  0.00  0.00    +0.112 C 
ATOM      8  C   UNL     1       0.452   1.356  23.789  0.00  0.00    +0.133 C 
ATOM     10  C   UNL     1      -2.029   0.687  23.802  0.00  0.00    +0.132 C 
ATOM     11  C   UNL     1      -1.076  -1.883  24.845  0.00  0.00    +0.128 C 
ATOM     12  C   UNL     1       1.148  -0.898  24.041  0.00  0.00    +0.305 C 
ATOM     13  C   UNL     1      -2.451  -1.723  24.198  0.00  0.00    +0.127 C 
ATOM     18  C   UNL     1      -4.191  -0.108  24.909  0.00  0.00    +0.247 C 
ENDROOT
BRANCH  18  19
ATOM     19  C   UNL     1      -4.636   1.284  25.048  0.00  0.00    +0.037 A 
ATOM     20  C   UNL     1      -3.866   2.319  24.516  0.00  0.00    +0.013 A 
ATOM     21  C   UNL     1      -5.827   1.572  25.713  0.00  0.00    +0.013 A 
ATOM     22  C   UNL     1      -4.289   3.642  24.650  0.00  0.00    +0.004 A 
ATOM     23  C   UNL     1      -6.251   2.894  25.846  0.00  0.00    +0.004 A 
ATOM     24  C   UNL     1      -5.482   3.929  25.314  0.00  0.00    -0.050 A 
ATOM     25  C   UNL     1      -5.933   5.344  25.457  0.00  0.00    +0.044 C 
ENDBRANCH  18  19
BRANCH   4   9
ATOM      1  O   UNL     1       5.481   0.025  22.336  0.00  0.00    -0.380 OA
ATOM      9  C   UNL     1       2.854   0.794  23.224  0.00  0.00    +0.082 C 
ATOM     14  C   UNL     1       3.111   0.206  21.837  0.00  0.00    +0.050 C 
ATOM     15  C   UNL     1       3.956   0.367  24.195  0.00  0.00    +0.050 C 
ATOM     16  C   UNL     1       4.534   0.502  21.381  0.00  0.00    +0.161 C 
ATOM     17  C   UNL     1       5.331   0.657  23.607  0.00  0.00    +0.161 C 
ENDBRANCH   4   9
TORSDOF 2
ENDMDL
MODEL 2
REMARK VINA RESULT:       7.9      2.520      3.990
REMARK  Name = 75368494
REMARK  3 active torsions:
REMARK  status: ('A' for Active; 'I' for Inactive)
REMARK    1  A    between atoms: N_4  and  C_9
REMARK    2  A    between atoms: C_18  and  C_19
REMARK    3  A    between atoms: C_24  and  C_25
REMARK                            x       y       z     vdW  Elec       q    Type
REMARK                         _______ _______ _______ _____ _____    ______ ____
ROOT
ATOM      2  O   UNL     1       3.144   2.634  23.182  0.00  0.00    -0.252 OA
ATOM      3  O   UNL     1      -3.608   1.921  24.833  0.00  0.00    -0.270 OA
ATOM      4  N   UNL     1       2.842   0.295  23.176  0.00  0.00    -0.280 N 
ATOM      5  N   UNL     1       1.053   1.614  23.513  0.00  0.00    -0.278 N 
ATOM      6  N   UNL     1      -1.410   1.136  24.708  0.00  0.00    -0.294 N 
ATOM      7  C   UNL     1       0.510   0.267  23.451  0.00  0.00    +0.112 C 
ATOM      8  C   UNL     1       1.748  -0.624  23.439  0.00  0.00    +0.133 C 
ATOM     10  C   UNL     1      -0.438   0.028  24.622  0.00  0.00    +0.132 C 
ATOM     11  C   UNL     1       0.161   2.746  23.696  0.00  0.00    +0.128 C 
ATOM     12  C   UNL     1       2.434   1.640  23.275  0.00  0.00    +0.305 C 
ATOM     13  C   UNL     1      -0.807   2.469  24.844  0.00  0.00    +0.127 C 
ATOM     18  C   UNL     1      -2.800   1.001  24.717  0.00  0.00    +0.247 C 
ENDROOT
BRANCH  18  19
ATOM     19  C   UNL     1      -3.365  -0.346  24.565  0.00  0.00    +0.037 A 
ATOM     20  C   UNL     1      -3.064  -1.338  25.499  0.00  0.00    +0.013 A 
ATOM     21  C   UNL     1      -4.199  -0.634  23.486  0.00  0.00    +0.013 A 
ATOM     22  C   UNL     1      -3.600  -2.618  25.353  0.00  0.00    +0.004 A 
ATOM     23  C   UNL     1      -4.736  -1.913  23.340  0.00  0.00    +0.004 A 
ATOM     24  C   UNL     1      -4.436  -2.905  24.274  0.00  0.00    -0.050 A 
ATOM     25  C   UNL     1      -5.009  -4.273  24.119  0.00  0.00    +0.044 C 
ENDBRANCH  18  19
BRANCH   4   9
ATOM      1  O   UNL     1       6.735  -0.914  24.098  0.00  0.00    -0.380 OA
ATOM      9  C   UNL     1       4.193  -0.164  22.978  0.00  0.00    +0.082 C 
ATOM     14  C   UNL     1       4.421  -1.509  23.667  0.00  0.00    +0.050 C 
ATOM     15  C   UNL     1       5.206   0.867  23.478  0.00  0.00    +0.050 C 
ATOM     16  C   UNL     1       5.883  -1.926  23.566  0.00  0.00    +0.161 C 
ATOM     17  C   UNL     1       6.623   0.318  23.385  0.00  0.00    +0.161 C 
ENDBRANCH   4   9
TORSDOF 2
ENDMDL
