MODEL 1
REMARK VINA RESULT:      -3.0      0.000      0.000
REMARK  Name = 51137588
REMARK  8 active torsions:
REMARK  status: ('A' for Active; 'I' for Inactive)
REMARK    1  A    between atoms: O_3  and  C_20
REMARK    2  A    between atoms: O_3  and  C_22
REMARK    3  A    between atoms: O_4  and  C_21
REMARK    4  A    between atoms: O_4  and  C_23
REMARK    5  A    between atoms: N_5  and  C_12
REMARK    6  A    between atoms: C_8  and  C_13
REMARK    7  A    between atoms: C_12  and  C_14
REMARK    8  A    between atoms: C_17  and  C_20
REMARK                            x       y       z     vdW  Elec       q    Type
REMARK                         _______ _______ _______ _____ _____    ______ ____
ROOT
ATOM      5  N   UNL     1      -5.283   0.431  24.979  0.00  0.00    -0.297 NA
ATOM      8  C   UNL     1      -3.534  -1.073  24.561  0.00  0.00    +0.092 C 
ATOM      9  C   UNL     1      -3.988  -1.207  26.024  0.00  0.00    +0.029 C 
ATOM     10  C   UNL     1      -4.135   0.257  24.087  0.00  0.00    +0.097 C 
ATOM     11  C   UNL     1      -4.791   0.057  26.306  0.00  0.00    +0.085 C 
ENDROOT
BRANCH   8  13
ATOM      2  O   UNL     1      -1.430  -0.044  23.844  0.00  0.00    -0.421 OA
ATOM      6  N   UNL     1      -1.212  -2.144  24.586  0.00  0.00    -0.112 NA
ATOM      7  N   UNL     1       0.040  -1.687  24.217  0.00  0.00    -0.109 NA
ATOM     13  C   UNL     1      -2.039  -1.152  24.351  0.00  0.00    +0.222 A 
ATOM     17  C   UNL     1      -0.136  -0.459  23.790  0.00  0.00    +0.254 A 
BRANCH  17  20
ATOM     20  C   UNL     1       0.849   0.503  23.279  0.00  0.00    +0.326 C 
BRANCH  20   3
ATOM      3  O   UNL     1       1.806  -0.159  22.450  0.00  0.00    -0.483 OA
BRANCH   3  22
ATOM      1  F   UNL     1       6.990  -0.239  24.272  0.00  0.00    -0.205 F 
ATOM     22  C   UNL     1       3.095  -0.179  22.903  0.00  0.00    +0.121 A 
ATOM     24  C   UNL     1       3.896   0.956  22.776  0.00  0.00    +0.048 A 
ATOM     25  C   UNL     1       3.610  -1.334  23.492  0.00  0.00    +0.048 A 
ATOM     26  C   UNL     1       5.212   0.935  23.239  0.00  0.00    +0.042 A 
ATOM     27  C   UNL     1       4.926  -1.354  23.955  0.00  0.00    +0.042 A 
ATOM     28  C   UNL     1       5.727  -0.220  23.828  0.00  0.00    +0.124 A 
ENDBRANCH   3  22
ENDBRANCH  20   3
ENDBRANCH  17  20
ENDBRANCH   8  13
BRANCH   5  12
ATOM     12  C   UNL     1      -5.810   1.787  24.947  0.00  0.00    +0.119 C 
BRANCH  12  14
ATOM     14  C   UNL     1      -4.714   2.817  25.008  0.00  0.00    -0.033 A 
ATOM     15  C   UNL     1      -4.351   3.379  26.232  0.00  0.00    +0.008 A 
ATOM     16  C   UNL     1      -4.061   3.209  23.839  0.00  0.00    +0.008 A 
ATOM     18  C   UNL     1      -3.333   4.333  26.287  0.00  0.00    +0.046 A 
ATOM     19  C   UNL     1      -3.044   4.163  23.894  0.00  0.00    +0.046 A 
ATOM     21  C   UNL     1      -2.681   4.726  25.118  0.00  0.00    +0.120 A 
BRANCH  21   4
ATOM      4  O   UNL     1      -1.689   5.655  25.173  0.00  0.00    -0.495 OA
ATOM     23  C   UNL     1      -0.403   5.260  24.697  0.00  0.00    +0.277 C 
ENDBRANCH  21   4
ENDBRANCH  12  14
ENDBRANCH   5  12
TORSDOF 7
ENDMDL
MODEL 2
REMARK VINA RESULT:      -2.8      2.764      7.564
REMARK  Name = 51137588
REMARK  8 active torsions:
REMARK  status: ('A' for Active; 'I' for Inactive)
REMARK    1  A    between atoms: O_3  and  C_20
REMARK    2  A    between atoms: O_3  and  C_22
REMARK    3  A    between atoms: O_4  and  C_21
REMARK    4  A    between atoms: O_4  and  C_23
REMARK    5  A    between atoms: N_5  and  C_12
REMARK    6  A    between atoms: C_8  and  C_13
REMARK    7  A    between atoms: C_12  and  C_14
REMARK    8  A    between atoms: C_17  and  C_20
REMARK                            x       y       z     vdW  Elec       q    Type
REMARK                         _______ _______ _______ _____ _____    ______ ____
ROOT
ATOM      5  N   UNL     1       0.535   1.750  23.570  0.00  0.00    -0.297 NA
ATOM      8  C   UNL     1      -1.138   3.225  24.291  0.00  0.00    +0.092 C 
ATOM      9  C   UNL     1      -0.222   2.869  25.474  0.00  0.00    +0.029 C 
ATOM     10  C   UNL     1      -0.825   2.167  23.224  0.00  0.00    +0.097 C 
ATOM     11  C   UNL     1       0.533   1.623  25.028  0.00  0.00    +0.085 C 
ENDROOT
BRANCH   8  13
ATOM      2  O   UNL     1      -3.323   2.147  24.543  0.00  0.00    -0.421 OA
ATOM      6  N   UNL     1      -3.328   4.336  25.003  0.00  0.00    -0.112 NA
ATOM      7  N   UNL     1      -4.613   3.857  25.184  0.00  0.00    -0.109 NA
ATOM     13  C   UNL     1      -2.610   3.304  24.629  0.00  0.00    +0.222 A 
ATOM     17  C   UNL     1      -4.562   2.576  24.904  0.00  0.00    +0.254 A 
BRANCH  17  20
ATOM     20  C   UNL     1      -5.631   1.570  24.930  0.00  0.00    +0.326 C 
BRANCH  20   3
ATOM      3  O   UNL     1      -5.276   0.490  25.796  0.00  0.00    -0.483 OA
BRANCH   3  22
ATOM      1  F   UNL     1      -1.576  -3.084  23.864  0.00  0.00    -0.205 F 
ATOM     22  C   UNL     1      -4.355  -0.399  25.315  0.00  0.00    +0.121 A 
ATOM     24  C   UNL     1      -4.613  -1.102  24.139  0.00  0.00    +0.048 A 
ATOM     25  C   UNL     1      -3.159  -0.603  26.002  0.00  0.00    +0.048 A 
ATOM     26  C   UNL     1      -3.674  -2.008  23.649  0.00  0.00    +0.042 A 
ATOM     27  C   UNL     1      -2.219  -1.511  25.512  0.00  0.00    +0.042 A 
ATOM     28  C   UNL     1      -2.477  -2.213  24.335  0.00  0.00    +0.124 A 
ENDBRANCH   3  22
ENDBRANCH  20   3
ENDBRANCH  17  20
ENDBRANCH   8  13
BRANCH   5  12
ATOM     12  C   UNL     1       0.921   0.512  22.908  0.00  0.00    +0.119 C 
BRANCH  12  14
ATOM     14  C   UNL     1       2.370   0.180  23.142  0.00  0.00    -0.033 A 
ATOM     15  C   UNL     1       2.731  -1.089  23.597  0.00  0.00    +0.008 A 
ATOM     16  C   UNL     1       3.353   1.141  22.906  0.00  0.00    +0.008 A 
ATOM     18  C   UNL     1       4.074  -1.397  23.813  0.00  0.00    +0.046 A 
ATOM     19  C   UNL     1       4.696   0.834  23.122  0.00  0.00    +0.046 A 
ATOM     21  C   UNL     1       5.057  -0.435  23.577  0.00  0.00    +0.120 A 
BRANCH  21   4
ATOM      4  O   UNL     1       6.367  -0.736  23.787  0.00  0.00    -0.495 OA
ATOM     23  C   UNL     1       7.258  -0.561  22.686  0.00  0.00    +0.277 C 
ENDBRANCH  21   4
ENDBRANCH  12  14
ENDBRANCH   5  12
TORSDOF 7
ENDMDL
MODEL 3
REMARK VINA RESULT:      -2.5      2.445      7.549
REMARK  Name = 51137588
REMARK  8 active torsions:
REMARK  status: ('A' for Active; 'I' for Inactive)
REMARK    1  A    between atoms: O_3  and  C_20
REMARK    2  A    between atoms: O_3  and  C_22
REMARK    3  A    between atoms: O_4  and  C_21
REMARK    4  A    between atoms: O_4  and  C_23
REMARK    5  A    between atoms: N_5  and  C_12
REMARK    6  A    between atoms: C_8  and  C_13
REMARK    7  A    between atoms: C_12  and  C_14
REMARK    8  A    between atoms: C_17  and  C_20
REMARK                            x       y       z     vdW  Elec       q    Type
REMARK                         _______ _______ _______ _____ _____    ______ ____
ROOT
ATOM      5  N   UNL     1       0.278  -0.454  23.870  0.00  0.00    -0.297 NA
ATOM      8  C   UNL     1      -1.740  -0.321  25.056  0.00  0.00    +0.092 C 
ATOM      9  C   UNL     1      -1.331  -1.795  24.903  0.00  0.00    +0.029 C 
ATOM     10  C   UNL     1      -0.876   0.431  24.034  0.00  0.00    +0.097 C 
ATOM     11  C   UNL     1      -0.288  -1.802  23.793  0.00  0.00    +0.085 C 
ENDROOT
BRANCH   8  13
ATOM      2  O   UNL     1      -3.749   0.953  25.640  0.00  0.00    -0.421 OA
ATOM      6  N   UNL     1      -4.095  -0.646  24.115  0.00  0.00    -0.112 NA
ATOM      7  N   UNL     1      -5.300  -0.011  24.350  0.00  0.00    -0.109 NA
ATOM     13  C   UNL     1      -3.218  -0.051  24.889  0.00  0.00    +0.222 A 
ATOM     17  C   UNL     1      -5.050   0.915  25.246  0.00  0.00    +0.254 A 
BRANCH  17  20
ATOM     20  C   UNL     1      -5.959   1.889  25.863  0.00  0.00    +0.326 C 
BRANCH  20   3
ATOM      3  O   UNL     1      -5.733   3.192  25.319  0.00  0.00    -0.483 OA
BRANCH   3  22
ATOM      1  F   UNL     1      -0.499   4.836  25.001  0.00  0.00    -0.205 F 
ATOM     22  C   UNL     1      -4.431   3.601  25.239  0.00  0.00    +0.121 A 
ATOM     24  C   UNL     1      -3.774   3.602  24.010  0.00  0.00    +0.048 A 
ATOM     25  C   UNL     1      -3.760   4.018  26.389  0.00  0.00    +0.048 A 
ATOM     26  C   UNL     1      -2.446   4.019  23.930  0.00  0.00    +0.042 A 
ATOM     27  C   UNL     1      -2.432   4.436  26.309  0.00  0.00    +0.042 A 
ATOM     28  C   UNL     1      -1.774   4.436  25.079  0.00  0.00    +0.124 A 
ENDBRANCH   3  22
ENDBRANCH  20   3
ENDBRANCH  17  20
ENDBRANCH   8  13
BRANCH   5  12
ATOM     12  C   UNL     1       1.072  -0.120  22.698  0.00  0.00    +0.119 C 
BRANCH  12  14
ATOM     14  C   UNL     1       2.547  -0.121  23.001  0.00  0.00    -0.033 A 
ATOM     15  C   UNL     1       3.320   1.003  22.709  0.00  0.00    +0.008 A 
ATOM     16  C   UNL     1       3.140  -1.246  23.573  0.00  0.00    +0.008 A 
ATOM     18  C   UNL     1       4.687   1.002  22.991  0.00  0.00    +0.046 A 
ATOM     19  C   UNL     1       4.507  -1.248  23.854  0.00  0.00    +0.046 A 
ATOM     21  C   UNL     1       5.280  -0.124  23.563  0.00  0.00    +0.120 A 
BRANCH  21   4
ATOM      4  O   UNL     1       6.612  -0.125  23.838  0.00  0.00    -0.495 OA
ATOM     23  C   UNL     1       7.485  -0.617  22.822  0.00  0.00    +0.277 C 
ENDBRANCH  21   4
ENDBRANCH  12  14
ENDBRANCH   5  12
TORSDOF 7
ENDMDL
MODEL 4
REMARK VINA RESULT:      -1.9      3.155      8.094
REMARK  Name = 51137588
REMARK  8 active torsions:
REMARK  status: ('A' for Active; 'I' for Inactive)
REMARK    1  A    between atoms: O_3  and  C_20
REMARK    2  A    between atoms: O_3  and  C_22
REMARK    3  A    between atoms: O_4  and  C_21
REMARK    4  A    between atoms: O_4  and  C_23
REMARK    5  A    between atoms: N_5  and  C_12
REMARK    6  A    between atoms: C_8  and  C_13
REMARK    7  A    between atoms: C_12  and  C_14
REMARK    8  A    between atoms: C_17  and  C_20
REMARK                            x       y       z     vdW  Elec       q    Type
REMARK                         _______ _______ _______ _____ _____    ______ ____
ROOT
ATOM      5  N   UNL     1       0.685   0.159  24.237  0.00  0.00    -0.297 NA
ATOM      8  C   UNL     1      -0.420   1.700  25.617  0.00  0.00    +0.092 C 
ATOM      9  C   UNL     1      -1.280   0.433  25.469  0.00  0.00    +0.029 C 
ATOM     10  C   UNL     1       0.617   1.599  24.490  0.00  0.00    +0.097 C 
ATOM     11  C   UNL     1      -0.706  -0.295  24.260  0.00  0.00    +0.085 C 
ENDROOT
BRANCH   8  13
ATOM      2  O   UNL     1      -2.488   2.951  26.010  0.00  0.00    -0.421 OA
ATOM      6  N   UNL     1      -0.804   4.196  25.223  0.00  0.00    -0.112 NA
ATOM      7  N   UNL     1      -1.900   5.021  25.399  0.00  0.00    -0.109 NA
ATOM     13  C   UNL     1      -1.193   2.999  25.592  0.00  0.00    +0.222 A 
ATOM     17  C   UNL     1      -2.859   4.251  25.859  0.00  0.00    +0.254 A 
BRANCH  17  20
ATOM     20  C   UNL     1      -4.239   4.595  26.226  0.00  0.00    +0.326 C 
BRANCH  20   3
ATOM      3  O   UNL     1      -5.157   4.024  25.290  0.00  0.00    -0.483 OA
BRANCH   3  22
ATOM      1  F   UNL     1      -4.001  -1.044  23.507  0.00  0.00    -0.205 F 
ATOM     22  C   UNL     1      -4.870   2.763  24.847  0.00  0.00    +0.121 A 
ATOM     24  C   UNL     1      -5.361   1.653  25.534  0.00  0.00    +0.048 A 
ATOM     25  C   UNL     1      -4.085   2.587  23.707  0.00  0.00    +0.048 A 
ATOM     26  C   UNL     1      -5.067   0.368  25.081  0.00  0.00    +0.042 A 
ATOM     27  C   UNL     1      -3.792   1.301  23.254  0.00  0.00    +0.042 A 
ATOM     28  C   UNL     1      -4.283   0.191  23.941  0.00  0.00    +0.124 A 
ENDBRANCH   3  22
ENDBRANCH  20   3
ENDBRANCH  17  20
ENDBRANCH   8  13
BRANCH   5  12
ATOM     12  C   UNL     1       1.348  -0.154  22.981  0.00  0.00    +0.119 C 
BRANCH  12  14
ATOM     14  C   UNL     1       2.847  -0.154  23.123  0.00  0.00    -0.033 A 
ATOM     15  C   UNL     1       3.494  -1.249  23.698  0.00  0.00    +0.008 A 
ATOM     16  C   UNL     1       3.590   0.940  22.680  0.00  0.00    +0.008 A 
ATOM     18  C   UNL     1       4.883  -1.249  23.828  0.00  0.00    +0.046 A 
ATOM     19  C   UNL     1       4.979   0.941  22.811  0.00  0.00    +0.046 A 
ATOM     21  C   UNL     1       5.625  -0.153  23.386  0.00  0.00    +0.120 A 
BRANCH  21   4
ATOM      4  O   UNL     1       6.980  -0.154  23.513  0.00  0.00    -0.495 OA
ATOM     23  C   UNL     1       7.721  -0.901  22.549  0.00  0.00    +0.277 C 
ENDBRANCH  21   4
ENDBRANCH  12  14
ENDBRANCH   5  12
TORSDOF 7
ENDMDL
MODEL 5
REMARK VINA RESULT:      -1.6      1.935      4.147
REMARK  Name = 51137588
REMARK  8 active torsions:
REMARK  status: ('A' for Active; 'I' for Inactive)
REMARK    1  A    between atoms: O_3  and  C_20
REMARK    2  A    between atoms: O_3  and  C_22
REMARK    3  A    between atoms: O_4  and  C_21
REMARK    4  A    between atoms: O_4  and  C_23
REMARK    5  A    between atoms: N_5  and  C_12
REMARK    6  A    between atoms: C_8  and  C_13
REMARK    7  A    between atoms: C_12  and  C_14
REMARK    8  A    between atoms: C_17  and  C_20
REMARK                            x       y       z     vdW  Elec       q    Type
REMARK                         _______ _______ _______ _____ _____    ______ ____
ROOT
ATOM      5  N   UNL     1      -4.397   2.822  25.443  0.00  0.00    -0.297 NA
ATOM      8  C   UNL     1      -2.165   3.442  25.081  0.00  0.00    +0.092 C 
ATOM      9  C   UNL     1      -3.070   4.164  24.068  0.00  0.00    +0.029 C 
ATOM     10  C   UNL     1      -3.039   2.315  25.649  0.00  0.00    +0.097 C 
ATOM     11  C   UNL     1      -4.386   3.397  24.097  0.00  0.00    +0.085 C 
ENDROOT
BRANCH   8  13
ATOM      2  O   UNL     1      -0.809   1.640  24.126  0.00  0.00    -0.421 OA
ATOM      6  N   UNL     1       0.278   3.583  24.341  0.00  0.00    -0.112 NA
ATOM      7  N   UNL     1       1.152   2.662  23.795  0.00  0.00    -0.109 NA
ATOM     13  C   UNL     1      -0.854   2.943  24.518  0.00  0.00    +0.222 A 
ATOM     17  C   UNL     1       0.475   1.543  23.687  0.00  0.00    +0.254 A 
BRANCH  17  20
ATOM     20  C   UNL     1       0.903   0.237  23.169  0.00  0.00    +0.326 C 
BRANCH  20   3
ATOM      3  O   UNL     1       2.051   0.387  22.331  0.00  0.00    -0.483 OA
BRANCH   3  22
ATOM      1  F   UNL     1       6.902  -0.911  24.564  0.00  0.00    -0.205 F 
ATOM     22  C   UNL     1       3.257   0.065  22.887  0.00  0.00    +0.121 A 
ATOM     24  C   UNL     1       4.288   1.004  22.910  0.00  0.00    +0.048 A 
ATOM     25  C   UNL     1       3.458  -1.204  23.430  0.00  0.00    +0.048 A 
ATOM     26  C   UNL     1       5.519   0.674  23.477  0.00  0.00    +0.042 A 
ATOM     27  C   UNL     1       4.689  -1.534  23.997  0.00  0.00    +0.042 A 
ATOM     28  C   UNL     1       5.720  -0.594  24.020  0.00  0.00    +0.124 A 
ENDBRANCH   3  22
ENDBRANCH  20   3
ENDBRANCH  17  20
ENDBRANCH   8  13
BRANCH   5  12
ATOM     12  C   UNL     1      -5.405   1.783  25.592  0.00  0.00    +0.119 C 
BRANCH  12  14
ATOM     14  C   UNL     1      -4.852   0.416  25.287  0.00  0.00    -0.033 A 
ATOM     15  C   UNL     1      -4.116  -0.270  26.253  0.00  0.00    +0.008 A 
ATOM     16  C   UNL     1      -5.076  -0.164  24.039  0.00  0.00    +0.008 A 
ATOM     18  C   UNL     1      -3.605  -1.537  25.971  0.00  0.00    +0.046 A 
ATOM     19  C   UNL     1      -4.564  -1.430  23.755  0.00  0.00    +0.046 A 
ATOM     21  C   UNL     1      -3.828  -2.116  24.721  0.00  0.00    +0.120 A 
BRANCH  21   4
ATOM      4  O   UNL     1      -3.330  -3.352  24.447  0.00  0.00    -0.495 OA
ATOM     23  C   UNL     1      -1.985  -3.420  23.973  0.00  0.00    +0.277 C 
ENDBRANCH  21   4
ENDBRANCH  12  14
ENDBRANCH   5  12
TORSDOF 7
ENDMDL
MODEL 6
REMARK VINA RESULT:      -1.3      2.827      5.089
REMARK  Name = 51137588
REMARK  8 active torsions:
REMARK  status: ('A' for Active; 'I' for Inactive)
REMARK    1  A    between atoms: O_3  and  C_20
REMARK    2  A    between atoms: O_3  and  C_22
REMARK    3  A    between atoms: O_4  and  C_21
REMARK    4  A    between atoms: O_4  and  C_23
REMARK    5  A    between atoms: N_5  and  C_12
REMARK    6  A    between atoms: C_8  and  C_13
REMARK    7  A    between atoms: C_12  and  C_14
REMARK    8  A    between atoms: C_17  and  C_20
REMARK                            x       y       z     vdW  Elec       q    Type
REMARK                         _______ _______ _______ _____ _____    ______ ____
ROOT
ATOM      5  N   UNL     1      -5.479   2.155  24.853  0.00  0.00    -0.297 NA
ATOM      8  C   UNL     1      -3.994   3.963  24.710  0.00  0.00    +0.092 C 
ATOM      9  C   UNL     1      -4.335   3.465  23.295  0.00  0.00    +0.029 C 
ATOM     10  C   UNL     1      -4.447   2.829  25.641  0.00  0.00    +0.097 C 
ATOM     11  C   UNL     1      -4.932   2.078  23.498  0.00  0.00    +0.085 C 
ENDROOT
BRANCH   8  13
ATOM      2  O   UNL     1      -1.670   3.341  25.170  0.00  0.00    -0.421 OA
ATOM      6  N   UNL     1      -1.986   5.537  24.882  0.00  0.00    -0.112 NA
ATOM      7  N   UNL     1      -0.643   5.327  25.132  0.00  0.00    -0.109 NA
ATOM     13  C   UNL     1      -2.547   4.350  24.914  0.00  0.00    +0.222 A 
ATOM     17  C   UNL     1      -0.505   4.032  25.294  0.00  0.00    +0.254 A 
BRANCH  17  20
ATOM     20  C   UNL     1       0.704   3.248  25.579  0.00  0.00    +0.326 C 
BRANCH  20   3
ATOM      3  O   UNL     1       0.404   1.850  25.565  0.00  0.00    -0.483 OA
BRANCH   3  22
ATOM      1  F   UNL     1       1.391  -0.819  20.864  0.00  0.00    -0.205 F 
ATOM     22  C   UNL     1       0.649   1.187  24.395  0.00  0.00    +0.121 A 
ATOM     24  C   UNL     1      -0.384   0.512  23.746  0.00  0.00    +0.048 A 
ATOM     25  C   UNL     1       1.934   1.183  23.852  0.00  0.00    +0.048 A 
ATOM     26  C   UNL     1      -0.133  -0.165  22.554  0.00  0.00    +0.042 A 
ATOM     27  C   UNL     1       2.185   0.506  22.659  0.00  0.00    +0.042 A 
ATOM     28  C   UNL     1       1.151  -0.169  22.010  0.00  0.00    +0.124 A 
ENDBRANCH   3  22
ENDBRANCH  20   3
ENDBRANCH  17  20
ENDBRANCH   8  13
BRANCH   5  12
ATOM     12  C   UNL     1      -5.818   0.844  25.388  0.00  0.00    +0.119 C 
BRANCH  12  14
ATOM     14  C   UNL     1      -4.710  -0.153  25.172  0.00  0.00    -0.033 A 
ATOM     15  C   UNL     1      -3.670  -0.252  26.097  0.00  0.00    +0.008 A 
ATOM     16  C   UNL     1      -4.724  -0.977  24.047  0.00  0.00    +0.008 A 
ATOM     18  C   UNL     1      -2.644  -1.177  25.896  0.00  0.00    +0.046 A 
ATOM     19  C   UNL     1      -3.698  -1.901  23.846  0.00  0.00    +0.046 A 
ATOM     21  C   UNL     1      -2.658  -2.000  24.771  0.00  0.00    +0.120 A 
BRANCH  21   4
ATOM      4  O   UNL     1      -1.659  -2.902  24.576  0.00  0.00    -0.495 OA
ATOM     23  C   UNL     1      -0.406  -2.628  25.203  0.00  0.00    +0.277 C 
ENDBRANCH  21   4
ENDBRANCH  12  14
ENDBRANCH   5  12
TORSDOF 7
ENDMDL
MODEL 7
REMARK VINA RESULT:      -1.0      2.903      7.806
REMARK  Name = 51137588
REMARK  8 active torsions:
REMARK  status: ('A' for Active; 'I' for Inactive)
REMARK    1  A    between atoms: O_3  and  C_20
REMARK    2  A    between atoms: O_3  and  C_22
REMARK    3  A    between atoms: O_4  and  C_21
REMARK    4  A    between atoms: O_4  and  C_23
REMARK    5  A    between atoms: N_5  and  C_12
REMARK    6  A    between atoms: C_8  and  C_13
REMARK    7  A    between atoms: C_12  and  C_14
REMARK    8  A    between atoms: C_17  and  C_20
REMARK                            x       y       z     vdW  Elec       q    Type
REMARK                         _______ _______ _______ _____ _____    ______ ____
ROOT
ATOM      5  N   UNL     1       0.810   1.313  24.167  0.00  0.00    -0.297 NA
ATOM      8  C   UNL     1      -0.921   2.467  25.246  0.00  0.00    +0.092 C 
ATOM      9  C   UNL     1      -0.841   1.032  25.793  0.00  0.00    +0.029 C 
ATOM     10  C   UNL     1      -0.104   2.434  23.947  0.00  0.00    +0.097 C 
ATOM     11  C   UNL     1      -0.014   0.265  24.769  0.00  0.00    +0.085 C 
ENDROOT
BRANCH   8  13
ATOM      2  O   UNL     1      -3.333   2.079  25.075  0.00  0.00    -0.421 OA
ATOM      6  N   UNL     1      -2.736   4.222  24.844  0.00  0.00    -0.112 NA
ATOM      7  N   UNL     1      -4.112   4.146  24.728  0.00  0.00    -0.109 NA
ATOM     13  C   UNL     1      -2.325   2.993  25.046  0.00  0.00    +0.222 A 
ATOM     17  C   UNL     1      -4.415   2.877  24.869  0.00  0.00    +0.254 A 
BRANCH  17  20
ATOM     20  C   UNL     1      -5.728   2.221  24.838  0.00  0.00    +0.326 C 
BRANCH  20   3
ATOM      3  O   UNL     1      -5.711   1.039  25.643  0.00  0.00    -0.483 OA
BRANCH   3  22
ATOM      1  F   UNL     1      -2.266  -2.945  24.074  0.00  0.00    -0.205 F 
ATOM     22  C   UNL     1      -4.854   0.048  25.252  0.00  0.00    +0.121 A 
ATOM     24  C   UNL     1      -4.815  -0.354  23.917  0.00  0.00    +0.048 A 
ATOM     25  C   UNL     1      -4.019  -0.560  26.189  0.00  0.00    +0.048 A 
ATOM     26  C   UNL     1      -3.941  -1.365  23.520  0.00  0.00    +0.042 A 
ATOM     27  C   UNL     1      -3.144  -1.571  25.791  0.00  0.00    +0.042 A 
ATOM     28  C   UNL     1      -3.105  -1.974  24.457  0.00  0.00    +0.124 A 
ENDBRANCH   3  22
ENDBRANCH  20   3
ENDBRANCH  17  20
ENDBRANCH   8  13
BRANCH   5  12
ATOM     12  C   UNL     1       1.454   0.872  22.938  0.00  0.00    +0.119 C 
BRANCH  12  14
ATOM     14  C   UNL     1       2.867   0.411  23.179  0.00  0.00    -0.033 A 
ATOM     15  C   UNL     1       3.931   1.294  22.992  0.00  0.00    +0.008 A 
ATOM     16  C   UNL     1       3.112  -0.899  23.590  0.00  0.00    +0.008 A 
ATOM     18  C   UNL     1       5.240   0.866  23.216  0.00  0.00    +0.046 A 
ATOM     19  C   UNL     1       4.421  -1.327  23.813  0.00  0.00    +0.046 A 
ATOM     21  C   UNL     1       5.484  -0.445  23.626  0.00  0.00    +0.120 A 
BRANCH  21   4
ATOM      4  O   UNL     1       6.761  -0.861  23.845  0.00  0.00    -0.495 OA
ATOM     23  C   UNL     1       7.723  -0.564  22.834  0.00  0.00    +0.277 C 
ENDBRANCH  21   4
ENDBRANCH  12  14
ENDBRANCH   5  12
TORSDOF 7
ENDMDL
MODEL 8
REMARK VINA RESULT:      -0.5      3.293      6.342
REMARK  Name = 51137588
REMARK  8 active torsions:
REMARK  status: ('A' for Active; 'I' for Inactive)
REMARK    1  A    between atoms: O_3  and  C_20
REMARK    2  A    between atoms: O_3  and  C_22
REMARK    3  A    between atoms: O_4  and  C_21
REMARK    4  A    between atoms: O_4  and  C_23
REMARK    5  A    between atoms: N_5  and  C_12
REMARK    6  A    between atoms: C_8  and  C_13
REMARK    7  A    between atoms: C_12  and  C_14
REMARK    8  A    between atoms: C_17  and  C_20
REMARK                            x       y       z     vdW  Elec       q    Type
REMARK                         _______ _______ _______ _____ _____    ______ ____
ROOT
ATOM      5  N   UNL     1       1.160   0.951  23.894  0.00  0.00    -0.297 NA
ATOM      8  C   UNL     1       0.022  -1.027  24.433  0.00  0.00    +0.092 C 
ATOM      9  C   UNL     1       0.823  -1.232  23.136  0.00  0.00    +0.029 C 
ATOM     10  C   UNL     1      -0.023   0.495  24.626  0.00  0.00    +0.097 C 
ATOM     11  C   UNL     1       1.160   0.173  22.654  0.00  0.00    +0.085 C 
ENDROOT
BRANCH   8  13
ATOM      2  O   UNL     1      -2.417  -0.822  24.340  0.00  0.00    -0.421 OA
ATOM      6  N   UNL     1      -1.685  -2.928  24.525  0.00  0.00    -0.112 NA
ATOM      7  N   UNL     1      -3.067  -2.958  24.483  0.00  0.00    -0.109 NA
ATOM     13  C   UNL     1      -1.350  -1.663  24.439  0.00  0.00    +0.222 A 
ATOM     17  C   UNL     1      -3.450  -1.707  24.375  0.00  0.00    +0.254 A 
BRANCH  17  20
ATOM     20  C   UNL     1      -4.805  -1.149  24.287  0.00  0.00    +0.326 C 
BRANCH  20   3
ATOM      3  O   UNL     1      -4.979  -0.112  25.257  0.00  0.00    -0.483 OA
BRANCH   3  22
ATOM      1  F   UNL     1      -4.259   5.041  23.489  0.00  0.00    -0.205 F 
ATOM     22  C   UNL     1      -4.800   1.170  24.818  0.00  0.00    +0.121 A 
ATOM     24  C   UNL     1      -5.542   2.209  25.378  0.00  0.00    +0.048 A 
ATOM     25  C   UNL     1      -3.875   1.438  23.809  0.00  0.00    +0.048 A 
ATOM     26  C   UNL     1      -5.359   3.516  24.929  0.00  0.00    +0.042 A 
ATOM     27  C   UNL     1      -3.692   2.746  23.360  0.00  0.00    +0.042 A 
ATOM     28  C   UNL     1      -4.434   3.785  23.920  0.00  0.00    +0.124 A 
ENDBRANCH   3  22
ENDBRANCH  20   3
ENDBRANCH  17  20
ENDBRANCH   8  13
BRANCH   5  12
ATOM     12  C   UNL     1       1.142   2.384  23.648  0.00  0.00    +0.119 C 
BRANCH  12  14
ATOM     14  C   UNL     1       0.072   3.078  24.448  0.00  0.00    -0.033 A 
ATOM     15  C   UNL     1      -0.518   2.431  25.534  0.00  0.00    +0.008 A 
ATOM     16  C   UNL     1      -0.330   4.369  24.103  0.00  0.00    +0.008 A 
ATOM     18  C   UNL     1      -1.509   3.075  26.276  0.00  0.00    +0.046 A 
ATOM     19  C   UNL     1      -1.321   5.013  24.844  0.00  0.00    +0.046 A 
ATOM     21  C   UNL     1      -1.911   4.365  25.930  0.00  0.00    +0.120 A 
BRANCH  21   4
ATOM      4  O   UNL     1      -2.877   4.993  26.654  0.00  0.00    -0.495 OA
ATOM     23  C   UNL     1      -3.569   4.212  27.628  0.00  0.00    +0.277 C 
ENDBRANCH  21   4
ENDBRANCH  12  14
ENDBRANCH   5  12
TORSDOF 7
ENDMDL
MODEL 9
REMARK VINA RESULT:      -0.4      3.190      4.966
REMARK  Name = 51137588
REMARK  8 active torsions:
REMARK  status: ('A' for Active; 'I' for Inactive)
REMARK    1  A    between atoms: O_3  and  C_20
REMARK    2  A    between atoms: O_3  and  C_22
REMARK    3  A    between atoms: O_4  and  C_21
REMARK    4  A    between atoms: O_4  and  C_23
REMARK    5  A    between atoms: N_5  and  C_12
REMARK    6  A    between atoms: C_8  and  C_13
REMARK    7  A    between atoms: C_12  and  C_14
REMARK    8  A    between atoms: C_17  and  C_20
REMARK                            x       y       z     vdW  Elec       q    Type
REMARK                         _______ _______ _______ _____ _____    ______ ____
ROOT
ATOM      5  N   UNL     1      -3.398  -1.773  24.956  0.00  0.00    -0.297 NA
ATOM      8  C   UNL     1      -1.090  -1.720  24.548  0.00  0.00    +0.092 C 
ATOM      9  C   UNL     1      -1.354  -1.452  26.039  0.00  0.00    +0.029 C 
ATOM     10  C   UNL     1      -2.451  -1.518  23.869  0.00  0.00    +0.097 C 
ATOM     11  C   UNL     1      -2.832  -1.089  26.119  0.00  0.00    +0.085 C 
ENDROOT
BRANCH   8  13
ATOM      2  O   UNL     1      -0.156   0.475  23.994  0.00  0.00    -0.421 OA
ATOM      6  N   UNL     1       1.115  -1.248  23.343  0.00  0.00    -0.112 NA
ATOM      7  N   UNL     1       1.755  -0.080  22.971  0.00  0.00    -0.109 NA
ATOM     13  C   UNL     1       0.005  -0.876  23.936  0.00  0.00    +0.222 A 
ATOM     17  C   UNL     1       0.977   0.899  23.371  0.00  0.00    +0.254 A 
BRANCH  17  20
ATOM     20  C   UNL     1       1.160   2.350  23.242  0.00  0.00    +0.326 C 
BRANCH  20   3
ATOM      3  O   UNL     1       1.260   2.954  24.535  0.00  0.00    -0.483 OA
BRANCH   3  22
ATOM      1  F   UNL     1      -3.435   4.710  26.787  0.00  0.00    -0.205 F 
ATOM     22  C   UNL     1       0.092   3.391  25.095  0.00  0.00    +0.121 A 
ATOM     24  C   UNL     1      -0.522   2.643  26.100  0.00  0.00    +0.048 A 
ATOM     25  C   UNL     1      -0.485   4.584  24.662  0.00  0.00    +0.048 A 
ATOM     26  C   UNL     1      -1.713   3.089  26.671  0.00  0.00    +0.042 A 
ATOM     27  C   UNL     1      -1.677   5.030  25.234  0.00  0.00    +0.042 A 
ATOM     28  C   UNL     1      -2.291   4.283  26.238  0.00  0.00    +0.124 A 
ENDBRANCH   3  22
ENDBRANCH  20   3
ENDBRANCH  17  20
ENDBRANCH   8  13
BRANCH   5  12
ATOM     12  C   UNL     1      -4.741  -1.311  24.643  0.00  0.00    +0.119 C 
BRANCH  12  14
ATOM     14  C   UNL     1      -4.838   0.191  24.667  0.00  0.00    -0.033 A 
ATOM     15  C   UNL     1      -3.995   0.958  23.862  0.00  0.00    +0.008 A 
ATOM     16  C   UNL     1      -5.769   0.817  25.496  0.00  0.00    +0.008 A 
ATOM     18  C   UNL     1      -4.085   2.350  23.885  0.00  0.00    +0.046 A 
ATOM     19  C   UNL     1      -5.860   2.209  25.519  0.00  0.00    +0.046 A 
ATOM     21  C   UNL     1      -5.017   2.975  24.714  0.00  0.00    +0.120 A 
BRANCH  21   4
ATOM      4  O   UNL     1      -5.105   4.333  24.735  0.00  0.00    -0.495 OA
ATOM     23  C   UNL     1      -6.169   4.902  25.496  0.00  0.00    +0.277 C 
ENDBRANCH  21   4
ENDBRANCH  12  14
ENDBRANCH   5  12
TORSDOF 7
ENDMDL
MODEL 10
REMARK VINA RESULT:      -0.0      3.591      6.532
REMARK  Name = 51137588
REMARK  8 active torsions:
REMARK  status: ('A' for Active; 'I' for Inactive)
REMARK    1  A    between atoms: O_3  and  C_20
REMARK    2  A    between atoms: O_3  and  C_22
REMARK    3  A    between atoms: O_4  and  C_21
REMARK    4  A    between atoms: O_4  and  C_23
REMARK    5  A    between atoms: N_5  and  C_12
REMARK    6  A    between atoms: C_8  and  C_13
REMARK    7  A    between atoms: C_12  and  C_14
REMARK    8  A    between atoms: C_17  and  C_20
REMARK                            x       y       z     vdW  Elec       q    Type
REMARK                         _______ _______ _______ _____ _____    ______ ____
ROOT
ATOM      5  N   UNL     1      -1.598  -2.827  24.218  0.00  0.00    -0.297 NA
ATOM      8  C   UNL     1       0.178  -1.334  23.878  0.00  0.00    +0.092 C 
ATOM      9  C   UNL     1       0.453  -2.184  25.130  0.00  0.00    +0.029 C 
ATOM     10  C   UNL     1      -1.317  -1.533  23.595  0.00  0.00    +0.097 C 
ATOM     11  C   UNL     1      -0.895  -2.789  25.501  0.00  0.00    +0.085 C 
ENDROOT
BRANCH   8  13
ATOM      2  O   UNL     1      -0.073   0.850  24.957  0.00  0.00    -0.421 OA
ATOM      6  N   UNL     1       1.446   0.813  23.315  0.00  0.00    -0.112 NA
ATOM      7  N   UNL     1       1.406   2.095  23.832  0.00  0.00    -0.109 NA
ATOM     13  C   UNL     1       0.566   0.122  24.001  0.00  0.00    +0.222 A 
ATOM     17  C   UNL     1       0.506   2.069  24.787  0.00  0.00    +0.254 A 
BRANCH  17  20
ATOM     20  C   UNL     1       0.054   3.148  25.675  0.00  0.00    +0.326 C 
BRANCH  20   3
ATOM      3  O   UNL     1      -0.644   4.147  24.927  0.00  0.00    -0.483 OA
BRANCH   3  22
ATOM      1  F   UNL     1      -6.114   4.224  25.451  0.00  0.00    -0.205 F 
ATOM     22  C   UNL     1      -2.004   4.165  25.057  0.00  0.00    +0.121 A 
ATOM     24  C   UNL     1      -2.814   3.935  23.946  0.00  0.00    +0.048 A 
ATOM     25  C   UNL     1      -2.582   4.416  26.302  0.00  0.00    +0.048 A 
ATOM     26  C   UNL     1      -4.202   3.955  24.079  0.00  0.00    +0.042 A 
ATOM     27  C   UNL     1      -3.971   4.435  26.435  0.00  0.00    +0.042 A 
ATOM     28  C   UNL     1      -4.781   4.205  25.324  0.00  0.00    +0.124 A 
ENDBRANCH   3  22
ENDBRANCH  20   3
ENDBRANCH  17  20
ENDBRANCH   8  13
BRANCH   5  12
ATOM     12  C   UNL     1      -3.023  -3.070  24.376  0.00  0.00    +0.119 C 
BRANCH  12  14
ATOM     14  C   UNL     1      -3.769  -1.815  24.745  0.00  0.00    -0.033 A 
ATOM     15  C   UNL     1      -4.641  -1.227  23.829  0.00  0.00    +0.008 A 
ATOM     16  C   UNL     1      -3.587  -1.241  26.002  0.00  0.00    +0.008 A 
ATOM     18  C   UNL     1      -5.333  -0.064  24.171  0.00  0.00    +0.046 A 
ATOM     19  C   UNL     1      -4.278  -0.078  26.345  0.00  0.00    +0.046 A 
ATOM     21  C   UNL     1      -5.150   0.510  25.429  0.00  0.00    +0.120 A 
BRANCH  21   4
ATOM      4  O   UNL     1      -5.825   1.643  25.763  0.00  0.00    -0.495 OA
ATOM     23  C   UNL     1      -6.666   1.582  26.915  0.00  0.00    +0.277 C 
ENDBRANCH  21   4
ENDBRANCH  12  14
ENDBRANCH   5  12
TORSDOF 7
ENDMDL
