MODEL 1
REMARK VINA RESULT:       5.5      0.000      0.000
REMARK  Name = 11882559
REMARK  14 active torsions:
REMARK  status: ('A' for Active; 'I' for Inactive)
REMARK    1  A    between atoms: S_1  and  C_35
REMARK    2  A    between atoms: S_1  and  C_39
REMARK    3  A    between atoms: O_2  and  C_13
REMARK    4  A    between atoms: O_3  and  C_16
REMARK    5  A    between atoms: O_4  and  C_18
REMARK    6  A    between atoms: O_8  and  C_27
REMARK    7  A    between atoms: O_8  and  C_38
REMARK    8  A    between atoms: N_9  and  C_14
REMARK    9  A    between atoms: N_10  and  C_20
REMARK   10  A    between atoms: C_13  and  C_19
REMARK   11  A    between atoms: C_20  and  C_22
REMARK   12  A    between atoms: C_20  and  C_25
REMARK   13  A    between atoms: C_21  and  C_23
REMARK   14  A    between atoms: C_22  and  C_24
REMARK                            x       y       z     vdW  Elec       q    Type
REMARK                         _______ _______ _______ _____ _____    ______ ____
ROOT
ATOM     13  C   UNL     1      -3.269  -0.479  25.538  0.00  0.00    +0.146 C 
ATOM     14  C   UNL     1      -0.976  -1.534  25.238  0.00  0.00    +0.107 C 
ATOM     15  C   UNL     1      -1.771  -0.228  25.346  0.00  0.00    +0.069 C 
ATOM     16  C   UNL     1      -1.544  -2.459  24.153  0.00  0.00    +0.163 C 
ATOM     17  C   UNL     1      -3.824  -1.384  24.440  0.00  0.00    +0.078 C 
ATOM     18  C   UNL     1      -3.046  -2.695  24.327  0.00  0.00    +0.148 C 
ENDROOT
BRANCH  13  19
ATOM      5  O   UNL     1      -3.642   1.773  26.241  0.00  0.00    -0.273 OA
ATOM     10  N   UNL     1      -5.163   0.781  24.784  0.00  0.00    -0.301 N 
ATOM     19  C   UNL     1      -4.022   0.819  25.568  0.00  0.00    +0.246 C 
ATOM     44  H   UNL     1      -5.320  -0.021  24.181  0.00  0.00    +0.150 HD
BRANCH  10  20
ATOM     20  C   UNL     1      -6.074   1.896  24.661  0.00  0.00    +0.163 C 
BRANCH  20  25
ATOM      7  O   UNL     1      -6.604   1.755  27.029  0.00  0.00    -0.274 OA
ATOM     12  N   UNL     1      -6.070   3.806  26.143  0.00  0.00    -0.328 N 
ATOM     25  C   UNL     1      -6.297   2.448  26.062  0.00  0.00    +0.231 C 
ATOM     46  H   UNL     1      -6.171   4.299  27.025  0.00  0.00    +0.145 HD
ATOM     47  H   UNL     1      -5.793   4.362  25.341  0.00  0.00    +0.145 HD
ENDBRANCH  20  25
BRANCH  20  22
ATOM     22  C   UNL     1      -5.531   2.993  23.736  0.00  0.00    +0.069 C 
BRANCH  22  24
ATOM     11  N   UNL     1      -2.078   2.203  22.848  0.00  0.00    -0.360 N 
ATOM     24  C   UNL     1      -4.036   2.890  23.541  0.00  0.00    -0.020 A 
ATOM     26  C   UNL     1      -3.078   3.727  24.133  0.00  0.00    +0.003 A 
ATOM     28  C   UNL     1      -3.423   1.966  22.761  0.00  0.00    +0.087 A 
ATOM     30  C   UNL     1      -1.838   3.274  23.680  0.00  0.00    +0.047 A 
ATOM     31  C   UNL     1      -3.118   4.829  25.010  0.00  0.00    +0.010 A 
ATOM     34  C   UNL     1      -0.630   3.869  24.060  0.00  0.00    +0.026 A 
ATOM     36  C   UNL     1      -1.918   5.435  25.400  0.00  0.00    +0.001 A 
ATOM     37  C   UNL     1      -0.695   4.961  24.931  0.00  0.00    +0.002 A 
ATOM     45  H   UNL     1      -1.364   1.671  22.371  0.00  0.00    +0.165 HD
ENDBRANCH  22  24
ENDBRANCH  20  22
ENDBRANCH  10  20
ENDBRANCH  13  19
BRANCH  14   9
ATOM      6  O   UNL     1       0.163  -0.724  22.731  0.00  0.00    -0.270 OA
ATOM      9  N   UNL     1       0.415  -1.239  24.978  0.00  0.00    -0.306 N 
ATOM     21  C   UNL     1       0.869  -0.853  23.727  0.00  0.00    +0.248 C 
ATOM     40  H   UNL     1       1.074  -1.437  25.723  0.00  0.00    +0.149 HD
BRANCH  21  23
ATOM     23  C   UNL     1       2.330  -0.610  23.617  0.00  0.00    +0.078 A 
ATOM     27  C   UNL     1       2.797   0.655  23.322  0.00  0.00    +0.133 A 
ATOM     29  C   UNL     1       3.183  -1.678  23.817  0.00  0.00    +0.018 A 
ATOM     32  C   UNL     1       4.171   0.862  23.222  0.00  0.00    +0.061 A 
ATOM     33  C   UNL     1       4.559  -1.471  23.717  0.00  0.00    +0.015 A 
ATOM     35  C   UNL     1       5.053  -0.201  23.419  0.00  0.00    +0.011 A 
BRANCH  35   1
ATOM      1  S   UNL     1       6.811   0.063  23.291  0.00  0.00    -0.128 S 
ATOM     39  C   UNL     1       7.332  -1.380  22.322  0.00  0.00    +0.090 C 
ENDBRANCH  35   1
BRANCH  27   8
ATOM      8  O   UNL     1       1.951   1.706  23.126  0.00  0.00    -0.494 OA
ATOM     38  C   UNL     1       1.110   2.073  24.217  0.00  0.00    +0.277 C 
ENDBRANCH  27   8
ENDBRANCH  21  23
ENDBRANCH  14   9
BRANCH  13   2
ATOM      2  O   UNL     1      -3.516  -1.078  26.804  0.00  0.00    -0.379 OA
ATOM     41  H   UNL     1      -2.720  -0.978  27.352  0.00  0.00    +0.211 HD
ENDBRANCH  13   2
BRANCH  16   3
ATOM      3  O   UNL     1      -0.893  -3.731  24.236  0.00  0.00    -0.387 OA
ATOM     42  H   UNL     1      -0.001  -3.630  23.865  0.00  0.00    +0.210 HD
ENDBRANCH  16   3
BRANCH  18   4
ATOM      4  O   UNL     1      -3.524  -3.419  23.193  0.00  0.00    -0.389 OA
ATOM     43  H   UNL     1      -4.015  -2.796  22.631  0.00  0.00    +0.210 HD
ENDBRANCH  18   4
TORSDOF 12
ENDMDL
MODEL 2
REMARK VINA RESULT:       5.8      1.447      1.670
REMARK  Name = 11882559
REMARK  14 active torsions:
REMARK  status: ('A' for Active; 'I' for Inactive)
REMARK    1  A    between atoms: S_1  and  C_35
REMARK    2  A    between atoms: S_1  and  C_39
REMARK    3  A    between atoms: O_2  and  C_13
REMARK    4  A    between atoms: O_3  and  C_16
REMARK    5  A    between atoms: O_4  and  C_18
REMARK    6  A    between atoms: O_8  and  C_27
REMARK    7  A    between atoms: O_8  and  C_38
REMARK    8  A    between atoms: N_9  and  C_14
REMARK    9  A    between atoms: N_10  and  C_20
REMARK   10  A    between atoms: C_13  and  C_19
REMARK   11  A    between atoms: C_20  and  C_22
REMARK   12  A    between atoms: C_20  and  C_25
REMARK   13  A    between atoms: C_21  and  C_23
REMARK   14  A    between atoms: C_22  and  C_24
REMARK                            x       y       z     vdW  Elec       q    Type
REMARK                         _______ _______ _______ _____ _____    ______ ____
ROOT
ATOM     13  C   UNL     1      -2.932  -0.402  24.671  0.00  0.00    +0.146 C 
ATOM     14  C   UNL     1      -0.601  -1.355  25.019  0.00  0.00    +0.107 C 
ATOM     15  C   UNL     1      -1.427  -0.151  24.552  0.00  0.00    +0.069 C 
ATOM     16  C   UNL     1      -1.023  -2.647  24.305  0.00  0.00    +0.163 C 
ATOM     17  C   UNL     1      -3.340  -1.679  23.941  0.00  0.00    +0.078 C 
ATOM     18  C   UNL     1      -2.531  -2.891  24.403  0.00  0.00    +0.148 C 
ENDROOT
BRANCH  13  19
ATOM      5  O   UNL     1      -3.605   1.136  22.972  0.00  0.00    -0.273 OA
ATOM     10  N   UNL     1      -4.494   1.361  25.112  0.00  0.00    -0.301 N 
ATOM     19  C   UNL     1      -3.706   0.769  24.140  0.00  0.00    +0.246 C 
ATOM     44  H   UNL     1      -4.586   0.905  26.016  0.00  0.00    +0.150 HD
BRANCH  10  20
ATOM     20  C   UNL     1      -5.319   2.520  24.863  0.00  0.00    +0.163 C 
BRANCH  20  25
ATOM      7  O   UNL     1      -7.628   1.915  24.405  0.00  0.00    -0.274 OA
ATOM     12  N   UNL     1      -6.935   2.028  26.593  0.00  0.00    -0.328 N 
ATOM     25  C   UNL     1      -6.747   2.141  25.231  0.00  0.00    +0.231 C 
ATOM     46  H   UNL     1      -7.839   1.768  26.973  0.00  0.00    +0.145 HD
ATOM     47  H   UNL     1      -6.191   2.195  27.262  0.00  0.00    +0.145 HD
ENDBRANCH  20  25
BRANCH  20  22
ATOM     22  C   UNL     1      -4.867   3.743  25.671  0.00  0.00    +0.069 C 
BRANCH  22  24
ATOM     11  N   UNL     1      -1.927   5.394  24.268  0.00  0.00    -0.360 N 
ATOM     24  C   UNL     1      -3.501   4.235  25.250  0.00  0.00    -0.020 A 
ATOM     26  C   UNL     1      -2.276   3.707  25.686  0.00  0.00    +0.003 A 
ATOM     28  C   UNL     1      -3.284   5.260  24.389  0.00  0.00    +0.087 A 
ATOM     30  C   UNL     1      -1.287   4.458  25.049  0.00  0.00    +0.047 A 
ATOM     31  C   UNL     1      -1.886   2.669  26.555  0.00  0.00    +0.010 A 
ATOM     34  C   UNL     1       0.080   4.224  25.239  0.00  0.00    +0.026 A 
ATOM     36  C   UNL     1      -0.523   2.422  26.755  0.00  0.00    +0.001 A 
ATOM     37  C   UNL     1       0.443   3.188  26.106  0.00  0.00    +0.002 A 
ATOM     45  H   UNL     1      -1.462   6.080  23.690  0.00  0.00    +0.165 HD
ENDBRANCH  22  24
ENDBRANCH  20  22
ENDBRANCH  10  20
ENDBRANCH  13  19
BRANCH  14   9
ATOM      6  O   UNL     1       0.663  -0.688  22.530  0.00  0.00    -0.270 OA
ATOM      9  N   UNL     1       0.806  -1.094  24.808  0.00  0.00    -0.306 N 
ATOM     21  C   UNL     1       1.322  -0.778  23.562  0.00  0.00    +0.248 C 
ATOM     40  H   UNL     1       1.426  -1.265  25.592  0.00  0.00    +0.149 HD
BRANCH  21  23
ATOM     23  C   UNL     1       2.790  -0.564  23.508  0.00  0.00    +0.078 A 
ATOM     27  C   UNL     1       3.292   0.660  23.109  0.00  0.00    +0.133 A 
ATOM     29  C   UNL     1       3.614  -1.613  23.863  0.00  0.00    +0.018 A 
ATOM     32  C   UNL     1       4.673   0.841  23.063  0.00  0.00    +0.061 A 
ATOM     33  C   UNL     1       4.997  -1.432  23.817  0.00  0.00    +0.015 A 
ATOM     35  C   UNL     1       5.527  -0.205  23.417  0.00  0.00    +0.011 A 
BRANCH  35   1
ATOM      1  S   UNL     1       7.292   0.026  23.358  0.00  0.00    -0.128 S 
ATOM     39  C   UNL     1       7.810  -1.345  22.288  0.00  0.00    +0.090 C 
ENDBRANCH  35   1
BRANCH  27   8
ATOM      8  O   UNL     1       2.475   1.693  22.759  0.00  0.00    -0.494 OA
ATOM     38  C   UNL     1       1.331   1.921  23.580  0.00  0.00    +0.277 C 
ENDBRANCH  27   8
ENDBRANCH  21  23
ENDBRANCH  14   9
BRANCH  13   2
ATOM      2  O   UNL     1      -3.313  -0.506  26.038  0.00  0.00    -0.379 OA
ATOM     41  H   UNL     1      -3.092   0.329  26.483  0.00  0.00    +0.211 HD
ENDBRANCH  13   2
BRANCH  16   3
ATOM      3  O   UNL     1      -0.364  -3.758  24.921  0.00  0.00    -0.387 OA
ATOM     42  H   UNL     1       0.499  -3.865  24.489  0.00  0.00    +0.210 HD
ENDBRANCH  16   3
BRANCH  18   4
ATOM      4  O   UNL     1      -2.862  -4.008  23.578  0.00  0.00    -0.389 OA
ATOM     43  H   UNL     1      -2.770  -4.812  24.118  0.00  0.00    +0.210 HD
ENDBRANCH  18   4
TORSDOF 12
ENDMDL
MODEL 3
REMARK VINA RESULT:       6.3      1.737      2.369
REMARK  Name = 11882559
REMARK  14 active torsions:
REMARK  status: ('A' for Active; 'I' for Inactive)
REMARK    1  A    between atoms: S_1  and  C_35
REMARK    2  A    between atoms: S_1  and  C_39
REMARK    3  A    between atoms: O_2  and  C_13
REMARK    4  A    between atoms: O_3  and  C_16
REMARK    5  A    between atoms: O_4  and  C_18
REMARK    6  A    between atoms: O_8  and  C_27
REMARK    7  A    between atoms: O_8  and  C_38
REMARK    8  A    between atoms: N_9  and  C_14
REMARK    9  A    between atoms: N_10  and  C_20
REMARK   10  A    between atoms: C_13  and  C_19
REMARK   11  A    between atoms: C_20  and  C_22
REMARK   12  A    between atoms: C_20  and  C_25
REMARK   13  A    between atoms: C_21  and  C_23
REMARK   14  A    between atoms: C_22  and  C_24
REMARK                            x       y       z     vdW  Elec       q    Type
REMARK                         _______ _______ _______ _____ _____    ______ ____
ROOT
ATOM     13  C   UNL     1      -4.333   0.120  24.958  0.00  0.00    +0.146 C 
ATOM     14  C   UNL     1      -2.058  -1.013  24.997  0.00  0.00    +0.107 C 
ATOM     15  C   UNL     1      -2.824   0.294  24.766  0.00  0.00    +0.069 C 
ATOM     16  C   UNL     1      -2.614  -2.159  24.141  0.00  0.00    +0.163 C 
ATOM     17  C   UNL     1      -4.875  -1.011  24.086  0.00  0.00    +0.078 C 
ATOM     18  C   UNL     1      -4.126  -2.323  24.313  0.00  0.00    +0.148 C 
ENDROOT
BRANCH  13  19
ATOM      5  O   UNL     1      -6.224   1.412  24.279  0.00  0.00    -0.273 OA
ATOM     10  N   UNL     1      -4.246   2.511  24.826  0.00  0.00    -0.301 N 
ATOM     19  C   UNL     1      -5.055   1.400  24.654  0.00  0.00    +0.246 C 
ATOM     44  H   UNL     1      -3.330   2.392  25.248  0.00  0.00    +0.150 HD
BRANCH  10  20
ATOM     20  C   UNL     1      -4.696   3.861  24.577  0.00  0.00    +0.163 C 
BRANCH  20  25
ATOM      7  O   UNL     1      -6.320   5.268  25.713  0.00  0.00    -0.274 OA
ATOM     12  N   UNL     1      -5.980   3.134  26.492  0.00  0.00    -0.328 N 
ATOM     25  C   UNL     1      -5.732   4.191  25.642  0.00  0.00    +0.231 C 
ATOM     46  H   UNL     1      -6.660   3.216  27.240  0.00  0.00    +0.145 HD
ATOM     47  H   UNL     1      -5.504   2.242  26.406  0.00  0.00    +0.145 HD
ENDBRANCH  20  25
BRANCH  20  22
ATOM     22  C   UNL     1      -3.546   4.876  24.619  0.00  0.00    +0.069 C 
BRANCH  22  24
ATOM     11  N   UNL     1      -0.285   3.423  23.854  0.00  0.00    -0.360 N 
ATOM     24  C   UNL     1      -2.191   4.208  24.585  0.00  0.00    -0.020 A 
ATOM     26  C   UNL     1      -1.539   3.632  25.686  0.00  0.00    +0.003 A 
ATOM     28  C   UNL     1      -1.425   4.079  23.474  0.00  0.00    +0.087 A 
ATOM     30  C   UNL     1      -0.328   3.138  25.200  0.00  0.00    +0.047 A 
ATOM     31  C   UNL     1      -1.838   3.471  27.054  0.00  0.00    +0.010 A 
ATOM     34  C   UNL     1       0.605   2.488  26.016  0.00  0.00    +0.026 A 
ATOM     36  C   UNL     1      -0.915   2.823  27.883  0.00  0.00    +0.001 A 
ATOM     37  C   UNL     1       0.287   2.340  27.369  0.00  0.00    +0.002 A 
ATOM     45  H   UNL     1       0.479   3.183  23.237  0.00  0.00    +0.165 HD
ENDBRANCH  22  24
ENDBRANCH  20  22
ENDBRANCH  10  20
ENDBRANCH  13  19
BRANCH  14   9
ATOM      6  O   UNL     1      -0.935   0.480  22.818  0.00  0.00    -0.270 OA
ATOM      9  N   UNL     1      -0.652  -0.810  24.724  0.00  0.00    -0.306 N 
ATOM     21  C   UNL     1      -0.208  -0.069  23.641  0.00  0.00    +0.248 C 
ATOM     40  H   UNL     1       0.006  -1.330  25.294  0.00  0.00    +0.149 HD
BRANCH  21  23
ATOM     23  C   UNL     1       1.266   0.025  23.484  0.00  0.00    +0.078 A 
ATOM     27  C   UNL     1       2.053  -1.087  23.709  0.00  0.00    +0.133 A 
ATOM     29  C   UNL     1       1.804   1.241  23.114  0.00  0.00    +0.018 A 
ATOM     32  C   UNL     1       3.435  -0.979  23.558  0.00  0.00    +0.061 A 
ATOM     33  C   UNL     1       3.187   1.350  22.962  0.00  0.00    +0.015 A 
ATOM     35  C   UNL     1       4.002   0.240  23.185  0.00  0.00    +0.011 A 
BRANCH  35   1
ATOM      1  S   UNL     1       5.768   0.380  22.991  0.00  0.00    -0.128 S 
ATOM     39  C   UNL     1       6.370  -0.829  24.203  0.00  0.00    +0.090 C 
ENDBRANCH  35   1
BRANCH  27   8
ATOM      8  O   UNL     1       1.518  -2.286  24.075  0.00  0.00    -0.494 OA
ATOM     38  C   UNL     1       1.179  -2.452  25.450  0.00  0.00    +0.277 C 
ENDBRANCH  27   8
ENDBRANCH  21  23
ENDBRANCH  14   9
BRANCH  13   2
ATOM      2  O   UNL     1      -4.633  -0.158  26.320  0.00  0.00    -0.379 OA
ATOM     41  H   UNL     1      -3.979  -0.794  26.656  0.00  0.00    +0.211 HD
ENDBRANCH  13   2
BRANCH  16   3
ATOM      3  O   UNL     1      -1.997  -3.386  24.546  0.00  0.00    -0.387 OA
ATOM     42  H   UNL     1      -2.685  -3.945  24.942  0.00  0.00    +0.210 HD
ENDBRANCH  16   3
BRANCH  18   4
ATOM      4  O   UNL     1      -4.586  -3.287  23.366  0.00  0.00    -0.389 OA
ATOM     43  H   UNL     1      -5.333  -3.763  23.767  0.00  0.00    +0.210 HD
ENDBRANCH  18   4
TORSDOF 12
ENDMDL
MODEL 4
REMARK VINA RESULT:       7.2      1.943      4.834
REMARK  Name = 11882559
REMARK  14 active torsions:
REMARK  status: ('A' for Active; 'I' for Inactive)
REMARK    1  A    between atoms: S_1  and  C_35
REMARK    2  A    between atoms: S_1  and  C_39
REMARK    3  A    between atoms: O_2  and  C_13
REMARK    4  A    between atoms: O_3  and  C_16
REMARK    5  A    between atoms: O_4  and  C_18
REMARK    6  A    between atoms: O_8  and  C_27
REMARK    7  A    between atoms: O_8  and  C_38
REMARK    8  A    between atoms: N_9  and  C_14
REMARK    9  A    between atoms: N_10  and  C_20
REMARK   10  A    between atoms: C_13  and  C_19
REMARK   11  A    between atoms: C_20  and  C_22
REMARK   12  A    between atoms: C_20  and  C_25
REMARK   13  A    between atoms: C_21  and  C_23
REMARK   14  A    between atoms: C_22  and  C_24
REMARK                            x       y       z     vdW  Elec       q    Type
REMARK                         _______ _______ _______ _____ _____    ______ ____
ROOT
ATOM     13  C   UNL     1      -3.205   3.751  24.750  0.00  0.00    +0.146 C 
ATOM     14  C   UNL     1      -0.855   3.885  23.791  0.00  0.00    +0.107 C 
ATOM     15  C   UNL     1      -1.900   2.999  24.479  0.00  0.00    +0.069 C 
ATOM     16  C   UNL     1      -0.614   5.188  24.565  0.00  0.00    +0.163 C 
ATOM     17  C   UNL     1      -2.952   5.036  25.537  0.00  0.00    +0.078 C 
ATOM     18  C   UNL     1      -1.918   5.933  24.857  0.00  0.00    +0.148 C 
ENDROOT
BRANCH  13  19
ATOM      5  O   UNL     1      -4.760   3.261  26.497  0.00  0.00    -0.273 OA
ATOM     10  N   UNL     1      -4.297   1.624  24.908  0.00  0.00    -0.301 N 
ATOM     19  C   UNL     1      -4.176   2.875  25.487  0.00  0.00    +0.246 C 
ATOM     44  H   UNL     1      -3.853   1.452  24.010  0.00  0.00    +0.150 HD
BRANCH  10  20
ATOM     20  C   UNL     1      -5.151   0.586  25.439  0.00  0.00    +0.163 C 
BRANCH  20  25
ATOM      7  O   UNL     1      -6.872   1.280  27.009  0.00  0.00    -0.274 OA
ATOM     12  N   UNL     1      -7.102   1.862  24.799  0.00  0.00    -0.328 N 
ATOM     25  C   UNL     1      -6.457   1.251  25.853  0.00  0.00    +0.231 C 
ATOM     46  H   UNL     1      -7.979   2.354  24.940  0.00  0.00    +0.145 HD
ATOM     47  H   UNL     1      -6.735   1.851  23.853  0.00  0.00    +0.145 HD
ENDBRANCH  20  25
BRANCH  20  22
ATOM     22  C   UNL     1      -5.419  -0.527  24.419  0.00  0.00    +0.069 C 
BRANCH  22  24
ATOM     11  N   UNL     1      -3.075  -3.253  23.781  0.00  0.00    -0.360 N 
ATOM     24  C   UNL     1      -4.262  -1.492  24.306  0.00  0.00    -0.020 A 
ATOM     26  C   UNL     1      -2.984  -1.299  24.853  0.00  0.00    +0.003 A 
ATOM     28  C   UNL     1      -4.312  -2.681  23.655  0.00  0.00    +0.087 A 
ATOM     30  C   UNL     1      -2.244  -2.431  24.508  0.00  0.00    +0.047 A 
ATOM     31  C   UNL     1      -2.363  -0.285  25.608  0.00  0.00    +0.010 A 
ATOM     34  C   UNL     1      -0.906  -2.601  24.881  0.00  0.00    +0.026 A 
ATOM     36  C   UNL     1      -1.024  -0.441  25.989  0.00  0.00    +0.001 A 
ATOM     37  C   UNL     1      -0.310  -1.582  25.630  0.00  0.00    +0.002 A 
ATOM     45  H   UNL     1      -2.809  -4.149  23.396  0.00  0.00    +0.165 HD
ENDBRANCH  22  24
ENDBRANCH  20  22
ENDBRANCH  10  20
ENDBRANCH  13  19
BRANCH  14   9
ATOM      6  O   UNL     1      -0.589   1.112  23.099  0.00  0.00    -0.270 OA
ATOM      9  N   UNL     1       0.380   3.150  23.634  0.00  0.00    -0.306 N 
ATOM     21  C   UNL     1       0.405   1.807  23.296  0.00  0.00    +0.248 C 
ATOM     40  H   UNL     1       1.235   3.628  23.896  0.00  0.00    +0.149 HD
BRANCH  21  23
ATOM     23  C   UNL     1       1.752   1.190  23.198  0.00  0.00    +0.078 A 
ATOM     27  C   UNL     1       1.881  -0.116  22.769  0.00  0.00    +0.133 A 
ATOM     29  C   UNL     1       2.845   1.958  23.548  0.00  0.00    +0.018 A 
ATOM     32  C   UNL     1       3.155  -0.677  22.685  0.00  0.00    +0.061 A 
ATOM     33  C   UNL     1       4.120   1.397  23.464  0.00  0.00    +0.015 A 
ATOM     35  C   UNL     1       4.275   0.079  23.033  0.00  0.00    +0.011 A 
BRANCH  35   1
ATOM      1  S   UNL     1       5.903  -0.637  22.926  0.00  0.00    -0.128 S 
ATOM     39  C   UNL     1       6.120  -1.313  24.596  0.00  0.00    +0.090 C 
ENDBRANCH  35   1
BRANCH  27   8
ATOM      8  O   UNL     1       0.800  -0.870  22.424  0.00  0.00    -0.494 OA
ATOM     38  C   UNL     1       0.553  -1.051  21.031  0.00  0.00    +0.277 C 
ENDBRANCH  27   8
ENDBRANCH  21  23
ENDBRANCH  14   9
BRANCH  13   2
ATOM      2  O   UNL     1      -3.856   4.076  23.528  0.00  0.00    -0.379 OA
ATOM     41  H   UNL     1      -4.513   4.771  23.703  0.00  0.00    +0.211 HD
ENDBRANCH  13   2
BRANCH  16   3
ATOM      3  O   UNL     1       0.211   6.053  23.777  0.00  0.00    -0.387 OA
ATOM     42  H   UNL     1       1.036   5.578  23.585  0.00  0.00    +0.210 HD
ENDBRANCH  16   3
BRANCH  18   4
ATOM      4  O   UNL     1      -1.627   7.034  25.717  0.00  0.00    -0.389 OA
ATOM     43  H   UNL     1      -1.578   6.695  26.627  0.00  0.00    +0.210 HD
ENDBRANCH  18   4
TORSDOF 12
ENDMDL
