MODEL 1
REMARK VINA RESULT:       2.1      0.000      0.000
REMARK  Name = 11867446
REMARK  11 active torsions:
REMARK  status: ('A' for Active; 'I' for Inactive)
REMARK    1  A    between atoms: O_3  and  C_12
REMARK    2  A    between atoms: O_3  and  C_17
REMARK    3  A    between atoms: O_5  and  C_30
REMARK    4  A    between atoms: O_5  and  C_31
REMARK    5  A    between atoms: N_6  and  C_11
REMARK    6  A    between atoms: N_6  and  C_15
REMARK    7  A    between atoms: N_7  and  C_23
REMARK    8  A    between atoms: N_8  and  C_22
REMARK    9  A    between atoms: N_8  and  C_26
REMARK   10  A    between atoms: N_8  and  C_27
REMARK   11  A    between atoms: C_15  and  C_16
REMARK                            x       y       z     vdW  Elec       q    Type
REMARK                         _______ _______ _______ _____ _____    ______ ____
ROOT
ATOM      1  O   UNL     1      -3.222   3.676  26.460  0.00  0.00    -0.369 OA
ATOM      2  O   UNL     1      -4.349   4.586  23.770  0.00  0.00    -0.369 OA
ATOM      9  C   UNL     1      -4.466   3.331  24.474  0.00  0.00    +0.170 C 
ATOM     10  C   UNL     1      -3.132   3.085  25.151  0.00  0.00    +0.191 C 
ATOM     11  C   UNL     1      -5.443   3.470  25.621  0.00  0.00    +0.111 C 
ATOM     12  C   UNL     1      -2.171   3.838  24.263  0.00  0.00    +0.235 C 
ATOM     13  C   UNL     1      -4.571   4.105  26.694  0.00  0.00    +0.181 C 
ATOM     14  C   UNL     1      -2.991   5.042  23.856  0.00  0.00    +0.207 C 
ENDROOT
BRANCH  11   6
ATOM      6  N   UNL     1      -5.924   2.166  26.077  0.00  0.00    -0.305 NA
ATOM     32  H   UNL     1      -6.851   2.275  26.490  0.00  0.00    +0.123 HD
BRANCH   6  15
ATOM     15  C   UNL     1      -6.023   1.235  24.964  0.00  0.00    +0.116 C 
BRANCH  15  16
ATOM     16  C   UNL     1      -4.836   0.310  24.900  0.00  0.00    -0.033 A 
ATOM     18  C   UNL     1      -4.296  -0.048  23.665  0.00  0.00    +0.007 A 
ATOM     19  C   UNL     1      -4.276  -0.188  26.078  0.00  0.00    +0.007 A 
ATOM     20  C   UNL     1      -3.197  -0.904  23.606  0.00  0.00    +0.023 A 
ATOM     21  C   UNL     1      -3.176  -1.044  26.018  0.00  0.00    +0.023 A 
ATOM     22  C   UNL     1      -2.637  -1.402  24.784  0.00  0.00    +0.029 A 
BRANCH  22   8
ATOM      8  N   UNL     1      -1.525  -2.268  24.724  0.00  0.00    -0.336 N 
ATOM     26  C   UNL     1      -0.446  -2.145  25.683  0.00  0.00    +0.129 C 
ATOM     27  C   UNL     1      -1.442  -3.285  23.695  0.00  0.00    +0.129 C 
ENDBRANCH  22   8
ENDBRANCH  15  16
ENDBRANCH   6  15
ENDBRANCH  11   6
BRANCH  12   3
ATOM      3  O   UNL     1      -0.975   4.206  24.913  0.00  0.00    -0.442 OA
BRANCH   3  17
ATOM      4  O   UNL     1       0.421   2.917  26.186  0.00  0.00    -0.226 OA
ATOM      7  N   UNL     1       0.285   2.658  23.863  0.00  0.00    -0.251 N 
ATOM     17  C   UNL     1      -0.032   3.216  25.088  0.00  0.00    +0.405 C 
ATOM     33  H   UNL     1      -0.200   3.042  23.056  0.00  0.00    +0.158 HD
BRANCH   7  23
ATOM     23  C   UNL     1       1.203   1.618  23.592  0.00  0.00    +0.037 A 
ATOM     24  C   UNL     1       2.536   1.920  23.313  0.00  0.00    +0.027 A 
ATOM     25  C   UNL     1       0.777   0.290  23.603  0.00  0.00    +0.027 A 
ATOM     28  C   UNL     1       3.442   0.894  23.046  0.00  0.00    +0.047 A 
ATOM     29  C   UNL     1       1.683  -0.736  23.336  0.00  0.00    +0.047 A 
ATOM     30  C   UNL     1       3.016  -0.434  23.057  0.00  0.00    +0.120 A 
BRANCH  30   5
ATOM      5  O   UNL     1       3.901  -1.435  22.799  0.00  0.00    -0.495 OA
ATOM     31  C   UNL     1       4.902  -1.686  23.783  0.00  0.00    +0.277 C 
ENDBRANCH  30   5
ENDBRANCH   7  23
ENDBRANCH   3  17
ENDBRANCH  12   3
TORSDOF 8
ENDMDL
MODEL 2
REMARK VINA RESULT:       2.2      2.323      4.673
REMARK  Name = 11867446
REMARK  11 active torsions:
REMARK  status: ('A' for Active; 'I' for Inactive)
REMARK    1  A    between atoms: O_3  and  C_12
REMARK    2  A    between atoms: O_3  and  C_17
REMARK    3  A    between atoms: O_5  and  C_30
REMARK    4  A    between atoms: O_5  and  C_31
REMARK    5  A    between atoms: N_6  and  C_11
REMARK    6  A    between atoms: N_6  and  C_15
REMARK    7  A    between atoms: N_7  and  C_23
REMARK    8  A    between atoms: N_8  and  C_22
REMARK    9  A    between atoms: N_8  and  C_26
REMARK   10  A    between atoms: N_8  and  C_27
REMARK   11  A    between atoms: C_15  and  C_16
REMARK                            x       y       z     vdW  Elec       q    Type
REMARK                         _______ _______ _______ _____ _____    ______ ____
ROOT
ATOM      1  O   UNL     1      -3.361   0.194  23.669  0.00  0.00    -0.369 OA
ATOM      2  O   UNL     1      -3.296  -2.374  25.323  0.00  0.00    -0.369 OA
ATOM      9  C   UNL     1      -3.584  -1.009  25.697  0.00  0.00    +0.170 C 
ATOM     10  C   UNL     1      -2.658  -0.129  24.882  0.00  0.00    +0.191 C 
ATOM     11  C   UNL     1      -4.970  -0.625  25.224  0.00  0.00    +0.111 C 
ATOM     12  C   UNL     1      -1.485  -1.043  24.620  0.00  0.00    +0.235 C 
ATOM     13  C   UNL     1      -4.714  -0.277  23.766  0.00  0.00    +0.181 C 
ATOM     14  C   UNL     1      -2.160  -2.385  24.446  0.00  0.00    +0.207 C 
ENDROOT
BRANCH  11   6
ATOM      6  N   UNL     1      -5.473   0.549  25.937  0.00  0.00    -0.305 NA
ATOM     32  H   UNL     1      -4.774   0.858  26.613  0.00  0.00    +0.123 HD
BRANCH   6  15
ATOM     15  C   UNL     1      -5.733   1.641  25.012  0.00  0.00    +0.116 C 
BRANCH  15  16
ATOM     16  C   UNL     1      -4.589   2.620  24.966  0.00  0.00    -0.033 A 
ATOM     18  C   UNL     1      -4.110   3.077  23.738  0.00  0.00    +0.007 A 
ATOM     19  C   UNL     1      -4.008   3.070  26.153  0.00  0.00    +0.007 A 
ATOM     20  C   UNL     1      -3.051   3.983  23.696  0.00  0.00    +0.023 A 
ATOM     21  C   UNL     1      -2.949   3.977  26.109  0.00  0.00    +0.023 A 
ATOM     22  C   UNL     1      -2.470   4.433  24.882  0.00  0.00    +0.029 A 
BRANCH  22   8
ATOM      8  N   UNL     1      -1.399   5.349  24.839  0.00  0.00    -0.336 N 
ATOM     26  C   UNL     1      -1.642   6.770  24.987  0.00  0.00    +0.129 C 
ATOM     27  C   UNL     1      -0.043   4.883  24.633  0.00  0.00    +0.129 C 
ENDBRANCH  22   8
ENDBRANCH  15  16
ENDBRANCH   6  15
ENDBRANCH  11   6
BRANCH  12   3
ATOM      3  O   UNL     1      -0.729  -0.678  23.487  0.00  0.00    -0.442 OA
BRANCH   3  17
ATOM      4  O   UNL     1       0.517   1.085  24.240  0.00  0.00    -0.226 OA
ATOM      7  N   UNL     1       1.513  -0.802  23.277  0.00  0.00    -0.251 N 
ATOM     17  C   UNL     1       0.461  -0.021  23.718  0.00  0.00    +0.405 C 
ATOM     33  H   UNL     1       1.266  -1.700  22.868  0.00  0.00    +0.158 HD
BRANCH   7  23
ATOM     23  C   UNL     1       2.894  -0.507  23.322  0.00  0.00    +0.037 A 
ATOM     24  C   UNL     1       3.367   0.698  22.801  0.00  0.00    +0.027 A 
ATOM     25  C   UNL     1       3.785  -1.418  23.888  0.00  0.00    +0.027 A 
ATOM     28  C   UNL     1       4.730   0.990  22.846  0.00  0.00    +0.047 A 
ATOM     29  C   UNL     1       5.148  -1.126  23.934  0.00  0.00    +0.047 A 
ATOM     30  C   UNL     1       5.621   0.078  23.412  0.00  0.00    +0.120 A 
BRANCH  30   5
ATOM      5  O   UNL     1       6.950   0.364  23.459  0.00  0.00    -0.495 OA
ATOM     31  C   UNL     1       7.839  -0.581  22.868  0.00  0.00    +0.277 C 
ENDBRANCH  30   5
ENDBRANCH   7  23
ENDBRANCH   3  17
ENDBRANCH  12   3
TORSDOF 8
ENDMDL
MODEL 3
REMARK VINA RESULT:       2.8      2.726      4.564
REMARK  Name = 11867446
REMARK  11 active torsions:
REMARK  status: ('A' for Active; 'I' for Inactive)
REMARK    1  A    between atoms: O_3  and  C_12
REMARK    2  A    between atoms: O_3  and  C_17
REMARK    3  A    between atoms: O_5  and  C_30
REMARK    4  A    between atoms: O_5  and  C_31
REMARK    5  A    between atoms: N_6  and  C_11
REMARK    6  A    between atoms: N_6  and  C_15
REMARK    7  A    between atoms: N_7  and  C_23
REMARK    8  A    between atoms: N_8  and  C_22
REMARK    9  A    between atoms: N_8  and  C_26
REMARK   10  A    between atoms: N_8  and  C_27
REMARK   11  A    between atoms: C_15  and  C_16
REMARK                            x       y       z     vdW  Elec       q    Type
REMARK                         _______ _______ _______ _____ _____    ______ ____
ROOT
ATOM      1  O   UNL     1      -2.310   0.694  23.618  0.00  0.00    -0.369 OA
ATOM      2  O   UNL     1      -5.118  -0.191  24.435  0.00  0.00    -0.369 OA
ATOM      9  C   UNL     1      -4.229   0.795  25.003  0.00  0.00    +0.170 C 
ATOM     10  C   UNL     1      -2.824   0.238  24.882  0.00  0.00    +0.191 C 
ATOM     11  C   UNL     1      -4.210   2.035  24.135  0.00  0.00    +0.111 C 
ATOM     12  C   UNL     1      -3.064  -1.253  24.882  0.00  0.00    +0.235 C 
ATOM     13  C   UNL     1      -3.230   1.634  23.043  0.00  0.00    +0.181 C 
ATOM     14  C   UNL     1      -4.361  -1.367  24.113  0.00  0.00    +0.207 C 
ENDROOT
BRANCH  11   6
ATOM      6  N   UNL     1      -3.697   3.193  24.866  0.00  0.00    -0.305 NA
ATOM     32  H   UNL     1      -3.690   2.986  25.865  0.00  0.00    +0.123 HD
BRANCH   6  15
ATOM     15  C   UNL     1      -2.338   3.504  24.451  0.00  0.00    +0.116 C 
BRANCH  15  16
ATOM     16  C   UNL     1      -1.346   3.267  25.560  0.00  0.00    -0.033 A 
ATOM     18  C   UNL     1      -0.022   2.950  25.256  0.00  0.00    +0.007 A 
ATOM     19  C   UNL     1      -1.753   3.363  26.891  0.00  0.00    +0.007 A 
ATOM     20  C   UNL     1       0.896   2.730  26.282  0.00  0.00    +0.023 A 
ATOM     21  C   UNL     1      -0.834   3.143  27.918  0.00  0.00    +0.023 A 
ATOM     22  C   UNL     1       0.489   2.827  27.613  0.00  0.00    +0.029 A 
BRANCH  22   8
ATOM      8  N   UNL     1       1.418   2.604  28.652  0.00  0.00    -0.336 N 
ATOM     26  C   UNL     1       0.963   2.259  29.983  0.00  0.00    +0.129 C 
ATOM     27  C   UNL     1       2.840   2.731  28.403  0.00  0.00    +0.129 C 
ENDBRANCH  22   8
ENDBRANCH  15  16
ENDBRANCH   6  15
ENDBRANCH  11   6
BRANCH  12   3
ATOM      3  O   UNL     1      -2.023  -1.990  24.279  0.00  0.00    -0.442 OA
BRANCH   3  17
ATOM      4  O   UNL     1      -0.254  -1.766  25.711  0.00  0.00    -0.226 OA
ATOM      7  N   UNL     1      -0.122  -1.078  23.477  0.00  0.00    -0.251 N 
ATOM     17  C   UNL     1      -0.733  -1.617  24.594  0.00  0.00    +0.405 C 
ATOM     33  H   UNL     1      -0.687  -1.037  22.632  0.00  0.00    +0.158 HD
BRANCH   7  23
ATOM     23  C   UNL     1       1.193  -0.573  23.364  0.00  0.00    +0.037 A 
ATOM     24  C   UNL     1       1.399   0.775  23.067  0.00  0.00    +0.027 A 
ATOM     25  C   UNL     1       2.284  -1.421  23.548  0.00  0.00    +0.027 A 
ATOM     28  C   UNL     1       2.696   1.273  22.955  0.00  0.00    +0.047 A 
ATOM     29  C   UNL     1       3.582  -0.922  23.437  0.00  0.00    +0.047 A 
ATOM     30  C   UNL     1       3.788   0.425  23.140  0.00  0.00    +0.120 A 
BRANCH  30   5
ATOM      5  O   UNL     1       5.055   0.912  23.034  0.00  0.00    -0.495 OA
ATOM     31  C   UNL     1       6.115   0.064  23.469  0.00  0.00    +0.277 C 
ENDBRANCH  30   5
ENDBRANCH   7  23
ENDBRANCH   3  17
ENDBRANCH  12   3
TORSDOF 8
ENDMDL
MODEL 4
REMARK VINA RESULT:       3.6     15.689     19.023
REMARK  Name = 11867446
REMARK  11 active torsions:
REMARK  status: ('A' for Active; 'I' for Inactive)
REMARK    1  A    between atoms: O_3  and  C_12
REMARK    2  A    between atoms: O_3  and  C_17
REMARK    3  A    between atoms: O_5  and  C_30
REMARK    4  A    between atoms: O_5  and  C_31
REMARK    5  A    between atoms: N_6  and  C_11
REMARK    6  A    between atoms: N_6  and  C_15
REMARK    7  A    between atoms: N_7  and  C_23
REMARK    8  A    between atoms: N_8  and  C_22
REMARK    9  A    between atoms: N_8  and  C_26
REMARK   10  A    between atoms: N_8  and  C_27
REMARK   11  A    between atoms: C_15  and  C_16
REMARK                            x       y       z     vdW  Elec       q    Type
REMARK                         _______ _______ _______ _____ _____    ______ ____
ROOT
ATOM      1  O   UNL     1      -3.392  -9.147   9.695  0.00  0.00    -0.369 OA
ATOM      2  O   UNL     1      -5.127 -10.398  11.877  0.00  0.00    -0.369 OA
ATOM      9  C   UNL     1      -3.784 -10.699  11.440  0.00  0.00    +0.170 C 
ATOM     10  C   UNL     1      -3.762 -10.516   9.935  0.00  0.00    +0.191 C 
ATOM     11  C   UNL     1      -2.824  -9.648  11.953  0.00  0.00    +0.111 C 
ATOM     12  C   UNL     1      -5.199 -10.781   9.554  0.00  0.00    +0.235 C 
ATOM     13  C   UNL     1      -3.012  -8.533  10.935  0.00  0.00    +0.181 C 
ATOM     14  C   UNL     1      -5.954 -10.187  10.723  0.00  0.00    +0.207 C 
ENDROOT
BRANCH  11   6
ATOM      6  N   UNL     1      -1.441 -10.123  11.924  0.00  0.00    -0.305 NA
ATOM     32  H   UNL     1      -1.436 -11.140  11.832  0.00  0.00    +0.123 HD
BRANCH   6  15
ATOM     15  C   UNL     1      -0.725  -9.557  10.791  0.00  0.00    +0.116 C 
BRANCH  15  16
ATOM     16  C   UNL     1       0.431  -8.699  11.233  0.00  0.00    -0.033 A 
ATOM     18  C   UNL     1       1.683  -8.853  10.637  0.00  0.00    +0.007 A 
ATOM     19  C   UNL     1       0.251  -7.749  12.240  0.00  0.00    +0.007 A 
ATOM     20  C   UNL     1       2.753  -8.060  11.046  0.00  0.00    +0.023 A 
ATOM     21  C   UNL     1       1.322  -6.955  12.648  0.00  0.00    +0.023 A 
ATOM     22  C   UNL     1       2.573  -7.110  12.052  0.00  0.00    +0.029 A 
BRANCH  22   8
ATOM      8  N   UNL     1       3.656  -6.307  12.466  0.00  0.00    -0.336 N 
ATOM     26  C   UNL     1       3.603  -4.867  12.313  0.00  0.00    +0.129 C 
ATOM     27  C   UNL     1       4.842  -6.913  13.037  0.00  0.00    +0.129 C 
ENDBRANCH  22   8
ENDBRANCH  15  16
ENDBRANCH   6  15
ENDBRANCH  11   6
BRANCH  12   3
ATOM      3  O   UNL     1      -5.573 -10.194   8.328  0.00  0.00    -0.442 OA
BRANCH   3  17
ATOM      4  O   UNL     1      -7.854 -10.162   8.165  0.00  0.00    -0.226 OA
ATOM      7  N   UNL     1      -6.611  -8.193   8.411  0.00  0.00    -0.251 N 
ATOM     17  C   UNL     1      -6.796  -9.558   8.289  0.00  0.00    +0.405 C 
ATOM     33  H   UNL     1      -5.649  -7.876   8.506  0.00  0.00    +0.158 HD
BRANCH   7  23
ATOM     23  C   UNL     1      -7.596  -7.179   8.420  0.00  0.00    +0.037 A 
ATOM     24  C   UNL     1      -8.943  -7.516   8.557  0.00  0.00    +0.027 A 
ATOM     25  C   UNL     1      -7.222  -5.842   8.291  0.00  0.00    +0.027 A 
ATOM     28  C   UNL     1      -9.914  -6.516   8.565  0.00  0.00    +0.047 A 
ATOM     29  C   UNL     1      -8.193  -4.841   8.300  0.00  0.00    +0.047 A 
ATOM     30  C   UNL     1      -9.541  -5.179   8.437  0.00  0.00    +0.120 A 
BRANCH  30   5
ATOM      5  O   UNL     1     -10.488  -4.202   8.448  0.00  0.00    -0.495 OA
ATOM     31  C   UNL     1     -10.719  -3.536   9.688  0.00  0.00    +0.277 C 
ENDBRANCH  30   5
ENDBRANCH   7  23
ENDBRANCH   3  17
ENDBRANCH  12   3
TORSDOF 8
ENDMDL
MODEL 5
REMARK VINA RESULT:       3.7      2.185      4.881
REMARK  Name = 11867446
REMARK  11 active torsions:
REMARK  status: ('A' for Active; 'I' for Inactive)
REMARK    1  A    between atoms: O_3  and  C_12
REMARK    2  A    between atoms: O_3  and  C_17
REMARK    3  A    between atoms: O_5  and  C_30
REMARK    4  A    between atoms: O_5  and  C_31
REMARK    5  A    between atoms: N_6  and  C_11
REMARK    6  A    between atoms: N_6  and  C_15
REMARK    7  A    between atoms: N_7  and  C_23
REMARK    8  A    between atoms: N_8  and  C_22
REMARK    9  A    between atoms: N_8  and  C_26
REMARK   10  A    between atoms: N_8  and  C_27
REMARK   11  A    between atoms: C_15  and  C_16
REMARK                            x       y       z     vdW  Elec       q    Type
REMARK                         _______ _______ _______ _____ _____    ______ ____
ROOT
ATOM      1  O   UNL     1      -4.374   2.982  23.955  0.00  0.00    -0.369 OA
ATOM      2  O   UNL     1      -5.409   5.000  26.002  0.00  0.00    -0.369 OA
ATOM      9  C   UNL     1      -4.142   4.315  25.899  0.00  0.00    +0.170 C 
ATOM     10  C   UNL     1      -4.441   2.918  25.390  0.00  0.00    +0.191 C 
ATOM     11  C   UNL     1      -3.306   4.936  24.802  0.00  0.00    +0.111 C 
ATOM     12  C   UNL     1      -5.854   2.691  25.874  0.00  0.00    +0.235 C 
ATOM     13  C   UNL     1      -3.880   4.271  23.560  0.00  0.00    +0.181 C 
ATOM     14  C   UNL     1      -6.465   4.066  25.730  0.00  0.00    +0.207 C 
ENDROOT
BRANCH  11   6
ATOM      6  N   UNL     1      -1.892   4.591  24.944  0.00  0.00    -0.305 NA
ATOM     32  H   UNL     1      -1.435   5.279  25.543  0.00  0.00    +0.123 HD
BRANCH   6  15
ATOM     15  C   UNL     1      -1.740   3.279  25.552  0.00  0.00    +0.116 C 
BRANCH  15  16
ATOM     16  C   UNL     1      -0.841   2.385  24.737  0.00  0.00    -0.033 A 
ATOM     18  C   UNL     1       0.525   2.330  25.014  0.00  0.00    +0.007 A 
ATOM     19  C   UNL     1      -1.376   1.612  23.706  0.00  0.00    +0.007 A 
ATOM     20  C   UNL     1       1.357   1.503  24.261  0.00  0.00    +0.023 A 
ATOM     21  C   UNL     1      -0.543   0.785  22.952  0.00  0.00    +0.023 A 
ATOM     22  C   UNL     1       0.822   0.731  23.229  0.00  0.00    +0.029 A 
BRANCH  22   8
ATOM      8  N   UNL     1       1.664  -0.106  22.466  0.00  0.00    -0.336 N 
ATOM     26  C   UNL     1       1.166  -0.756  21.270  0.00  0.00    +0.129 C 
ATOM     27  C   UNL     1       3.034  -0.336  22.875  0.00  0.00    +0.129 C 
ENDBRANCH  22   8
ENDBRANCH  15  16
ENDBRANCH   6  15
ENDBRANCH  11   6
BRANCH  12   3
ATOM      3  O   UNL     1      -6.553   1.719  25.129  0.00  0.00    -0.442 OA
BRANCH   3  17
ATOM      4  O   UNL     1      -6.303  -0.257  24.005  0.00  0.00    -0.226 OA
ATOM      7  N   UNL     1      -4.620   0.587  25.396  0.00  0.00    -0.251 N 
ATOM     17  C   UNL     1      -5.852   0.587  24.769  0.00  0.00    +0.405 C 
ATOM     33  H   UNL     1      -4.423   1.382  26.000  0.00  0.00    +0.158 HD
BRANCH   7  23
ATOM     23  C   UNL     1      -3.597  -0.383  25.304  0.00  0.00    +0.037 A 
ATOM     24  C   UNL     1      -3.734  -1.460  24.428  0.00  0.00    +0.027 A 
ATOM     25  C   UNL     1      -2.450  -0.265  26.089  0.00  0.00    +0.027 A 
ATOM     28  C   UNL     1      -2.725  -2.417  24.336  0.00  0.00    +0.047 A 
ATOM     29  C   UNL     1      -1.440  -1.222  25.997  0.00  0.00    +0.047 A 
ATOM     30  C   UNL     1      -1.577  -2.299  25.120  0.00  0.00    +0.120 A 
BRANCH  30   5
ATOM      5  O   UNL     1      -0.590  -3.232  25.029  0.00  0.00    -0.495 OA
ATOM     31  C   UNL     1       0.728  -2.819  25.384  0.00  0.00    +0.277 C 
ENDBRANCH  30   5
ENDBRANCH   7  23
ENDBRANCH   3  17
ENDBRANCH  12   3
TORSDOF 8
ENDMDL
MODEL 6
REMARK VINA RESULT:       4.6      2.733      4.720
REMARK  Name = 11867446
REMARK  11 active torsions:
REMARK  status: ('A' for Active; 'I' for Inactive)
REMARK    1  A    between atoms: O_3  and  C_12
REMARK    2  A    between atoms: O_3  and  C_17
REMARK    3  A    between atoms: O_5  and  C_30
REMARK    4  A    between atoms: O_5  and  C_31
REMARK    5  A    between atoms: N_6  and  C_11
REMARK    6  A    between atoms: N_6  and  C_15
REMARK    7  A    between atoms: N_7  and  C_23
REMARK    8  A    between atoms: N_8  and  C_22
REMARK    9  A    between atoms: N_8  and  C_26
REMARK   10  A    between atoms: N_8  and  C_27
REMARK   11  A    between atoms: C_15  and  C_16
REMARK                            x       y       z     vdW  Elec       q    Type
REMARK                         _______ _______ _______ _____ _____    ______ ____
ROOT
ATOM      1  O   UNL     1      -4.064   2.009  23.556  0.00  0.00    -0.369 OA
ATOM      2  O   UNL     1      -6.098   2.822  25.686  0.00  0.00    -0.369 OA
ATOM      9  C   UNL     1      -4.666   2.995  25.624  0.00  0.00    +0.170 C 
ATOM     10  C   UNL     1      -4.104   1.748  24.970  0.00  0.00    +0.191 C 
ATOM     11  C   UNL     1      -4.320   4.106  24.657  0.00  0.00    +0.111 C 
ATOM     12  C   UNL     1      -5.139   0.704  25.315  0.00  0.00    +0.235 C 
ATOM     13  C   UNL     1      -4.391   3.386  23.319  0.00  0.00    +0.181 C 
ATOM     14  C   UNL     1      -6.426   1.495  25.247  0.00  0.00    +0.207 C 
ENDROOT
BRANCH  11   6
ATOM      6  N   UNL     1      -2.965   4.609  24.881  0.00  0.00    -0.305 NA
ATOM     32  H   UNL     1      -2.848   4.836  25.869  0.00  0.00    +0.123 HD
BRANCH   6  15
ATOM     15  C   UNL     1      -1.976   3.607  24.520  0.00  0.00    +0.116 C 
BRANCH  15  16
ATOM     16  C   UNL     1      -1.027   3.321  25.655  0.00  0.00    -0.033 A 
ATOM     18  C   UNL     1      -1.492   3.328  26.970  0.00  0.00    +0.007 A 
ATOM     19  C   UNL     1       0.316   3.050  25.390  0.00  0.00    +0.007 A 
ATOM     20  C   UNL     1      -0.614   3.063  28.021  0.00  0.00    +0.023 A 
ATOM     21  C   UNL     1       1.193   2.785  26.442  0.00  0.00    +0.023 A 
ATOM     22  C   UNL     1       0.729   2.792  27.756  0.00  0.00    +0.029 A 
BRANCH  22   8
ATOM      8  N   UNL     1       1.616   2.525  28.820  0.00  0.00    -0.336 N 
ATOM     26  C   UNL     1       1.113   2.065  30.098  0.00  0.00    +0.129 C 
ATOM     27  C   UNL     1       3.042   2.718  28.651  0.00  0.00    +0.129 C 
ENDBRANCH  22   8
ENDBRANCH  15  16
ENDBRANCH   6  15
ENDBRANCH  11   6
BRANCH  12   3
ATOM      3  O   UNL     1      -5.145  -0.396  24.433  0.00  0.00    -0.442 OA
BRANCH   3  17
ATOM      4  O   UNL     1      -3.802  -2.168  23.898  0.00  0.00    -0.226 OA
ATOM      7  N   UNL     1      -2.933  -0.016  24.210  0.00  0.00    -0.251 N 
ATOM     17  C   UNL     1      -3.926  -0.976  24.153  0.00  0.00    +0.405 C 
ATOM     33  H   UNL     1      -3.233   0.928  24.439  0.00  0.00    +0.158 HD
BRANCH   7  23
ATOM     23  C   UNL     1      -1.547  -0.184  23.990  0.00  0.00    +0.037 A 
ATOM     24  C   UNL     1      -0.882   0.633  23.076  0.00  0.00    +0.027 A 
ATOM     25  C   UNL     1      -0.844  -1.166  24.687  0.00  0.00    +0.027 A 
ATOM     28  C   UNL     1       0.485   0.468  22.859  0.00  0.00    +0.047 A 
ATOM     29  C   UNL     1       0.524  -1.331  24.471  0.00  0.00    +0.047 A 
ATOM     30  C   UNL     1       1.189  -0.514  23.556  0.00  0.00    +0.120 A 
BRANCH  30   5
ATOM      5  O   UNL     1       2.524  -0.673  23.347  0.00  0.00    -0.495 OA
ATOM     31  C   UNL     1       3.218   0.408  22.728  0.00  0.00    +0.277 C 
ENDBRANCH  30   5
ENDBRANCH   7  23
ENDBRANCH   3  17
ENDBRANCH  12   3
TORSDOF 8
ENDMDL
MODEL 7
REMARK VINA RESULT:       6.0      1.863      2.733
REMARK  Name = 11867446
REMARK  11 active torsions:
REMARK  status: ('A' for Active; 'I' for Inactive)
REMARK    1  A    between atoms: O_3  and  C_12
REMARK    2  A    between atoms: O_3  and  C_17
REMARK    3  A    between atoms: O_5  and  C_30
REMARK    4  A    between atoms: O_5  and  C_31
REMARK    5  A    between atoms: N_6  and  C_11
REMARK    6  A    between atoms: N_6  and  C_15
REMARK    7  A    between atoms: N_7  and  C_23
REMARK    8  A    between atoms: N_8  and  C_22
REMARK    9  A    between atoms: N_8  and  C_26
REMARK   10  A    between atoms: N_8  and  C_27
REMARK   11  A    between atoms: C_15  and  C_16
REMARK                            x       y       z     vdW  Elec       q    Type
REMARK                         _______ _______ _______ _____ _____    ______ ____
ROOT
ATOM      1  O   UNL     1      -1.672   2.030  25.527  0.00  0.00    -0.369 OA
ATOM      2  O   UNL     1      -0.999   4.666  24.137  0.00  0.00    -0.369 OA
ATOM      9  C   UNL     1      -2.268   4.069  24.480  0.00  0.00    +0.170 C 
ATOM     10  C   UNL     1      -2.118   2.575  24.273  0.00  0.00    +0.191 C 
ATOM     11  C   UNL     1      -2.523   4.212  25.965  0.00  0.00    +0.111 C 
ATOM     12  C   UNL     1      -1.041   2.499  23.217  0.00  0.00    +0.235 C 
ATOM     13  C   UNL     1      -1.712   3.056  26.531  0.00  0.00    +0.181 C 
ATOM     14  C   UNL     1      -0.139   3.651  23.598  0.00  0.00    +0.207 C 
ENDROOT
BRANCH  11   6
ATOM      6  N   UNL     1      -3.938   4.034  26.286  0.00  0.00    -0.305 NA
ATOM     32  H   UNL     1      -4.334   4.929  26.576  0.00  0.00    +0.123 HD
BRANCH   6  15
ATOM     15  C   UNL     1      -4.675   3.560  25.125  0.00  0.00    +0.116 C 
BRANCH  15  16
ATOM     16  C   UNL     1      -4.512   2.076  24.926  0.00  0.00    -0.033 A 
ATOM     18  C   UNL     1      -4.624   1.210  26.013  0.00  0.00    +0.007 A 
ATOM     19  C   UNL     1      -4.249   1.568  23.653  0.00  0.00    +0.007 A 
ATOM     20  C   UNL     1      -4.473  -0.164  25.829  0.00  0.00    +0.023 A 
ATOM     21  C   UNL     1      -4.099   0.193  23.469  0.00  0.00    +0.023 A 
ATOM     22  C   UNL     1      -4.210  -0.672  24.556  0.00  0.00    +0.029 A 
BRANCH  22   8
ATOM      8  N   UNL     1      -4.057  -2.062  24.370  0.00  0.00    -0.336 N 
ATOM     26  C   UNL     1      -3.343  -2.860  25.346  0.00  0.00    +0.129 C 
ATOM     27  C   UNL     1      -4.602  -2.709  23.194  0.00  0.00    +0.129 C 
ENDBRANCH  22   8
ENDBRANCH  15  16
ENDBRANCH   6  15
ENDBRANCH  11   6
BRANCH  12   3
ATOM      3  O   UNL     1      -0.353   1.268  23.203  0.00  0.00    -0.442 OA
BRANCH   3  17
ATOM      4  O   UNL     1       1.185   1.869  24.785  0.00  0.00    -0.226 OA
ATOM      7  N   UNL     1       1.742   0.459  23.001  0.00  0.00    -0.251 N 
ATOM     17  C   UNL     1       0.906   1.253  23.764  0.00  0.00    +0.405 C 
ATOM     33  H   UNL     1       1.325   0.025  22.181  0.00  0.00    +0.158 HD
BRANCH   7  23
ATOM     23  C   UNL     1       3.109   0.173  23.219  0.00  0.00    +0.037 A 
ATOM     24  C   UNL     1       4.068   1.170  23.035  0.00  0.00    +0.027 A 
ATOM     25  C   UNL     1       3.500  -1.104  23.618  0.00  0.00    +0.027 A 
ATOM     28  C   UNL     1       5.416   0.889  23.251  0.00  0.00    +0.047 A 
ATOM     29  C   UNL     1       4.849  -1.386  23.835  0.00  0.00    +0.047 A 
ATOM     30  C   UNL     1       5.808  -0.389  23.650  0.00  0.00    +0.120 A 
BRANCH  30   5
ATOM      5  O   UNL     1       7.123  -0.663  23.864  0.00  0.00    -0.495 OA
ATOM     31  C   UNL     1       7.985  -0.632  22.728  0.00  0.00    +0.277 C 
ENDBRANCH  30   5
ENDBRANCH   7  23
ENDBRANCH   3  17
ENDBRANCH  12   3
TORSDOF 8
ENDMDL
