MODEL 1
REMARK VINA RESULT:      -2.9      0.000      0.000
REMARK  Name = 45784011
REMARK  3 active torsions:
REMARK  status: ('A' for Active; 'I' for Inactive)
REMARK    1  A    between atoms: C_5  and  C_10
REMARK    2  A    between atoms: C_8  and  C_13
REMARK    3  A    between atoms: C_18  and  C_20
REMARK                            x       y       z     vdW  Elec       q    Type
REMARK                         _______ _______ _______ _____ _____    ______ ____
ROOT
ATOM      3  N   UNL     1      -1.986   0.422  24.244  0.00  0.00    -0.342 N 
ATOM      4  N   UNL     1      -0.165   1.610  24.704  0.00  0.00    -0.232 NA
ATOM     13  C   UNL     1      -0.620   0.459  24.261  0.00  0.00    +0.113 A 
ATOM     14  C   UNL     1      -2.444   1.628  24.709  0.00  0.00    +0.066 A 
ATOM     15  C   UNL     1      -1.288   2.352  24.988  0.00  0.00    +0.089 A 
ATOM     16  C   UNL     1      -3.730   2.134  24.902  0.00  0.00    +0.031 A 
ATOM     17  C   UNL     1      -1.402   3.659  25.491  0.00  0.00    +0.030 A 
ATOM     18  C   UNL     1      -3.825   3.437  25.403  0.00  0.00    -0.048 A 
ATOM     19  C   UNL     1      -2.683   4.187  25.693  0.00  0.00    +0.005 A 
ATOM     20  C   UNL     1      -5.175   4.034  25.631  0.00  0.00    +0.044 C 
ATOM     21  H   UNL     1      -2.561  -0.355  23.944  0.00  0.00    +0.167 HD
ENDROOT
BRANCH  13   8
ATOM      1  O   UNL     1       3.937   0.897  21.529  0.00  0.00    -0.275 OA
ATOM      2  N   UNL     1       2.257  -0.081  22.785  0.00  0.00    -0.301 N 
ATOM      8  C   UNL     1       0.207  -0.731  23.804  0.00  0.00    +0.074 C 
ATOM      9  C   UNL     1       1.723  -0.637  24.027  0.00  0.00    +0.119 C 
ATOM     10  C   UNL     1       3.533   0.418  22.583  0.00  0.00    +0.219 C 
ATOM     11  C   UNL     1       0.116  -0.932  22.283  0.00  0.00    +0.032 C 
ATOM     12  C   UNL     1       1.252  -0.081  21.733  0.00  0.00    +0.108 C 
BRANCH  10   5
ATOM      5  C   UNL     1       4.457   0.381  23.757  0.00  0.00    +0.075 C 
ATOM      6  C   UNL     1       5.151  -0.905  24.099  0.00  0.00    +0.013 C 
ATOM      7  C   UNL     1       5.932   0.239  23.523  0.00  0.00    +0.013 C 
ENDBRANCH  10   5
ENDBRANCH  13   8
TORSDOF 2
ENDMDL
MODEL 2
REMARK VINA RESULT:      -2.4      1.580      2.557
REMARK  Name = 45784011
REMARK  3 active torsions:
REMARK  status: ('A' for Active; 'I' for Inactive)
REMARK    1  A    between atoms: C_5  and  C_10
REMARK    2  A    between atoms: C_8  and  C_13
REMARK    3  A    between atoms: C_18  and  C_20
REMARK                            x       y       z     vdW  Elec       q    Type
REMARK                         _______ _______ _______ _____ _____    ______ ____
ROOT
ATOM      3  N   UNL     1      -2.027   1.283  25.330  0.00  0.00    -0.342 N 
ATOM      4  N   UNL     1      -3.530  -0.350  25.209  0.00  0.00    -0.232 NA
ATOM     13  C   UNL     1      -2.248  -0.064  25.274  0.00  0.00    +0.113 A 
ATOM     14  C   UNL     1      -3.246   1.911  25.298  0.00  0.00    +0.066 A 
ATOM     15  C   UNL     1      -4.168   0.870  25.224  0.00  0.00    +0.089 A 
ATOM     16  C   UNL     1      -3.611   3.257  25.328  0.00  0.00    +0.031 A 
ATOM     17  C   UNL     1      -5.539   1.171  25.174  0.00  0.00    +0.030 A 
ATOM     18  C   UNL     1      -4.981   3.539  25.278  0.00  0.00    -0.048 A 
ATOM     19  C   UNL     1      -5.929   2.516  25.203  0.00  0.00    +0.005 A 
ATOM     20  C   UNL     1      -5.435   4.961  25.308  0.00  0.00    +0.044 C 
ATOM     21  H   UNL     1      -1.126   1.741  25.386  0.00  0.00    +0.167 HD
ENDROOT
BRANCH  13   8
ATOM      1  O   UNL     1       1.354  -0.479  21.366  0.00  0.00    -0.275 OA
ATOM      2  N   UNL     1       0.378  -0.773  23.444  0.00  0.00    -0.301 N 
ATOM      8  C   UNL     1      -1.096  -1.054  25.290  0.00  0.00    +0.074 C 
ATOM      9  C   UNL     1       0.280  -0.512  24.878  0.00  0.00    +0.119 C 
ATOM     10  C   UNL     1       1.319  -0.252  22.571  0.00  0.00    +0.219 C 
ATOM     11  C   UNL     1      -1.312  -2.189  24.277  0.00  0.00    +0.032 C 
ATOM     12  C   UNL     1      -0.684  -1.661  22.995  0.00  0.00    +0.108 C 
BRANCH  10   5
ATOM      5  C   UNL     1       2.338   0.668  23.160  0.00  0.00    +0.075 C 
ATOM      6  C   UNL     1       3.700   0.133  23.491  0.00  0.00    +0.013 C 
ATOM      7  C   UNL     1       3.524   1.071  22.334  0.00  0.00    +0.013 C 
ENDBRANCH  10   5
ENDBRANCH  13   8
TORSDOF 2
ENDMDL
MODEL 3
REMARK VINA RESULT:      -2.1      4.069      6.901
REMARK  Name = 45784011
REMARK  3 active torsions:
REMARK  status: ('A' for Active; 'I' for Inactive)
REMARK    1  A    between atoms: C_5  and  C_10
REMARK    2  A    between atoms: C_8  and  C_13
REMARK    3  A    between atoms: C_18  and  C_20
REMARK                            x       y       z     vdW  Elec       q    Type
REMARK                         _______ _______ _______ _____ _____    ______ ____
ROOT
ATOM      3  N   UNL     1      -2.658   0.738  24.534  0.00  0.00    -0.342 N 
ATOM      4  N   UNL     1      -4.453  -0.499  24.099  0.00  0.00    -0.232 NA
ATOM     13  C   UNL     1      -3.981   0.725  24.189  0.00  0.00    +0.113 A 
ATOM     14  C   UNL     1      -2.248  -0.562  24.677  0.00  0.00    +0.066 A 
ATOM     15  C   UNL     1      -3.386  -1.315  24.399  0.00  0.00    +0.089 A 
ATOM     16  C   UNL     1      -1.019  -1.128  25.014  0.00  0.00    +0.031 A 
ATOM     17  C   UNL     1      -3.311  -2.717  24.457  0.00  0.00    +0.030 A 
ATOM     18  C   UNL     1      -0.962  -2.526  25.067  0.00  0.00    -0.048 A 
ATOM     19  C   UNL     1      -2.087  -3.307  24.794  0.00  0.00    +0.005 A 
ATOM     20  C   UNL     1       0.327  -3.190  25.422  0.00  0.00    +0.044 C 
ATOM     21  H   UNL     1      -2.081   1.560  24.662  0.00  0.00    +0.167 HD
ENDROOT
BRANCH  13   8
ATOM      1  O   UNL     1      -3.159   5.208  26.956  0.00  0.00    -0.275 OA
ATOM      2  N   UNL     1      -3.935   3.818  25.275  0.00  0.00    -0.301 N 
ATOM      8  C   UNL     1      -4.748   2.014  23.953  0.00  0.00    +0.074 C 
ATOM      9  C   UNL     1      -3.920   3.307  23.906  0.00  0.00    +0.119 C 
ATOM     10  C   UNL     1      -3.131   4.820  25.792  0.00  0.00    +0.219 C 
ATOM     11  C   UNL     1      -5.733   2.304  25.097  0.00  0.00    +0.032 C 
ATOM     12  C   UNL     1      -4.912   3.113  26.091  0.00  0.00    +0.108 C 
BRANCH  10   5
ATOM      5  C   UNL     1      -2.151   5.442  24.850  0.00  0.00    +0.075 C 
ATOM      6  C   UNL     1      -0.686   5.360  25.163  0.00  0.00    +0.013 C 
ATOM      7  C   UNL     1      -1.259   4.556  24.033  0.00  0.00    +0.013 C 
ENDBRANCH  10   5
ENDBRANCH  13   8
TORSDOF 2
ENDMDL
MODEL 4
REMARK VINA RESULT:      -1.0      3.481      6.251
REMARK  Name = 45784011
REMARK  3 active torsions:
REMARK  status: ('A' for Active; 'I' for Inactive)
REMARK    1  A    between atoms: C_5  and  C_10
REMARK    2  A    between atoms: C_8  and  C_13
REMARK    3  A    between atoms: C_18  and  C_20
REMARK                            x       y       z     vdW  Elec       q    Type
REMARK                         _______ _______ _______ _____ _____    ______ ____
ROOT
ATOM      3  N   UNL     1      -2.354   0.516  25.010  0.00  0.00    -0.342 N 
ATOM      4  N   UNL     1      -0.575  -0.800  25.213  0.00  0.00    -0.232 NA
ATOM     13  C   UNL     1      -1.036   0.422  25.360  0.00  0.00    +0.113 A 
ATOM     14  C   UNL     1      -2.772  -0.727  24.609  0.00  0.00    +0.066 A 
ATOM     15  C   UNL     1      -1.643  -1.531  24.746  0.00  0.00    +0.089 A 
ATOM     16  C   UNL     1      -4.001  -1.203  24.154  0.00  0.00    +0.031 A 
ATOM     17  C   UNL     1      -1.728  -2.893  24.412  0.00  0.00    +0.030 A 
ATOM     18  C   UNL     1      -4.068  -2.562  23.826  0.00  0.00    -0.048 A 
ATOM     19  C   UNL     1      -2.952  -3.393  23.953  0.00  0.00    +0.005 A 
ATOM     20  C   UNL     1      -5.357  -3.132  23.333  0.00  0.00    +0.044 C 
ATOM     21  H   UNL     1      -2.923   1.352  25.041  0.00  0.00    +0.167 HD
ENDROOT
BRANCH  13   8
ATOM      1  O   UNL     1      -2.095   5.427  23.860  0.00  0.00    -0.275 OA
ATOM      2  N   UNL     1      -1.186   3.685  25.083  0.00  0.00    -0.301 N 
ATOM      8  C   UNL     1      -0.262   1.632  25.854  0.00  0.00    +0.074 C 
ATOM      9  C   UNL     1      -1.094   2.851  26.280  0.00  0.00    +0.119 C 
ATOM     10  C   UNL     1      -2.033   4.764  24.890  0.00  0.00    +0.219 C 
ATOM     11  C   UNL     1       0.631   2.221  24.751  0.00  0.00    +0.032 C 
ATOM     12  C   UNL     1      -0.268   3.229  24.050  0.00  0.00    +0.108 C 
BRANCH  10   5
ATOM      5  C   UNL     1      -2.943   5.108  26.024  0.00  0.00    +0.075 C 
ATOM      6  C   UNL     1      -4.380   4.683  25.960  0.00  0.00    +0.013 C 
ATOM      7  C   UNL     1      -3.442   4.014  26.921  0.00  0.00    +0.013 C 
ENDBRANCH  10   5
ENDBRANCH  13   8
TORSDOF 2
ENDMDL
MODEL 5
REMARK VINA RESULT:      -1.0      2.805      7.395
REMARK  Name = 45784011
REMARK  3 active torsions:
REMARK  status: ('A' for Active; 'I' for Inactive)
REMARK    1  A    between atoms: C_5  and  C_10
REMARK    2  A    between atoms: C_8  and  C_13
REMARK    3  A    between atoms: C_18  and  C_20
REMARK                            x       y       z     vdW  Elec       q    Type
REMARK                         _______ _______ _______ _____ _____    ______ ____
ROOT
ATOM      3  N   UNL     1       0.933   2.484  24.817  0.00  0.00    -0.342 N 
ATOM      4  N   UNL     1      -0.850   1.209  24.453  0.00  0.00    -0.232 NA
ATOM     13  C   UNL     1      -0.379   2.243  25.113  0.00  0.00    +0.113 A 
ATOM     14  C   UNL     1       1.338   1.543  23.906  0.00  0.00    +0.066 A 
ATOM     15  C   UNL     1       0.207   0.759  23.694  0.00  0.00    +0.089 A 
ATOM     16  C   UNL     1       2.558   1.316  23.268  0.00  0.00    +0.031 A 
ATOM     17  C   UNL     1       0.279  -0.319  22.796  0.00  0.00    +0.030 A 
ATOM     18  C   UNL     1       2.612   0.239  22.377  0.00  0.00    -0.048 A 
ATOM     19  C   UNL     1       1.493  -0.565  22.144  0.00  0.00    +0.005 A 
ATOM     20  C   UNL     1       3.890  -0.054  21.662  0.00  0.00    +0.044 C 
ATOM     21  H   UNL     1       1.507   3.225  25.200  0.00  0.00    +0.167 HD
ENDROOT
BRANCH  13   8
ATOM      1  O   UNL     1      -5.255   4.193  24.196  0.00  0.00    -0.275 OA
ATOM      2  N   UNL     1      -3.350   3.605  25.371  0.00  0.00    -0.301 N 
ATOM      8  C   UNL     1      -1.138   3.113  26.100  0.00  0.00    +0.074 C 
ATOM      9  C   UNL     1      -2.619   2.768  26.320  0.00  0.00    +0.119 C 
ATOM     10  C   UNL     1      -4.682   3.481  25.016  0.00  0.00    +0.219 C 
ATOM     11  C   UNL     1      -1.215   4.572  25.625  0.00  0.00    +0.032 C 
ATOM     12  C   UNL     1      -2.485   4.619  24.787  0.00  0.00    +0.108 C 
BRANCH  10   5
ATOM      5  C   UNL     1      -5.449   2.380  25.673  0.00  0.00    +0.075 C 
ATOM      6  C   UNL     1      -6.460   1.615  24.870  0.00  0.00    +0.013 C 
ATOM      7  C   UNL     1      -5.173   0.959  25.277  0.00  0.00    +0.013 C 
ENDBRANCH  10   5
ENDBRANCH  13   8
TORSDOF 2
ENDMDL
MODEL 6
REMARK VINA RESULT:      -0.3      2.296      7.121
REMARK  Name = 45784011
REMARK  3 active torsions:
REMARK  status: ('A' for Active; 'I' for Inactive)
REMARK    1  A    between atoms: C_5  and  C_10
REMARK    2  A    between atoms: C_8  and  C_13
REMARK    3  A    between atoms: C_18  and  C_20
REMARK                            x       y       z     vdW  Elec       q    Type
REMARK                         _______ _______ _______ _____ _____    ______ ____
ROOT
ATOM      3  N   UNL     1       1.614  -1.288  23.968  0.00  0.00    -0.342 N 
ATOM      4  N   UNL     1       1.150   0.678  23.041  0.00  0.00    -0.232 NA
ATOM     13  C   UNL     1       0.643  -0.404  23.591  0.00  0.00    +0.113 A 
ATOM     14  C   UNL     1       2.829  -0.744  23.639  0.00  0.00    +0.066 A 
ATOM     15  C   UNL     1       2.512   0.483  23.063  0.00  0.00    +0.089 A 
ATOM     16  C   UNL     1       4.137  -1.204  23.792  0.00  0.00    +0.031 A 
ATOM     17  C   UNL     1       3.549   1.314  22.605  0.00  0.00    +0.030 A 
ATOM     18  C   UNL     1       5.157  -0.364  23.331  0.00  0.00    -0.048 A 
ATOM     19  C   UNL     1       4.870   0.872  22.748  0.00  0.00    +0.005 A 
ATOM     20  C   UNL     1       6.579  -0.801  23.467  0.00  0.00    +0.044 C 
ATOM     21  H   UNL     1       1.467  -2.186  24.412  0.00  0.00    +0.167 HD
ENDROOT
BRANCH  13   8
ATOM      1  O   UNL     1      -2.647   2.785  26.317  0.00  0.00    -0.275 OA
ATOM      2  N   UNL     1      -1.967   1.071  24.918  0.00  0.00    -0.301 N 
ATOM      8  C   UNL     1      -0.829  -0.704  23.815  0.00  0.00    +0.074 C 
ATOM      9  C   UNL     1      -1.807   0.460  23.600  0.00  0.00    +0.119 C 
ATOM     10  C   UNL     1      -2.551   2.296  25.196  0.00  0.00    +0.219 C 
ATOM     11  C   UNL     1      -1.111  -1.096  25.274  0.00  0.00    +0.032 C 
ATOM     12  C   UNL     1      -1.398   0.232  25.961  0.00  0.00    +0.108 C 
BRANCH  10   5
ATOM      5  C   UNL     1      -3.071   3.068  24.027  0.00  0.00    +0.075 C 
ATOM      6  C   UNL     1      -4.513   2.920  23.639  0.00  0.00    +0.013 C 
ATOM      7  C   UNL     1      -4.032   4.196  24.265  0.00  0.00    +0.013 C 
ENDBRANCH  10   5
ENDBRANCH  13   8
TORSDOF 2
ENDMDL
MODEL 7
REMARK VINA RESULT:       0.7      2.834      6.836
REMARK  Name = 45784011
REMARK  3 active torsions:
REMARK  status: ('A' for Active; 'I' for Inactive)
REMARK    1  A    between atoms: C_5  and  C_10
REMARK    2  A    between atoms: C_8  and  C_13
REMARK    3  A    between atoms: C_18  and  C_20
REMARK                            x       y       z     vdW  Elec       q    Type
REMARK                         _______ _______ _______ _____ _____    ______ ____
ROOT
ATOM      3  N   UNL     1       1.115   1.790  24.459  0.00  0.00    -0.342 N 
ATOM      4  N   UNL     1      -0.035   0.682  22.913  0.00  0.00    -0.232 NA
ATOM     13  C   UNL     1      -0.116   1.477  23.957  0.00  0.00    +0.113 A 
ATOM     14  C   UNL     1       2.056   1.153  23.691  0.00  0.00    +0.066 A 
ATOM     15  C   UNL     1       1.313   0.470  22.732  0.00  0.00    +0.089 A 
ATOM     16  C   UNL     1       3.449   1.118  23.749  0.00  0.00    +0.031 A 
ATOM     17  C   UNL     1       1.983  -0.300  21.767  0.00  0.00    +0.030 A 
ATOM     18  C   UNL     1       4.101   0.347  22.779  0.00  0.00    -0.048 A 
ATOM     19  C   UNL     1       3.382  -0.350  21.806  0.00  0.00    +0.005 A 
ATOM     20  C   UNL     1       5.592   0.270  22.789  0.00  0.00    +0.044 C 
ATOM     21  H   UNL     1       1.304   2.384  25.256  0.00  0.00    +0.167 HD
ENDROOT
BRANCH  13   8
ATOM      1  O   UNL     1      -4.860  -0.933  23.622  0.00  0.00    -0.275 OA
ATOM      2  N   UNL     1      -3.233   0.541  24.355  0.00  0.00    -0.301 N 
ATOM      8  C   UNL     1      -1.387   2.025  24.584  0.00  0.00    +0.074 C 
ATOM      9  C   UNL     1      -2.266   1.019  25.341  0.00  0.00    +0.119 C 
ATOM     10  C   UNL     1      -4.075  -0.550  24.485  0.00  0.00    +0.219 C 
ATOM     11  C   UNL     1      -2.356   2.564  23.521  0.00  0.00    +0.032 C 
ATOM     12  C   UNL     1      -3.202   1.354  23.149  0.00  0.00    +0.108 C 
BRANCH  10   5
ATOM      5  C   UNL     1      -3.986  -1.314  25.766  0.00  0.00    +0.075 C 
ATOM      6  C   UNL     1      -3.289  -2.643  25.776  0.00  0.00    +0.013 C 
ATOM      7  C   UNL     1      -2.654  -1.457  26.441  0.00  0.00    +0.013 C 
ENDBRANCH  10   5
ENDBRANCH  13   8
TORSDOF 2
ENDMDL
MODEL 8
REMARK VINA RESULT:       0.7      3.859      5.603
REMARK  Name = 45784011
REMARK  3 active torsions:
REMARK  status: ('A' for Active; 'I' for Inactive)
REMARK    1  A    between atoms: C_5  and  C_10
REMARK    2  A    between atoms: C_8  and  C_13
REMARK    3  A    between atoms: C_18  and  C_20
REMARK                            x       y       z     vdW  Elec       q    Type
REMARK                         _______ _______ _______ _____ _____    ______ ____
ROOT
ATOM      3  N   UNL     1      -2.582   0.919  24.211  0.00  0.00    -0.342 N 
ATOM      4  N   UNL     1      -0.762  -0.222  24.782  0.00  0.00    -0.232 NA
ATOM     13  C   UNL     1      -1.275   0.975  24.605  0.00  0.00    +0.113 A 
ATOM     14  C   UNL     1      -2.938  -0.402  24.126  0.00  0.00    +0.066 A 
ATOM     15  C   UNL     1      -1.786  -1.094  24.489  0.00  0.00    +0.089 A 
ATOM     16  C   UNL     1      -4.132  -1.033  23.776  0.00  0.00    +0.031 A 
ATOM     17  C   UNL     1      -1.807  -2.499  24.508  0.00  0.00    +0.030 A 
ATOM     18  C   UNL     1      -4.136  -2.432  23.801  0.00  0.00    -0.048 A 
ATOM     19  C   UNL     1      -2.995  -3.153  24.160  0.00  0.00    +0.005 A 
ATOM     20  C   UNL     1      -5.385  -3.165  23.436  0.00  0.00    +0.044 C 
ATOM     21  H   UNL     1      -3.183   1.709  24.015  0.00  0.00    +0.167 HD
ENDROOT
BRANCH  13   8
ATOM      1  O   UNL     1      -0.299   3.152  29.373  0.00  0.00    -0.275 OA
ATOM      2  N   UNL     1      -0.169   2.809  27.087  0.00  0.00    -0.301 N 
ATOM      8  C   UNL     1      -0.564   2.305  24.796  0.00  0.00    +0.074 C 
ATOM      9  C   UNL     1       0.520   2.353  25.882  0.00  0.00    +0.119 C 
ATOM     10  C   UNL     1       0.321   2.778  28.382  0.00  0.00    +0.219 C 
ATOM     11  C   UNL     1      -1.534   3.403  25.259  0.00  0.00    +0.032 C 
ATOM     12  C   UNL     1      -1.503   3.302  26.778  0.00  0.00    +0.108 C 
BRANCH  10   5
ATOM      5  C   UNL     1       1.696   2.222  28.562  0.00  0.00    +0.075 C 
ATOM      6  C   UNL     1       2.787   3.121  29.065  0.00  0.00    +0.013 C 
ATOM      7  C   UNL     1       2.237   2.042  29.950  0.00  0.00    +0.013 C 
ENDBRANCH  10   5
ENDBRANCH  13   8
TORSDOF 2
ENDMDL
MODEL 9
REMARK VINA RESULT:       0.7      2.392      6.812
REMARK  Name = 45784011
REMARK  3 active torsions:
REMARK  status: ('A' for Active; 'I' for Inactive)
REMARK    1  A    between atoms: C_5  and  C_10
REMARK    2  A    between atoms: C_8  and  C_13
REMARK    3  A    between atoms: C_18  and  C_20
REMARK                            x       y       z     vdW  Elec       q    Type
REMARK                         _______ _______ _______ _____ _____    ______ ____
ROOT
ATOM      3  N   UNL     1       1.059   1.112  22.892  0.00  0.00    -0.342 N 
ATOM      4  N   UNL     1       0.574  -0.939  23.598  0.00  0.00    -0.232 NA
ATOM     13  C   UNL     1       0.078   0.211  23.197  0.00  0.00    +0.113 A 
ATOM     14  C   UNL     1       2.269   0.506  23.113  0.00  0.00    +0.066 A 
ATOM     15  C   UNL     1       1.939  -0.773  23.552  0.00  0.00    +0.089 A 
ATOM     16  C   UNL     1       3.583   0.953  22.970  0.00  0.00    +0.031 A 
ATOM     17  C   UNL     1       2.969  -1.674  23.873  0.00  0.00    +0.030 A 
ATOM     18  C   UNL     1       4.596   0.042  23.293  0.00  0.00    -0.048 A 
ATOM     19  C   UNL     1       4.295  -1.248  23.737  0.00  0.00    +0.005 A 
ATOM     20  C   UNL     1       6.023   0.461  23.161  0.00  0.00    +0.044 C 
ATOM     21  H   UNL     1       0.920   2.059  22.563  0.00  0.00    +0.167 HD
ENDROOT
BRANCH  13   8
ATOM      1  O   UNL     1      -2.506   3.449  26.553  0.00  0.00    -0.275 OA
ATOM      2  N   UNL     1      -2.092   2.188  24.656  0.00  0.00    -0.301 N 
ATOM      8  C   UNL     1      -1.392   0.568  23.060  0.00  0.00    +0.074 C 
ATOM      9  C   UNL     1      -1.758   2.048  23.241  0.00  0.00    +0.119 C 
ATOM     10  C   UNL     1      -2.246   3.373  25.356  0.00  0.00    +0.219 C 
ATOM     11  C   UNL     1      -2.242  -0.108  24.148  0.00  0.00    +0.032 C 
ATOM     12  C   UNL     1      -2.228   0.889  25.297  0.00  0.00    +0.108 C 
BRANCH  10   5
ATOM      5  C   UNL     1      -2.052   4.636  24.581  0.00  0.00    +0.075 C 
ATOM      6  C   UNL     1      -1.714   5.899  25.317  0.00  0.00    +0.013 C 
ATOM      7  C   UNL     1      -0.676   5.223  24.470  0.00  0.00    +0.013 C 
ENDBRANCH  10   5
ENDBRANCH  13   8
TORSDOF 2
ENDMDL
MODEL 10
REMARK VINA RESULT:       1.0      2.938      4.459
REMARK  Name = 45784011
REMARK  3 active torsions:
REMARK  status: ('A' for Active; 'I' for Inactive)
REMARK    1  A    between atoms: C_5  and  C_10
REMARK    2  A    between atoms: C_8  and  C_13
REMARK    3  A    between atoms: C_18  and  C_20
REMARK                            x       y       z     vdW  Elec       q    Type
REMARK                         _______ _______ _______ _____ _____    ______ ____
ROOT
ATOM      3  N   UNL     1      -3.033   1.946  23.616  0.00  0.00    -0.342 N 
ATOM      4  N   UNL     1      -1.198   2.876  24.458  0.00  0.00    -0.232 NA
ATOM     13  C   UNL     1      -1.669   1.910  23.701  0.00  0.00    +0.113 A 
ATOM     14  C   UNL     1      -3.472   3.004  24.369  0.00  0.00    +0.066 A 
ATOM     15  C   UNL     1      -2.308   3.569  24.883  0.00  0.00    +0.089 A 
ATOM     16  C   UNL     1      -4.748   3.502  24.637  0.00  0.00    +0.031 A 
ATOM     17  C   UNL     1      -2.403   4.697  25.716  0.00  0.00    +0.030 A 
ATOM     18  C   UNL     1      -4.824   4.626  25.467  0.00  0.00    -0.048 A 
ATOM     19  C   UNL     1      -3.674   5.213  25.997  0.00  0.00    +0.005 A 
ATOM     20  C   UNL     1      -6.162   5.205  25.789  0.00  0.00    +0.044 C 
ATOM     21  H   UNL     1      -3.617   1.307  23.093  0.00  0.00    +0.167 HD
ENDROOT
BRANCH  13   8
ATOM      1  O   UNL     1      -0.655  -2.924  25.710  0.00  0.00    -0.275 OA
ATOM      2  N   UNL     1      -0.812  -1.223  24.147  0.00  0.00    -0.301 N 
ATOM      8  C   UNL     1      -0.861   0.847  22.976  0.00  0.00    +0.074 C 
ATOM      9  C   UNL     1      -1.432  -0.578  22.992  0.00  0.00    +0.119 C 
ATOM     10  C   UNL     1      -1.189  -2.425  24.724  0.00  0.00    +0.219 C 
ATOM     11  C   UNL     1       0.519   0.649  23.620  0.00  0.00    +0.032 C 
ATOM     12  C   UNL     1       0.281  -0.422  24.676  0.00  0.00    +0.108 C 
BRANCH  10   5
ATOM      5  C   UNL     1      -2.346  -3.133  24.097  0.00  0.00    +0.075 C 
ATOM      6  C   UNL     1      -3.568  -3.407  24.922  0.00  0.00    +0.013 C 
ATOM      7  C   UNL     1      -3.613  -2.374  23.835  0.00  0.00    +0.013 C 
ENDBRANCH  10   5
ENDBRANCH  13   8
TORSDOF 2
ENDMDL
