MODEL 1
REMARK VINA RESULT:      -1.5      0.000      0.000
REMARK  Name = 45783280
REMARK  8 active torsions:
REMARK  status: ('A' for Active; 'I' for Inactive)
REMARK    1  A    between atoms: O_2  and  C_27
REMARK    2  A    between atoms: O_2  and  C_28
REMARK    3  A    between atoms: N_3  and  C_13
REMARK    4  A    between atoms: N_7  and  C_26
REMARK    5  A    between atoms: C_9  and  C_14
REMARK    6  A    between atoms: C_13  and  C_15
REMARK    7  A    between atoms: C_16  and  C_19
REMARK    8  A    between atoms: C_26  and  C_27
REMARK                            x       y       z     vdW  Elec       q    Type
REMARK                         _______ _______ _______ _____ _____    ______ ____
ROOT
ATOM      1  O   UNL     1      -1.119   2.376  25.575  0.00  0.00    -0.336 OA
ATOM      4  N   UNL     1      -1.504   1.773  23.453  0.00  0.00    -0.190 NA
ATOM      5  N   UNL     1       0.041   1.723  25.138  0.00  0.00    -0.056 NA
ATOM     14  C   UNL     1      -1.977   2.361  24.522  0.00  0.00    +0.245 A 
ATOM     16  C   UNL     1      -0.264   1.397  23.879  0.00  0.00    +0.202 A 
ENDROOT
BRANCH  16  19
ATOM      7  N   UNL     1       4.254   0.382  22.462  0.00  0.00    -0.327 N 
ATOM      8  N   UNL     1       2.426  -0.669  21.351  0.00  0.00    -0.240 NA
ATOM     19  C   UNL     1       0.648   0.697  23.021  0.00  0.00    +0.027 A 
ATOM     22  C   UNL     1       2.019   0.882  23.160  0.00  0.00    +0.055 A 
ATOM     23  C   UNL     1       0.165  -0.170  22.047  0.00  0.00    +0.031 A 
ATOM     24  C   UNL     1       2.858   0.182  22.309  0.00  0.00    +0.119 A 
ATOM     25  C   UNL     1       1.087  -0.823  21.246  0.00  0.00    +0.113 A 
ATOM     29  H   UNL     1       4.856  -0.139  21.835  0.00  0.00    +0.148 HD
BRANCH   7  26
ATOM     26  C   UNL     1       4.802   1.260  23.443  0.00  0.00    +0.131 C 
BRANCH  26  27
ATOM     27  C   UNL     1       5.692   0.484  24.397  0.00  0.00    +0.178 C 
BRANCH  27   2
ATOM      2  O   UNL     1       5.976  -0.796  23.845  0.00  0.00    -0.381 OA
ATOM     28  C   UNL     1       4.940  -1.727  24.127  0.00  0.00    +0.194 C 
ENDBRANCH  27   2
ENDBRANCH  26  27
ENDBRANCH   7  26
ENDBRANCH  16  19
BRANCH  14   9
ATOM      3  N   UNL     1      -4.251   2.164  25.515  0.00  0.00    -0.287 NA
ATOM      9  C   UNL     1      -3.325   3.016  24.741  0.00  0.00    +0.146 C 
ATOM     10  C   UNL     1      -3.226   4.323  25.550  0.00  0.00    +0.030 C 
ATOM     11  C   UNL     1      -4.176   4.135  26.726  0.00  0.00    +0.017 C 
ATOM     12  C   UNL     1      -5.141   3.073  26.239  0.00  0.00    +0.085 C 
BRANCH   3  13
ATOM     13  C   UNL     1      -4.988   1.219  24.688  0.00  0.00    +0.120 C 
BRANCH  13  15
ATOM      6  N   UNL     1      -3.321  -2.740  24.906  0.00  0.00    -0.263 NA
ATOM     15  C   UNL     1      -4.404  -0.168  24.764  0.00  0.00    -0.030 A 
ATOM     17  C   UNL     1      -4.575  -1.056  23.708  0.00  0.00    +0.024 A 
ATOM     18  C   UNL     1      -3.693  -0.564  25.891  0.00  0.00    +0.024 A 
ATOM     20  C   UNL     1      -4.018  -2.319  23.828  0.00  0.00    +0.111 A 
ATOM     21  C   UNL     1      -3.176  -1.849  25.912  0.00  0.00    +0.111 A 
ENDBRANCH  13  15
ENDBRANCH   3  13
ENDBRANCH  14   9
TORSDOF 7
ENDMDL
MODEL 2
REMARK VINA RESULT:      -0.2      2.092      4.433
REMARK  Name = 45783280
REMARK  8 active torsions:
REMARK  status: ('A' for Active; 'I' for Inactive)
REMARK    1  A    between atoms: O_2  and  C_27
REMARK    2  A    between atoms: O_2  and  C_28
REMARK    3  A    between atoms: N_3  and  C_13
REMARK    4  A    between atoms: N_7  and  C_26
REMARK    5  A    between atoms: C_9  and  C_14
REMARK    6  A    between atoms: C_13  and  C_15
REMARK    7  A    between atoms: C_16  and  C_19
REMARK    8  A    between atoms: C_26  and  C_27
REMARK                            x       y       z     vdW  Elec       q    Type
REMARK                         _______ _______ _______ _____ _____    ______ ____
ROOT
ATOM      1  O   UNL     1      -5.692   1.126  24.758  0.00  0.00    -0.336 OA
ATOM      4  N   UNL     1      -3.583   1.134  25.512  0.00  0.00    -0.190 NA
ATOM      5  N   UNL     1      -5.104  -0.052  24.282  0.00  0.00    -0.056 NA
ATOM     14  C   UNL     1      -4.729   1.765  25.472  0.00  0.00    +0.245 A 
ATOM     16  C   UNL     1      -3.861   0.025  24.767  0.00  0.00    +0.202 A 
ENDROOT
BRANCH  16  19
ATOM      7  N   UNL     1       0.642  -1.268  23.546  0.00  0.00    -0.327 N 
ATOM      8  N   UNL     1      -0.952  -2.964  24.060  0.00  0.00    -0.240 NA
ATOM     19  C   UNL     1      -2.875  -0.989  24.527  0.00  0.00    +0.027 A 
ATOM     22  C   UNL     1      -1.585  -0.632  24.150  0.00  0.00    +0.055 A 
ATOM     23  C   UNL     1      -3.205  -2.332  24.670  0.00  0.00    +0.031 A 
ATOM     24  C   UNL     1      -0.669  -1.648  23.931  0.00  0.00    +0.119 A 
ATOM     25  C   UNL     1      -2.216  -3.271  24.428  0.00  0.00    +0.113 A 
ATOM     29  H   UNL     1       1.303  -2.021  23.392  0.00  0.00    +0.148 HD
BRANCH   7  26
ATOM     26  C   UNL     1       1.032   0.094  23.383  0.00  0.00    +0.131 C 
BRANCH  26  27
ATOM     27  C   UNL     1       2.253   0.181  22.484  0.00  0.00    +0.178 C 
BRANCH  27   2
ATOM      2  O   UNL     1       3.190   1.092  23.044  0.00  0.00    -0.381 OA
ATOM     28  C   UNL     1       4.495   0.531  23.095  0.00  0.00    +0.194 C 
ENDBRANCH  27   2
ENDBRANCH  26  27
ENDBRANCH   7  26
ENDBRANCH  16  19
BRANCH  14   9
ATOM      3  N   UNL     1      -4.208   4.185  25.728  0.00  0.00    -0.287 NA
ATOM      9  C   UNL     1      -5.120   3.086  26.102  0.00  0.00    +0.146 C 
ATOM     10  C   UNL     1      -6.515   3.565  25.660  0.00  0.00    +0.030 C 
ATOM     11  C   UNL     1      -6.295   4.967  25.105  0.00  0.00    +0.017 C 
ATOM     12  C   UNL     1      -5.005   5.413  25.762  0.00  0.00    +0.085 C 
BRANCH   3  13
ATOM     13  C   UNL     1      -3.032   4.272  26.583  0.00  0.00    +0.120 C 
BRANCH  13  15
ATOM      6  N   UNL     1       0.495   2.800  24.609  0.00  0.00    -0.263 NA
ATOM     15  C   UNL     1      -1.797   3.756  25.892  0.00  0.00    -0.030 A 
ATOM     17  C   UNL     1      -0.999   2.800  26.510  0.00  0.00    +0.024 A 
ATOM     18  C   UNL     1      -1.451   4.235  24.633  0.00  0.00    +0.024 A 
ATOM     20  C   UNL     1       0.126   2.359  25.833  0.00  0.00    +0.111 A 
ATOM     21  C   UNL     1      -0.306   3.728  24.040  0.00  0.00    +0.111 A 
ENDBRANCH  13  15
ENDBRANCH   3  13
ENDBRANCH  14   9
TORSDOF 7
ENDMDL
MODEL 3
REMARK VINA RESULT:       1.0      1.426      1.891
REMARK  Name = 45783280
REMARK  8 active torsions:
REMARK  status: ('A' for Active; 'I' for Inactive)
REMARK    1  A    between atoms: O_2  and  C_27
REMARK    2  A    between atoms: O_2  and  C_28
REMARK    3  A    between atoms: N_3  and  C_13
REMARK    4  A    between atoms: N_7  and  C_26
REMARK    5  A    between atoms: C_9  and  C_14
REMARK    6  A    between atoms: C_13  and  C_15
REMARK    7  A    between atoms: C_16  and  C_19
REMARK    8  A    between atoms: C_26  and  C_27
REMARK                            x       y       z     vdW  Elec       q    Type
REMARK                         _______ _______ _______ _____ _____    ______ ____
ROOT
ATOM      1  O   UNL     1      -1.771   3.247  25.182  0.00  0.00    -0.336 OA
ATOM      4  N   UNL     1      -2.327   1.278  24.271  0.00  0.00    -0.190 NA
ATOM      5  N   UNL     1      -0.619   2.452  25.240  0.00  0.00    -0.056 NA
ATOM     14  C   UNL     1      -2.728   2.480  24.599  0.00  0.00    +0.245 A 
ATOM     16  C   UNL     1      -1.027   1.307  24.684  0.00  0.00    +0.202 A 
ENDROOT
BRANCH  16  19
ATOM      7  N   UNL     1       2.949  -0.733  22.819  0.00  0.00    -0.327 N 
ATOM      8  N   UNL     1       1.529  -2.032  24.224  0.00  0.00    -0.240 NA
ATOM     19  C   UNL     1      -0.161   0.174  24.528  0.00  0.00    +0.027 A 
ATOM     22  C   UNL     1       0.982   0.273  23.743  0.00  0.00    +0.055 A 
ATOM     23  C   UNL     1      -0.461  -1.027  25.161  0.00  0.00    +0.031 A 
ATOM     24  C   UNL     1       1.787  -0.848  23.624  0.00  0.00    +0.119 A 
ATOM     25  C   UNL     1       0.408  -2.090  24.979  0.00  0.00    +0.113 A 
ATOM     29  H   UNL     1       3.530  -1.560  22.744  0.00  0.00    +0.148 HD
BRANCH   7  26
ATOM     26  C   UNL     1       3.301   0.474  22.146  0.00  0.00    +0.131 C 
BRANCH  26  27
ATOM     27  C   UNL     1       4.485   1.127  22.838  0.00  0.00    +0.178 C 
BRANCH  27   2
ATOM      2  O   UNL     1       5.513   0.163  23.030  0.00  0.00    -0.381 OA
ATOM     28  C   UNL     1       5.629  -0.209  24.397  0.00  0.00    +0.194 C 
ENDBRANCH  27   2
ENDBRANCH  26  27
ENDBRANCH   7  26
ENDBRANCH  16  19
BRANCH  14   9
ATOM      3  N   UNL     1      -5.132   2.479  25.243  0.00  0.00    -0.287 NA
ATOM      9  C   UNL     1      -4.089   3.121  24.418  0.00  0.00    +0.146 C 
ATOM     10  C   UNL     1      -4.109   4.601  24.842  0.00  0.00    +0.030 C 
ATOM     11  C   UNL     1      -5.235   4.706  25.862  0.00  0.00    +0.017 C 
ATOM     12  C   UNL     1      -6.119   3.518  25.542  0.00  0.00    +0.085 C 
BRANCH   3  13
ATOM     13  C   UNL     1      -5.736   1.318  24.603  0.00  0.00    +0.120 C 
BRANCH  13  15
ATOM      6  N   UNL     1      -3.429  -2.253  25.257  0.00  0.00    -0.263 NA
ATOM     15  C   UNL     1      -4.928   0.068  24.832  0.00  0.00    -0.030 A 
ATOM     17  C   UNL     1      -4.353  -0.174  26.075  0.00  0.00    +0.024 A 
ATOM     18  C   UNL     1      -4.754  -0.849  23.801  0.00  0.00    +0.024 A 
ATOM     20  C   UNL     1      -3.620  -1.338  26.234  0.00  0.00    +0.111 A 
ATOM     21  C   UNL     1      -4.003  -1.983  24.063  0.00  0.00    +0.111 A 
ENDBRANCH  13  15
ENDBRANCH   3  13
ENDBRANCH  14   9
TORSDOF 7
ENDMDL
MODEL 4
REMARK VINA RESULT:       1.1      1.489      3.614
REMARK  Name = 45783280
REMARK  8 active torsions:
REMARK  status: ('A' for Active; 'I' for Inactive)
REMARK    1  A    between atoms: O_2  and  C_27
REMARK    2  A    between atoms: O_2  and  C_28
REMARK    3  A    between atoms: N_3  and  C_13
REMARK    4  A    between atoms: N_7  and  C_26
REMARK    5  A    between atoms: C_9  and  C_14
REMARK    6  A    between atoms: C_13  and  C_15
REMARK    7  A    between atoms: C_16  and  C_19
REMARK    8  A    between atoms: C_26  and  C_27
REMARK                            x       y       z     vdW  Elec       q    Type
REMARK                         _______ _______ _______ _____ _____    ______ ____
ROOT
ATOM      1  O   UNL     1      -1.553  -0.211  26.063  0.00  0.00    -0.336 OA
ATOM      4  N   UNL     1      -1.819   0.515  23.961  0.00  0.00    -0.190 NA
ATOM      5  N   UNL     1      -0.357  -0.504  25.395  0.00  0.00    -0.056 NA
ATOM     14  C   UNL     1      -2.358   0.387  25.146  0.00  0.00    +0.245 A 
ATOM     16  C   UNL     1      -0.592  -0.046  24.162  0.00  0.00    +0.202 A 
ENDROOT
BRANCH  16  19
ATOM      7  N   UNL     1       3.908   0.634  22.508  0.00  0.00    -0.327 N 
ATOM      8  N   UNL     1       2.270  -0.309  21.057  0.00  0.00    -0.240 NA
ATOM     19  C   UNL     1       0.378  -0.135  23.108  0.00  0.00    +0.027 A 
ATOM     22  C   UNL     1       1.683   0.297  23.323  0.00  0.00    +0.055 A 
ATOM     23  C   UNL     1       0.019  -0.653  21.869  0.00  0.00    +0.031 A 
ATOM     24  C   UNL     1       2.582   0.189  22.275  0.00  0.00    +0.119 A 
ATOM     25  C   UNL     1       0.992  -0.718  20.887  0.00  0.00    +0.113 A 
ATOM     29  H   UNL     1       4.557   0.547  21.734  0.00  0.00    +0.148 HD
BRANCH   7  26
ATOM     26  C   UNL     1       4.329   1.175  23.759  0.00  0.00    +0.131 C 
BRANCH  26  27
ATOM     27  C   UNL     1       5.601   0.487  24.221  0.00  0.00    +0.178 C 
BRANCH  27   2
ATOM      2  O   UNL     1       5.753  -0.745  23.526  0.00  0.00    -0.381 OA
ATOM     28  C   UNL     1       4.860  -1.735  24.018  0.00  0.00    +0.194 C 
ENDBRANCH  27   2
ENDBRANCH  26  27
ENDBRANCH   7  26
ENDBRANCH  16  19
BRANCH  14   9
ATOM      3  N   UNL     1      -4.066   2.194  25.246  0.00  0.00    -0.287 NA
ATOM      9  C   UNL     1      -3.731   0.808  25.628  0.00  0.00    +0.146 C 
ATOM     10  C   UNL     1      -4.861  -0.048  25.025  0.00  0.00    +0.030 C 
ATOM     11  C   UNL     1      -5.812   0.949  24.378  0.00  0.00    +0.017 C 
ATOM     12  C   UNL     1      -5.522   2.245  25.107  0.00  0.00    +0.085 C 
BRANCH   3  13
ATOM     13  C   UNL     1      -3.570   3.186  26.191  0.00  0.00    +0.120 C 
BRANCH  13  15
ATOM      6  N   UNL     1      -0.090   5.225  24.699  0.00  0.00    -0.263 NA
ATOM     15  C   UNL     1      -2.352   3.900  25.669  0.00  0.00    -0.030 A 
ATOM     17  C   UNL     1      -1.126   3.245  25.620  0.00  0.00    +0.024 A 
ATOM     18  C   UNL     1      -2.448   5.217  25.233  0.00  0.00    +0.024 A 
ATOM     20  C   UNL     1      -0.036   3.946  25.131  0.00  0.00    +0.111 A 
ATOM     21  C   UNL     1      -1.298   5.828  24.761  0.00  0.00    +0.111 A 
ENDBRANCH  13  15
ENDBRANCH   3  13
ENDBRANCH  14   9
TORSDOF 7
ENDMDL
MODEL 5
REMARK VINA RESULT:       1.3      2.267      7.231
REMARK  Name = 45783280
REMARK  8 active torsions:
REMARK  status: ('A' for Active; 'I' for Inactive)
REMARK    1  A    between atoms: O_2  and  C_27
REMARK    2  A    between atoms: O_2  and  C_28
REMARK    3  A    between atoms: N_3  and  C_13
REMARK    4  A    between atoms: N_7  and  C_26
REMARK    5  A    between atoms: C_9  and  C_14
REMARK    6  A    between atoms: C_13  and  C_15
REMARK    7  A    between atoms: C_16  and  C_19
REMARK    8  A    between atoms: C_26  and  C_27
REMARK                            x       y       z     vdW  Elec       q    Type
REMARK                         _______ _______ _______ _____ _____    ______ ____
ROOT
ATOM      1  O   UNL     1      -3.549  -1.545  23.846  0.00  0.00    -0.336 OA
ATOM      4  N   UNL     1      -2.478   0.253  24.643  0.00  0.00    -0.190 NA
ATOM      5  N   UNL     1      -4.536  -0.582  24.095  0.00  0.00    -0.056 NA
ATOM     14  C   UNL     1      -2.368  -0.972  24.196  0.00  0.00    +0.245 A 
ATOM     16  C   UNL     1      -3.826   0.449  24.563  0.00  0.00    +0.202 A 
ENDROOT
BRANCH  16  19
ATOM      7  N   UNL     1      -3.503   5.183  25.526  0.00  0.00    -0.327 N 
ATOM      8  N   UNL     1      -5.616   4.100  25.729  0.00  0.00    -0.240 NA
ATOM     19  C   UNL     1      -4.433   1.687  24.959  0.00  0.00    +0.027 A 
ATOM     22  C   UNL     1      -3.665   2.843  25.051  0.00  0.00    +0.055 A 
ATOM     23  C   UNL     1      -5.791   1.736  25.253  0.00  0.00    +0.031 A 
ATOM     24  C   UNL     1      -4.298   4.013  25.436  0.00  0.00    +0.119 A 
ATOM     25  C   UNL     1      -6.329   2.956  25.629  0.00  0.00    +0.113 A 
ATOM     29  H   UNL     1      -3.979   6.033  25.806  0.00  0.00    +0.148 HD
BRANCH   7  26
ATOM     26  C   UNL     1      -2.106   5.188  25.238  0.00  0.00    +0.131 C 
BRANCH  26  27
ATOM     27  C   UNL     1      -1.425   4.033  25.952  0.00  0.00    +0.178 C 
BRANCH  27   2
ATOM      2  O   UNL     1      -0.412   3.489  25.114  0.00  0.00    -0.381 OA
ATOM     28  C   UNL     1       0.146   2.307  25.672  0.00  0.00    +0.194 C 
ENDBRANCH  27   2
ENDBRANCH  26  27
ENDBRANCH   7  26
ENDBRANCH  16  19
BRANCH  14   9
ATOM      3  N   UNL     1       0.118  -1.064  24.256  0.00  0.00    -0.287 NA
ATOM      9  C   UNL     1      -1.127  -1.821  24.018  0.00  0.00    +0.146 C 
ATOM     10  C   UNL     1      -1.065  -2.998  25.010  0.00  0.00    +0.030 C 
ATOM     11  C   UNL     1       0.276  -2.852  25.716  0.00  0.00    +0.017 C 
ATOM     12  C   UNL     1       1.102  -2.029  24.748  0.00  0.00    +0.085 C 
BRANCH   3  13
ATOM     13  C   UNL     1       0.591  -0.352  23.076  0.00  0.00    +0.120 C 
BRANCH  13  15
ATOM      6  N   UNL     1       4.851   0.239  23.160  0.00  0.00    -0.263 NA
ATOM     15  C   UNL     1       2.083  -0.145  23.105  0.00  0.00    -0.030 A 
ATOM     17  C   UNL     1       2.927  -1.198  23.439  0.00  0.00    +0.024 A 
ATOM     18  C   UNL     1       2.620   1.100  22.799  0.00  0.00    +0.024 A 
ATOM     20  C   UNL     1       4.291  -0.956  23.452  0.00  0.00    +0.111 A 
ATOM     21  C   UNL     1       3.998   1.238  22.839  0.00  0.00    +0.111 A 
ENDBRANCH  13  15
ENDBRANCH   3  13
ENDBRANCH  14   9
TORSDOF 7
ENDMDL
MODEL 6
REMARK VINA RESULT:       1.4      2.287      6.773
REMARK  Name = 45783280
REMARK  8 active torsions:
REMARK  status: ('A' for Active; 'I' for Inactive)
REMARK    1  A    between atoms: O_2  and  C_27
REMARK    2  A    between atoms: O_2  and  C_28
REMARK    3  A    between atoms: N_3  and  C_13
REMARK    4  A    between atoms: N_7  and  C_26
REMARK    5  A    between atoms: C_9  and  C_14
REMARK    6  A    between atoms: C_13  and  C_15
REMARK    7  A    between atoms: C_16  and  C_19
REMARK    8  A    between atoms: C_26  and  C_27
REMARK                            x       y       z     vdW  Elec       q    Type
REMARK                         _______ _______ _______ _____ _____    ______ ____
ROOT
ATOM      1  O   UNL     1       0.544   3.219  23.898  0.00  0.00    -0.336 OA
ATOM      4  N   UNL     1      -0.977   1.935  24.926  0.00  0.00    -0.190 NA
ATOM      5  N   UNL     1      -0.509   4.071  24.253  0.00  0.00    -0.056 NA
ATOM     14  C   UNL     1       0.188   1.981  24.330  0.00  0.00    +0.245 A 
ATOM     16  C   UNL     1      -1.367   3.241  24.854  0.00  0.00    +0.202 A 
ENDROOT
BRANCH  16  19
ATOM      7  N   UNL     1      -6.147   2.698  25.398  0.00  0.00    -0.327 N 
ATOM      8  N   UNL     1      -5.063   4.546  26.443  0.00  0.00    -0.240 NA
ATOM     19  C   UNL     1      -2.620   3.684  25.392  0.00  0.00    +0.027 A 
ATOM     22  C   UNL     1      -3.784   2.969  25.130  0.00  0.00    +0.055 A 
ATOM     23  C   UNL     1      -2.677   4.829  26.178  0.00  0.00    +0.031 A 
ATOM     24  C   UNL     1      -4.969   3.437  25.675  0.00  0.00    +0.119 A 
ATOM     25  C   UNL     1      -3.911   5.214  26.675  0.00  0.00    +0.113 A 
ATOM     29  H   UNL     1      -7.006   3.050  25.805  0.00  0.00    +0.148 HD
BRANCH   7  26
ATOM     26  C   UNL     1      -6.145   1.519  24.596  0.00  0.00    +0.131 C 
BRANCH  26  27
ATOM     27  C   UNL     1      -4.962   0.642  24.965  0.00  0.00    +0.178 C 
BRANCH  27   2
ATOM      2  O   UNL     1      -4.518  -0.065  23.813  0.00  0.00    -0.381 OA
ATOM     28  C   UNL     1      -3.402   0.574  23.207  0.00  0.00    +0.194 C 
ENDBRANCH  27   2
ENDBRANCH  26  27
ENDBRANCH   7  26
ENDBRANCH  16  19
BRANCH  14   9
ATOM      3  N   UNL     1       0.512  -0.436  23.832  0.00  0.00    -0.287 NA
ATOM      9  C   UNL     1       1.175   0.863  24.064  0.00  0.00    +0.146 C 
ATOM     10  C   UNL     1       2.018   1.104  22.798  0.00  0.00    +0.030 C 
ATOM     11  C   UNL     1       1.813  -0.139  21.942  0.00  0.00    +0.017 C 
ATOM     12  C   UNL     1       1.391  -1.196  22.942  0.00  0.00    +0.085 C 
BRANCH   3  13
ATOM     13  C   UNL     1       0.220  -1.159  25.063  0.00  0.00    +0.120 C 
BRANCH  13  15
ATOM      6  N   UNL     1      -3.787  -2.721  25.094  0.00  0.00    -0.263 NA
ATOM     15  C   UNL     1      -1.183  -1.706  25.074  0.00  0.00    -0.030 A 
ATOM     17  C   UNL     1      -1.595  -2.590  24.083  0.00  0.00    +0.024 A 
ATOM     18  C   UNL     1      -2.071  -1.328  26.074  0.00  0.00    +0.024 A 
ATOM     20  C   UNL     1      -2.896  -3.065  24.138  0.00  0.00    +0.111 A 
ATOM     21  C   UNL     1      -3.350  -1.859  26.040  0.00  0.00    +0.111 A 
ENDBRANCH  13  15
ENDBRANCH   3  13
ENDBRANCH  14   9
TORSDOF 7
ENDMDL
MODEL 7
REMARK VINA RESULT:       2.5      1.704      3.897
REMARK  Name = 45783280
REMARK  8 active torsions:
REMARK  status: ('A' for Active; 'I' for Inactive)
REMARK    1  A    between atoms: O_2  and  C_27
REMARK    2  A    between atoms: O_2  and  C_28
REMARK    3  A    between atoms: N_3  and  C_13
REMARK    4  A    between atoms: N_7  and  C_26
REMARK    5  A    between atoms: C_9  and  C_14
REMARK    6  A    between atoms: C_13  and  C_15
REMARK    7  A    between atoms: C_16  and  C_19
REMARK    8  A    between atoms: C_26  and  C_27
REMARK                            x       y       z     vdW  Elec       q    Type
REMARK                         _______ _______ _______ _____ _____    ______ ____
ROOT
ATOM      1  O   UNL     1      -1.642  -0.719  26.465  0.00  0.00    -0.336 OA
ATOM      4  N   UNL     1      -1.829   0.049  24.369  0.00  0.00    -0.190 NA
ATOM      5  N   UNL     1      -0.597   0.198  26.291  0.00  0.00    -0.056 NA
ATOM     14  C   UNL     1      -2.317  -0.747  25.286  0.00  0.00    +0.245 A 
ATOM     16  C   UNL     1      -0.775   0.607  25.031  0.00  0.00    +0.202 A 
ENDROOT
BRANCH  16  19
ATOM      7  N   UNL     1       3.373   1.742  22.805  0.00  0.00    -0.327 N 
ATOM      8  N   UNL     1       1.755   3.451  23.184  0.00  0.00    -0.240 NA
ATOM     19  C   UNL     1       0.083   1.572  24.406  0.00  0.00    +0.027 A 
ATOM     22  C   UNL     1       1.322   1.184  23.906  0.00  0.00    +0.055 A 
ATOM     23  C   UNL     1      -0.319   2.898  24.296  0.00  0.00    +0.031 A 
ATOM     24  C   UNL     1       2.113   2.152  23.309  0.00  0.00    +0.119 A 
ATOM     25  C   UNL     1       0.545   3.790  23.682  0.00  0.00    +0.113 A 
ATOM     29  H   UNL     1       3.940   2.459  22.369  0.00  0.00    +0.148 HD
BRANCH   7  26
ATOM     26  C   UNL     1       3.835   0.396  22.893  0.00  0.00    +0.131 C 
BRANCH  26  27
ATOM     27  C   UNL     1       5.229   0.364  23.496  0.00  0.00    +0.178 C 
BRANCH  27   2
ATOM      2  O   UNL     1       5.412  -0.858  24.202  0.00  0.00    -0.381 OA
ATOM     28  C   UNL     1       4.372  -1.784  23.919  0.00  0.00    +0.194 C 
ENDBRANCH  27   2
ENDBRANCH  26  27
ENDBRANCH   7  26
ENDBRANCH  16  19
BRANCH  14   9
ATOM      3  N   UNL     1      -4.528  -1.220  24.246  0.00  0.00    -0.287 NA
ATOM      9  C   UNL     1      -3.511  -1.676  25.215  0.00  0.00    +0.146 C 
ATOM     10  C   UNL     1      -3.134  -3.094  24.748  0.00  0.00    +0.030 C 
ATOM     11  C   UNL     1      -4.032  -3.370  23.550  0.00  0.00    +0.017 C 
ATOM     12  C   UNL     1      -5.198  -2.423  23.752  0.00  0.00    +0.085 C 
BRANCH   3  13
ATOM     13  C   UNL     1      -5.469  -0.261  24.810  0.00  0.00    +0.120 C 
BRANCH  13  15
ATOM      6  N   UNL     1      -4.032   3.780  24.481  0.00  0.00    -0.263 NA
ATOM     15  C   UNL     1      -4.965   1.154  24.695  0.00  0.00    -0.030 A 
ATOM     17  C   UNL     1      -4.183   1.530  23.609  0.00  0.00    +0.024 A 
ATOM     18  C   UNL     1      -5.282   2.089  25.674  0.00  0.00    +0.024 A 
ATOM     20  C   UNL     1      -3.745   2.843  23.549  0.00  0.00    +0.111 A 
ATOM     21  C   UNL     1      -4.795   3.376  25.522  0.00  0.00    +0.111 A 
ENDBRANCH  13  15
ENDBRANCH   3  13
ENDBRANCH  14   9
TORSDOF 7
ENDMDL
