MODEL 1
REMARK VINA RESULT:       4.0      0.000      0.000
REMARK  Name = 11941651
REMARK  5 active torsions:
REMARK  status: ('A' for Active; 'I' for Inactive)
REMARK    1  A    between atoms: N_8  and  C_15
REMARK    2  A    between atoms: N_9  and  C_16
REMARK    3  A    between atoms: N_10  and  C_21
REMARK    4  A    between atoms: C_22  and  C_26
REMARK    5  A    between atoms: C_28  and  C_32
REMARK                            x       y       z     vdW  Elec       q    Type
REMARK                         _______ _______ _______ _____ _____    ______ ____
ROOT
ATOM      4  O   UNL     1      -4.715  -0.900  23.598  0.00  0.00    -0.370 OA
ATOM      5  O   UNL     1      -3.274  -0.945  26.366  0.00  0.00    -0.370 OA
ATOM     13  C   UNL     1      -3.313   0.010  25.291  0.00  0.00    +0.171 C 
ATOM     14  C   UNL     1      -3.339  -0.774  23.994  0.00  0.00    +0.171 C 
ATOM     15  C   UNL     1      -4.627   0.755  25.300  0.00  0.00    +0.130 C 
ATOM     16  C   UNL     1      -2.772  -2.125  24.369  0.00  0.00    +0.131 C 
ATOM     17  C   UNL     1      -5.540  -0.173  24.520  0.00  0.00    +0.185 C 
ATOM     18  C   UNL     1      -3.208  -2.269  25.816  0.00  0.00    +0.185 C 
ENDROOT
BRANCH  15   8
ATOM      8  N   UNL     1      -4.485   2.016  24.607  0.00  0.00    -0.306 N 
ATOM     11  N   UNL     1      -2.468   2.515  25.698  0.00  0.00    -0.211 NA
ATOM     12  N   UNL     1      -3.411   4.036  24.084  0.00  0.00    -0.223 NA
ATOM     19  C   UNL     1      -3.423   2.881  24.803  0.00  0.00    +0.216 A 
ATOM     22  C   UNL     1      -1.447   3.381  25.863  0.00  0.00    +0.111 A 
ATOM     23  C   UNL     1      -2.361   4.856  24.299  0.00  0.00    +0.116 A 
ATOM     24  C   UNL     1      -1.340   4.578  25.184  0.00  0.00    +0.051 A 
ATOM     35  H   UNL     1      -5.164   2.275  23.900  0.00  0.00    +0.149 HD
BRANCH  22  26
ATOM      7  O   UNL     1       0.808   2.852  26.325  0.00  0.00    -0.461 OA
ATOM     26  C   UNL     1      -0.453   2.967  26.816  0.00  0.00    +0.153 A 
ATOM     31  C   UNL     1      -0.487   2.648  28.152  0.00  0.00    +0.051 A 
ATOM     33  C   UNL     1       0.842   2.315  28.507  0.00  0.00    +0.042 A 
ATOM     34  C   UNL     1       1.591   2.455  27.362  0.00  0.00    +0.196 A 
ENDBRANCH  22  26
ENDBRANCH  15   8
BRANCH  16   9
ATOM      6  O   UNL     1      -1.094   0.072  23.619  0.00  0.00    -0.252 OA
ATOM      9  N   UNL     1      -1.335  -2.139  24.250  0.00  0.00    -0.292 N 
ATOM     10  N   UNL     1       0.776  -1.329  23.846  0.00  0.00    -0.269 N 
ATOM     20  C   UNL     1      -0.585  -1.016  23.876  0.00  0.00    +0.304 C 
ATOM     36  H   UNL     1      -0.837  -2.984  24.512  0.00  0.00    +0.151 HD
ATOM     37  H   UNL     1       1.030  -2.284  24.086  0.00  0.00    +0.156 HD
BRANCH  10  21
ATOM     21  C   UNL     1       1.855  -0.475  23.519  0.00  0.00    +0.035 A 
ATOM     25  C   UNL     1       3.153  -0.917  23.715  0.00  0.00    +0.035 A 
ATOM     27  C   UNL     1       1.592   0.784  23.005  0.00  0.00    +0.023 A 
ATOM     28  C   UNL     1       4.218  -0.075  23.390  0.00  0.00    +0.057 A 
ATOM     29  C   UNL     1       2.656   1.626  22.680  0.00  0.00    +0.002 A 
ATOM     30  C   UNL     1       3.970   1.197  22.873  0.00  0.00    +0.012 A 
BRANCH  28  32
ATOM      1  F   UNL     1       5.723  -1.853  23.938  0.00  0.00    -0.166 F 
ATOM      2  F   UNL     1       6.410  -0.393  22.490  0.00  0.00    -0.166 F 
ATOM      3  F   UNL     1       6.258   0.151  24.590  0.00  0.00    -0.166 F 
ATOM     32  C   UNL     1       5.622  -0.534  23.595  0.00  0.00    +0.417 C 
ENDBRANCH  28  32
ENDBRANCH  10  21
ENDBRANCH  16   9
TORSDOF 5
ENDMDL
MODEL 2
REMARK VINA RESULT:       5.9      1.748      4.095
REMARK  Name = 11941651
REMARK  5 active torsions:
REMARK  status: ('A' for Active; 'I' for Inactive)
REMARK    1  A    between atoms: N_8  and  C_15
REMARK    2  A    between atoms: N_9  and  C_16
REMARK    3  A    between atoms: N_10  and  C_21
REMARK    4  A    between atoms: C_22  and  C_26
REMARK    5  A    between atoms: C_28  and  C_32
REMARK                            x       y       z     vdW  Elec       q    Type
REMARK                         _______ _______ _______ _____ _____    ______ ____
ROOT
ATOM      4  O   UNL     1      -3.328   3.995  27.090  0.00  0.00    -0.370 OA
ATOM      5  O   UNL     1      -1.937   4.551  24.351  0.00  0.00    -0.370 OA
ATOM     13  C   UNL     1      -3.044   3.720  24.743  0.00  0.00    +0.171 C 
ATOM     14  C   UNL     1      -2.713   3.145  26.107  0.00  0.00    +0.171 C 
ATOM     15  C   UNL     1      -4.273   4.563  24.985  0.00  0.00    +0.130 C 
ATOM     16  C   UNL     1      -1.207   3.244  26.193  0.00  0.00    +0.131 C 
ATOM     17  C   UNL     1      -4.089   5.012  26.423  0.00  0.00    +0.185 C 
ATOM     18  C   UNL     1      -0.914   4.476  25.356  0.00  0.00    +0.185 C 
ENDROOT
BRANCH  15   8
ATOM      8  N   UNL     1      -5.462   3.750  24.862  0.00  0.00    -0.306 N 
ATOM     11  N   UNL     1      -4.228   1.755  24.824  0.00  0.00    -0.211 NA
ATOM     12  N   UNL     1      -6.633   1.726  24.672  0.00  0.00    -0.223 NA
ATOM     19  C   UNL     1      -5.440   2.368  24.783  0.00  0.00    +0.216 A 
ATOM     22  C   UNL     1      -4.244   0.408  24.745  0.00  0.00    +0.111 A 
ATOM     23  C   UNL     1      -6.574   0.379  24.598  0.00  0.00    +0.116 A 
ATOM     24  C   UNL     1      -5.398  -0.340  24.630  0.00  0.00    +0.051 A 
ATOM     35  H   UNL     1      -6.373   4.194  24.883  0.00  0.00    +0.149 HD
BRANCH  22  26
ATOM      7  O   UNL     1      -2.449  -0.424  26.035  0.00  0.00    -0.461 OA
ATOM     26  C   UNL     1      -2.947  -0.214  24.790  0.00  0.00    +0.153 A 
ATOM     31  C   UNL     1      -2.068  -0.656  23.831  0.00  0.00    +0.051 A 
ATOM     33  C   UNL     1      -0.953  -1.174  24.534  0.00  0.00    +0.042 A 
ATOM     34  C   UNL     1      -1.233  -1.010  25.870  0.00  0.00    +0.196 A 
ENDBRANCH  22  26
ENDBRANCH  15   8
BRANCH  16   9
ATOM      6  O   UNL     1       0.918   3.191  24.271  0.00  0.00    -0.252 OA
ATOM      9  N   UNL     1      -0.574   2.072  25.639  0.00  0.00    -0.292 N 
ATOM     10  N   UNL     1       0.875   0.845  24.347  0.00  0.00    -0.269 N 
ATOM     20  C   UNL     1       0.463   2.132  24.700  0.00  0.00    +0.304 C 
ATOM     36  H   UNL     1      -0.849   1.162  25.994  0.00  0.00    +0.151 HD
ATOM     37  H   UNL     1       0.389   0.072  24.796  0.00  0.00    +0.156 HD
BRANCH  10  21
ATOM     21  C   UNL     1       1.891   0.478  23.434  0.00  0.00    +0.035 A 
ATOM     25  C   UNL     1       3.209   0.450  23.860  0.00  0.00    +0.035 A 
ATOM     27  C   UNL     1       1.547   0.151  22.132  0.00  0.00    +0.023 A 
ATOM     28  C   UNL     1       4.210   0.086  22.959  0.00  0.00    +0.057 A 
ATOM     29  C   UNL     1       2.548  -0.213  21.232  0.00  0.00    +0.002 A 
ATOM     30  C   UNL     1       3.881  -0.245  21.645  0.00  0.00    +0.012 A 
BRANCH  28  32
ATOM      1  F   UNL     1       6.506  -0.313  22.414  0.00  0.00    -0.166 F 
ATOM      2  F   UNL     1       6.095   1.251  23.858  0.00  0.00    -0.166 F 
ATOM      3  F   UNL     1       5.846  -0.834  24.419  0.00  0.00    -0.166 F 
ATOM     32  C   UNL     1       5.635   0.050  23.401  0.00  0.00    +0.417 C 
ENDBRANCH  28  32
ENDBRANCH  10  21
ENDBRANCH  16   9
TORSDOF 5
ENDMDL
MODEL 3
REMARK VINA RESULT:       6.5      1.530      2.081
REMARK  Name = 11941651
REMARK  5 active torsions:
REMARK  status: ('A' for Active; 'I' for Inactive)
REMARK    1  A    between atoms: N_8  and  C_15
REMARK    2  A    between atoms: N_9  and  C_16
REMARK    3  A    between atoms: N_10  and  C_21
REMARK    4  A    between atoms: C_22  and  C_26
REMARK    5  A    between atoms: C_28  and  C_32
REMARK                            x       y       z     vdW  Elec       q    Type
REMARK                         _______ _______ _______ _____ _____    ______ ____
ROOT
ATOM      4  O   UNL     1      -4.285  -1.663  23.596  0.00  0.00    -0.370 OA
ATOM      5  O   UNL     1      -2.181  -1.212  25.857  0.00  0.00    -0.370 OA
ATOM     13  C   UNL     1      -3.163  -0.360  25.241  0.00  0.00    +0.171 C 
ATOM     14  C   UNL     1      -3.212  -0.722  23.770  0.00  0.00    +0.171 C 
ATOM     15  C   UNL     1      -4.544  -0.699  25.751  0.00  0.00    +0.130 C 
ATOM     16  C   UNL     1      -1.880  -1.388  23.510  0.00  0.00    +0.131 C 
ATOM     17  C   UNL     1      -4.960  -1.846  24.849  0.00  0.00    +0.185 C 
ATOM     18  C   UNL     1      -1.572  -2.033  24.849  0.00  0.00    +0.185 C 
ENDROOT
BRANCH  15   8
ATOM      8  N   UNL     1      -5.429   0.430  25.567  0.00  0.00    -0.306 N 
ATOM     11  N   UNL     1      -3.645   1.947  25.424  0.00  0.00    -0.211 NA
ATOM     12  N   UNL     1      -5.928   2.699  25.240  0.00  0.00    -0.223 NA
ATOM     19  C   UNL     1      -4.987   1.731  25.406  0.00  0.00    +0.216 A 
ATOM     22  C   UNL     1      -3.249   3.227  25.264  0.00  0.00    +0.111 A 
ATOM     23  C   UNL     1      -5.461   3.956  25.085  0.00  0.00    +0.116 A 
ATOM     24  C   UNL     1      -4.121   4.282  25.087  0.00  0.00    +0.051 A 
ATOM     35  H   UNL     1      -6.428   0.273  25.500  0.00  0.00    +0.149 HD
BRANCH  22  26
ATOM      7  O   UNL     1      -1.095   2.337  25.645  0.00  0.00    -0.461 OA
ATOM     26  C   UNL     1      -1.825   3.425  25.287  0.00  0.00    +0.153 A 
ATOM     31  C   UNL     1      -1.007   4.497  25.026  0.00  0.00    +0.051 A 
ATOM     33  C   UNL     1       0.316   4.038  25.235  0.00  0.00    +0.042 A 
ATOM     34  C   UNL     1       0.209   2.719  25.610  0.00  0.00    +0.196 A 
ENDBRANCH  22  26
ENDBRANCH  15   8
BRANCH  16   9
ATOM      6  O   UNL     1       0.942  -1.603  23.960  0.00  0.00    -0.252 OA
ATOM      9  N   UNL     1      -0.873  -0.419  23.151  0.00  0.00    -0.292 N 
ATOM     10  N   UNL     1       1.223   0.499  22.952  0.00  0.00    -0.269 N 
ATOM     20  C   UNL     1       0.492  -0.601  23.408  0.00  0.00    +0.304 C 
ATOM     36  H   UNL     1      -1.159   0.405  22.631  0.00  0.00    +0.151 HD
ATOM     37  H   UNL     1       0.693   1.250  22.517  0.00  0.00    +0.156 HD
BRANCH  10  21
ATOM     21  C   UNL     1       2.621   0.701  23.021  0.00  0.00    +0.035 A 
ATOM     25  C   UNL     1       3.431  -0.315  23.502  0.00  0.00    +0.035 A 
ATOM     27  C   UNL     1       3.152   1.910  22.603  0.00  0.00    +0.023 A 
ATOM     28  C   UNL     1       4.810  -0.116  23.569  0.00  0.00    +0.057 A 
ATOM     29  C   UNL     1       4.532   2.109  22.669  0.00  0.00    +0.002 A 
ATOM     30  C   UNL     1       5.361   1.097  23.152  0.00  0.00    +0.012 A 
BRANCH  28  32
ATOM      1  F   UNL     1       6.882  -1.302  23.413  0.00  0.00    -0.166 F 
ATOM      2  F   UNL     1       6.043  -1.044  25.395  0.00  0.00    -0.166 F 
ATOM      3  F   UNL     1       5.121  -2.433  24.000  0.00  0.00    -0.166 F 
ATOM     32  C   UNL     1       5.697  -1.199  24.084  0.00  0.00    +0.417 C 
ENDBRANCH  28  32
ENDBRANCH  10  21
ENDBRANCH  16   9
TORSDOF 5
ENDMDL
