MODEL 1
REMARK VINA RESULT:       5.5      0.000      0.000
REMARK  Name = 51136835
REMARK  7 active torsions:
REMARK  status: ('A' for Active; 'I' for Inactive)
REMARK    1  A    between atoms: O_5  and  C_31
REMARK    2  A    between atoms: O_5  and  C_37
REMARK    3  A    between atoms: N_7  and  C_17
REMARK    4  A    between atoms: C_13  and  C_18
REMARK    5  A    between atoms: C_17  and  C_19
REMARK    6  A    between atoms: C_24  and  C_28
REMARK    7  A    between atoms: C_30  and  C_36
REMARK                            x       y       z     vdW  Elec       q    Type
REMARK                         _______ _______ _______ _____ _____    ______ ____
ROOT
ATOM      4  O   UNL     1      -6.024   1.072  25.020  0.00  0.00    -0.336 OA
ATOM     10  N   UNL     1      -3.864   1.163  25.605  0.00  0.00    -0.190 NA
ATOM     11  N   UNL     1      -5.441  -0.111  24.547  0.00  0.00    -0.056 NA
ATOM     18  C   UNL     1      -5.025   1.764  25.630  0.00  0.00    +0.245 A 
ATOM     24  C   UNL     1      -4.168   0.016  24.931  0.00  0.00    +0.202 A 
ENDROOT
BRANCH  24  28
ATOM      6  O   UNL     1       4.511   0.925  21.840  0.00  0.00    -0.276 OA
ATOM      8  N   UNL     1       0.339  -1.213  23.737  0.00  0.00    -0.312 N 
ATOM      9  N   UNL     1       3.023  -0.336  23.102  0.00  0.00    -0.299 N 
ATOM     12  N   UNL     1      -1.239  -2.928  24.121  0.00  0.00    -0.240 NA
ATOM     20  C   UNL     1       1.494  -2.051  24.071  0.00  0.00    +0.125 C 
ATOM     21  C   UNL     1       0.576   0.035  23.007  0.00  0.00    +0.125 C 
ATOM     22  C   UNL     1       2.748  -1.196  24.255  0.00  0.00    +0.126 C 
ATOM     23  C   UNL     1       1.890  -0.036  22.231  0.00  0.00    +0.126 C 
ATOM     25  C   UNL     1      -0.955  -1.608  24.068  0.00  0.00    +0.122 A 
ATOM     28  C   UNL     1      -3.174  -0.983  24.655  0.00  0.00    +0.027 A 
ATOM     29  C   UNL     1      -1.878  -0.605  24.324  0.00  0.00    +0.055 A 
ATOM     30  C   UNL     1       4.277   0.201  22.810  0.00  0.00    +0.213 C 
ATOM     33  C   UNL     1      -3.505  -2.332  24.721  0.00  0.00    +0.031 A 
ATOM     35  C   UNL     1      -2.510  -3.256  24.448  0.00  0.00    +0.113 A 
ATOM     36  C   UNL     1       5.392  -0.151  23.764  0.00  0.00    +0.109 C 
ENDBRANCH  24  28
BRANCH  18  13
ATOM      7  N   UNL     1      -4.543   4.203  25.757  0.00  0.00    -0.287 NA
ATOM     13  C   UNL     1      -5.404   3.101  26.234  0.00  0.00    +0.146 C 
ATOM     14  C   UNL     1      -6.834   3.535  25.868  0.00  0.00    +0.030 C 
ATOM     15  C   UNL     1      -6.685   4.917  25.246  0.00  0.00    +0.017 C 
ATOM     16  C   UNL     1      -5.363   5.414  25.798  0.00  0.00    +0.085 C 
BRANCH   7  17
ATOM     17  C   UNL     1      -3.314   4.346  26.527  0.00  0.00    +0.120 C 
BRANCH  17  19
ATOM     19  C   UNL     1      -2.145   3.691  25.843  0.00  0.00    -0.030 A 
ATOM     26  C   UNL     1      -2.225   3.358  24.491  0.00  0.00    +0.051 A 
ATOM     27  C   UNL     1      -0.980   3.415  26.561  0.00  0.00    +0.005 A 
ATOM     31  C   UNL     1      -1.140   2.749  23.857  0.00  0.00    +0.130 A 
ATOM     32  C   UNL     1       0.103   2.807  25.928  0.00  0.00    +0.004 A 
ATOM     34  C   UNL     1       0.023   2.474  24.575  0.00  0.00    +0.046 A 
BRANCH  31   5
ATOM      5  O   UNL     1      -1.220   2.424  22.537  0.00  0.00    -0.406 OA
BRANCH   5  37
ATOM      1  F   UNL     1      -3.441   2.965  22.583  0.00  0.00    -0.133 F 
ATOM      2  F   UNL     1      -2.846   0.906  22.156  0.00  0.00    -0.133 F 
ATOM      3  F   UNL     1      -2.507   2.449  20.647  0.00  0.00    -0.133 F 
ATOM     37  C   UNL     1      -2.508   2.203  21.975  0.00  0.00    +0.575 C 
ENDBRANCH   5  37
ENDBRANCH  31   5
ENDBRANCH  17  19
ENDBRANCH   7  17
ENDBRANCH  18  13
TORSDOF 6
ENDMDL
MODEL 2
REMARK VINA RESULT:       6.0      2.572      3.016
REMARK  Name = 51136835
REMARK  7 active torsions:
REMARK  status: ('A' for Active; 'I' for Inactive)
REMARK    1  A    between atoms: O_5  and  C_31
REMARK    2  A    between atoms: O_5  and  C_37
REMARK    3  A    between atoms: N_7  and  C_17
REMARK    4  A    between atoms: C_13  and  C_18
REMARK    5  A    between atoms: C_17  and  C_19
REMARK    6  A    between atoms: C_24  and  C_28
REMARK    7  A    between atoms: C_30  and  C_36
REMARK                            x       y       z     vdW  Elec       q    Type
REMARK                         _______ _______ _______ _____ _____    ______ ____
ROOT
ATOM      4  O   UNL     1      -6.008   1.133  25.069  0.00  0.00    -0.336 OA
ATOM     10  N   UNL     1      -3.813   1.297  25.486  0.00  0.00    -0.190 NA
ATOM     11  N   UNL     1      -5.435  -0.062  24.616  0.00  0.00    -0.056 NA
ATOM     18  C   UNL     1      -4.984   1.876  25.566  0.00  0.00    +0.245 A 
ATOM     24  C   UNL     1      -4.140   0.110  24.897  0.00  0.00    +0.202 A 
ENDROOT
BRANCH  24  28
ATOM      6  O   UNL     1       4.549   1.087  21.856  0.00  0.00    -0.276 OA
ATOM      8  N   UNL     1       0.369  -1.094  23.686  0.00  0.00    -0.312 N 
ATOM      9  N   UNL     1       3.056  -0.205  23.082  0.00  0.00    -0.299 N 
ATOM     12  N   UNL     1      -1.211  -2.816  24.022  0.00  0.00    -0.240 NA
ATOM     20  C   UNL     1       1.522  -1.941  24.002  0.00  0.00    +0.125 C 
ATOM     21  C   UNL     1       0.610   0.172  22.988  0.00  0.00    +0.125 C 
ATOM     22  C   UNL     1       2.777  -1.092  24.212  0.00  0.00    +0.126 C 
ATOM     23  C   UNL     1       1.927   0.119  22.215  0.00  0.00    +0.126 C 
ATOM     25  C   UNL     1      -0.926  -1.495  24.003  0.00  0.00    +0.122 A 
ATOM     28  C   UNL     1      -3.146  -0.883  24.599  0.00  0.00    +0.027 A 
ATOM     29  C   UNL     1      -1.849  -0.498  24.281  0.00  0.00    +0.055 A 
ATOM     30  C   UNL     1       4.312   0.339  22.807  0.00  0.00    +0.213 C 
ATOM     33  C   UNL     1      -3.478  -2.233  24.629  0.00  0.00    +0.031 A 
ATOM     35  C   UNL     1      -2.484  -3.151  24.336  0.00  0.00    +0.113 A 
ATOM     36  C   UNL     1       5.424  -0.038  23.755  0.00  0.00    +0.109 C 
ENDBRANCH  24  28
BRANCH  18  13
ATOM      7  N   UNL     1      -4.330   4.263  25.828  0.00  0.00    -0.287 NA
ATOM     13  C   UNL     1      -5.347   3.235  26.128  0.00  0.00    +0.146 C 
ATOM     14  C   UNL     1      -6.654   3.793  25.535  0.00  0.00    +0.030 C 
ATOM     15  C   UNL     1      -6.286   5.162  24.979  0.00  0.00    +0.017 C 
ATOM     16  C   UNL     1      -5.041   5.539  25.757  0.00  0.00    +0.085 C 
BRANCH   7  17
ATOM     17  C   UNL     1      -3.242   4.294  26.797  0.00  0.00    +0.120 C 
BRANCH  17  19
ATOM     19  C   UNL     1      -1.967   3.735  26.227  0.00  0.00    -0.030 A 
ATOM     26  C   UNL     1      -1.061   3.078  27.060  0.00  0.00    +0.051 A 
ATOM     27  C   UNL     1      -1.689   3.874  24.867  0.00  0.00    +0.005 A 
ATOM     31  C   UNL     1       0.123   2.561  26.532  0.00  0.00    +0.130 A 
ATOM     32  C   UNL     1      -0.506   3.357  24.339  0.00  0.00    +0.004 A 
ATOM     34  C   UNL     1       0.400   2.700  25.172  0.00  0.00    +0.046 A 
BRANCH  31   5
ATOM      5  O   UNL     1       1.007   1.920  27.346  0.00  0.00    -0.406 OA
BRANCH   5  37
ATOM      1  F   UNL     1       2.038   3.876  27.928  0.00  0.00    -0.133 F 
ATOM      2  F   UNL     1       2.730   1.996  28.801  0.00  0.00    -0.133 F 
ATOM      3  F   UNL     1       0.812   2.825  29.436  0.00  0.00    -0.133 F 
ATOM     37  C   UNL     1       1.636   2.669  28.379  0.00  0.00    +0.575 C 
ENDBRANCH   5  37
ENDBRANCH  31   5
ENDBRANCH  17  19
ENDBRANCH   7  17
ENDBRANCH  18  13
TORSDOF 6
ENDMDL
MODEL 3
REMARK VINA RESULT:       9.0      1.758      2.366
REMARK  Name = 51136835
REMARK  7 active torsions:
REMARK  status: ('A' for Active; 'I' for Inactive)
REMARK    1  A    between atoms: O_5  and  C_31
REMARK    2  A    between atoms: O_5  and  C_37
REMARK    3  A    between atoms: N_7  and  C_17
REMARK    4  A    between atoms: C_13  and  C_18
REMARK    5  A    between atoms: C_17  and  C_19
REMARK    6  A    between atoms: C_24  and  C_28
REMARK    7  A    between atoms: C_30  and  C_36
REMARK                            x       y       z     vdW  Elec       q    Type
REMARK                         _______ _______ _______ _____ _____    ______ ____
ROOT
ATOM      4  O   UNL     1      -5.679   1.115  24.778  0.00  0.00    -0.336 OA
ATOM     10  N   UNL     1      -3.548   1.192  25.462  0.00  0.00    -0.190 NA
ATOM     11  N   UNL     1      -5.087  -0.078  24.342  0.00  0.00    -0.056 NA
ATOM     18  C   UNL     1      -4.704   1.803  25.428  0.00  0.00    +0.245 A 
ATOM     24  C   UNL     1      -3.831   0.042  24.784  0.00  0.00    +0.202 A 
ENDROOT
BRANCH  24  28
ATOM      6  O   UNL     1       4.926   0.832  21.888  0.00  0.00    -0.276 OA
ATOM      8  N   UNL     1       0.699  -1.237  23.739  0.00  0.00    -0.312 N 
ATOM      9  N   UNL     1       3.402  -0.388  23.148  0.00  0.00    -0.299 N 
ATOM     12  N   UNL     1      -0.895  -2.934  24.133  0.00  0.00    -0.240 NA
ATOM     20  C   UNL     1       1.841  -2.068  24.127  0.00  0.00    +0.125 C 
ATOM     21  C   UNL     1       0.960  -0.011  22.980  0.00  0.00    +0.125 C 
ATOM     22  C   UNL     1       3.094  -1.213  24.318  0.00  0.00    +0.126 C 
ATOM     23  C   UNL     1       2.293  -0.109  22.241  0.00  0.00    +0.126 C 
ATOM     25  C   UNL     1      -0.605  -1.617  24.050  0.00  0.00    +0.122 A 
ATOM     28  C   UNL     1      -2.835  -0.968  24.562  0.00  0.00    +0.027 A 
ATOM     29  C   UNL     1      -1.529  -0.604  24.253  0.00  0.00    +0.055 A 
ATOM     30  C   UNL     1       4.665   0.137  22.872  0.00  0.00    +0.213 C 
ATOM     33  C   UNL     1      -3.173  -2.313  24.658  0.00  0.00    +0.031 A 
ATOM     35  C   UNL     1      -2.175  -3.249  24.437  0.00  0.00    +0.113 A 
ATOM     36  C   UNL     1       5.755  -0.191  23.864  0.00  0.00    +0.109 C 
ENDBRANCH  24  28
BRANCH  18  13
ATOM      7  N   UNL     1      -5.390   4.149  24.957  0.00  0.00    -0.287 NA
ATOM     13  C   UNL     1      -5.098   3.148  26.004  0.00  0.00    +0.146 C 
ATOM     14  C   UNL     1      -6.382   3.079  26.849  0.00  0.00    +0.030 C 
ATOM     15  C   UNL     1      -7.315   4.119  26.242  0.00  0.00    +0.017 C 
ATOM     16  C   UNL     1      -6.373   5.069  25.530  0.00  0.00    +0.085 C 
BRANCH   7  17
ATOM     17  C   UNL     1      -4.201   4.844  24.480  0.00  0.00    +0.120 C 
BRANCH  17  19
ATOM     19  C   UNL     1      -3.167   3.888  23.952  0.00  0.00    -0.030 A 
ATOM     26  C   UNL     1      -1.975   3.694  24.650  0.00  0.00    +0.051 A 
ATOM     27  C   UNL     1      -3.398   3.194  22.763  0.00  0.00    +0.005 A 
ATOM     31  C   UNL     1      -1.014   2.808  24.160  0.00  0.00    +0.130 A 
ATOM     32  C   UNL     1      -2.439   2.309  22.273  0.00  0.00    +0.004 A 
ATOM     34  C   UNL     1      -1.247   2.115  22.971  0.00  0.00    +0.046 A 
BRANCH  31   5
ATOM      5  O   UNL     1       0.149   2.621  24.842  0.00  0.00    -0.406 OA
BRANCH   5  37
ATOM      1  F   UNL     1      -0.243   1.019  26.427  0.00  0.00    -0.133 F 
ATOM      2  F   UNL     1      -0.898   3.072  26.790  0.00  0.00    -0.133 F 
ATOM      3  F   UNL     1       1.235   2.606  26.855  0.00  0.00    -0.133 F 
ATOM     37  C   UNL     1       0.073   2.317  26.230  0.00  0.00    +0.575 C 
ENDBRANCH   5  37
ENDBRANCH  31   5
ENDBRANCH  17  19
ENDBRANCH   7  17
ENDBRANCH  18  13
TORSDOF 6
ENDMDL
