MODEL 1
REMARK VINA RESULT:       1.1      0.000      0.000
REMARK  Name = 38030795
REMARK  12 active torsions:
REMARK  status: ('A' for Active; 'I' for Inactive)
REMARK    1  A    between atoms: O_1  and  C_22
REMARK    2  A    between atoms: O_3  and  C_31
REMARK    3  A    between atoms: O_3  and  C_32
REMARK    4  A    between atoms: N_4  and  C_12
REMARK    5  A    between atoms: C_7  and  C_11
REMARK    6  A    between atoms: C_8  and  C_12
REMARK    7  A    between atoms: C_10  and  C_15
REMARK    8  A    between atoms: C_11  and  C_18
REMARK    9  A    between atoms: C_11  and  C_19
REMARK   10  A    between atoms: C_14  and  C_23
REMARK   11  A    between atoms: C_15  and  C_24
REMARK   12  A    between atoms: C_25  and  C_26
REMARK                            x       y       z     vdW  Elec       q    Type
REMARK                         _______ _______ _______ _____ _____    ______ ____
ROOT
ATOM      7  C   UNL     1      -4.000   1.844  23.739  0.00  0.00    +0.000 C 
ATOM      8  C   UNL     1      -4.891   3.015  24.225  0.00  0.00    +0.029 C 
ATOM      9  C   UNL     1      -4.734   0.505  23.908  0.00  0.00    +0.012 C 
ATOM     10  C   UNL     1      -5.131   0.241  25.373  0.00  0.00    +0.024 C 
ATOM     13  C   UNL     1      -5.674   2.683  25.473  0.00  0.00    -0.023 C 
ATOM     14  C   UNL     1      -5.780   1.453  26.008  0.00  0.00    -0.073 C 
ATOM     23  C   UNL     1      -6.596   1.213  27.248  0.00  0.00    +0.039 C 
ENDROOT
BRANCH   7  11
ATOM     11  C   UNL     1      -3.575   2.022  22.277  0.00  0.00    -0.013 C 
ATOM     18  C   UNL     1      -3.774   3.468  21.838  0.00  0.00    +0.007 C 
ATOM     19  C   UNL     1      -2.123   1.594  22.089  0.00  0.00    +0.007 C 
ENDBRANCH   7  11
BRANCH   8  12
ATOM     12  C   UNL     1      -4.059   4.280  24.465  0.00  0.00    +0.092 C 
BRANCH  12   4
ATOM      4  N   UNL     1      -3.176   4.105  25.615  0.00  0.00    -0.302 NA
ATOM     16  C   UNL     1      -2.237   2.990  25.431  0.00  0.00    +0.087 C 
ATOM     17  C   UNL     1      -2.469   5.346  25.966  0.00  0.00    +0.087 C 
ATOM     20  C   UNL     1      -1.106   3.283  24.443  0.00  0.00    +0.046 C 
ATOM     21  C   UNL     1      -1.347   5.719  24.998  0.00  0.00    +0.046 C 
ATOM     22  C   UNL     1      -0.366   4.564  24.814  0.00  0.00    +0.117 C 
BRANCH  22   1
ATOM      1  O   UNL     1       0.565   4.876  23.785  0.00  0.00    -0.392 OA
ATOM     33  H   UNL     1       1.252   5.443  24.174  0.00  0.00    +0.210 HD
ENDBRANCH  22   1
ENDBRANCH  12   4
ENDBRANCH   8  12
BRANCH  10  15
ATOM     15  C   UNL     1      -3.927  -0.232  26.195  0.00  0.00    +0.105 C 
BRANCH  15  24
ATOM      2  O   UNL     1      -1.780  -0.091  25.043  0.00  0.00    -0.420 OA
ATOM      5  N   UNL     1      -2.841  -2.042  24.767  0.00  0.00    -0.112 NA
ATOM      6  N   UNL     1      -1.651  -2.099  24.067  0.00  0.00    -0.107 NA
ATOM     24  C   UNL     1      -2.875  -0.852  25.321  0.00  0.00    +0.218 A 
ATOM     25  C   UNL     1      -1.065  -0.940  24.255  0.00  0.00    +0.248 A 
BRANCH  25  26
ATOM     26  C   UNL     1       0.189  -0.440  23.771  0.00  0.00    +0.039 A 
ATOM     27  C   UNL     1       0.712   0.746  24.285  0.00  0.00    +0.017 A 
ATOM     28  C   UNL     1       0.886  -1.141  22.788  0.00  0.00    +0.017 A 
ATOM     29  C   UNL     1       1.931   1.232  23.814  0.00  0.00    +0.046 A 
ATOM     30  C   UNL     1       2.106  -0.656  22.317  0.00  0.00    +0.046 A 
ATOM     31  C   UNL     1       2.629   0.531  22.829  0.00  0.00    +0.120 A 
BRANCH  31   3
ATOM      3  O   UNL     1       3.821   1.003  22.374  0.00  0.00    -0.495 OA
ATOM     32  C   UNL     1       5.002   0.478  22.980  0.00  0.00    +0.277 C 
ENDBRANCH  31   3
ENDBRANCH  25  26
ENDBRANCH  15  24
ENDBRANCH  10  15
TORSDOF 8
ENDMDL
MODEL 2
REMARK VINA RESULT:       1.6      2.116      4.991
REMARK  Name = 38030795
REMARK  12 active torsions:
REMARK  status: ('A' for Active; 'I' for Inactive)
REMARK    1  A    between atoms: O_1  and  C_22
REMARK    2  A    between atoms: O_3  and  C_31
REMARK    3  A    between atoms: O_3  and  C_32
REMARK    4  A    between atoms: N_4  and  C_12
REMARK    5  A    between atoms: C_7  and  C_11
REMARK    6  A    between atoms: C_8  and  C_12
REMARK    7  A    between atoms: C_10  and  C_15
REMARK    8  A    between atoms: C_11  and  C_18
REMARK    9  A    between atoms: C_11  and  C_19
REMARK   10  A    between atoms: C_14  and  C_23
REMARK   11  A    between atoms: C_15  and  C_24
REMARK   12  A    between atoms: C_25  and  C_26
REMARK                            x       y       z     vdW  Elec       q    Type
REMARK                         _______ _______ _______ _____ _____    ______ ____
ROOT
ATOM      7  C   UNL     1      -3.139   2.992  23.490  0.00  0.00    +0.000 C 
ATOM      8  C   UNL     1      -2.065   2.615  24.542  0.00  0.00    +0.029 C 
ATOM      9  C   UNL     1      -3.541   4.468  23.640  0.00  0.00    +0.012 C 
ATOM     10  C   UNL     1      -4.100   4.779  25.041  0.00  0.00    +0.024 C 
ATOM     13  C   UNL     1      -2.314   3.244  25.893  0.00  0.00    -0.023 C 
ATOM     14  C   UNL     1      -3.228   4.200  26.137  0.00  0.00    -0.073 C 
ATOM     23  C   UNL     1      -3.396   4.781  27.514  0.00  0.00    +0.039 C 
ENDROOT
BRANCH   7  11
ATOM     11  C   UNL     1      -2.652   2.730  22.061  0.00  0.00    -0.013 C 
ATOM     18  C   UNL     1      -2.436   1.237  21.839  0.00  0.00    +0.007 C 
ATOM     19  C   UNL     1      -3.646   3.290  21.049  0.00  0.00    +0.007 C 
ENDBRANCH   7  11
BRANCH   8  12
ATOM     12  C   UNL     1      -1.957   1.094  24.699  0.00  0.00    +0.092 C 
BRANCH  12   4
ATOM      4  N   UNL     1      -0.676   0.728  25.300  0.00  0.00    -0.302 NA
ATOM     16  C   UNL     1      -0.280  -0.647  24.968  0.00  0.00    +0.087 C 
ATOM     17  C   UNL     1       0.388   1.686  24.967  0.00  0.00    +0.087 C 
ATOM     20  C   UNL     1       0.198  -0.828  23.527  0.00  0.00    +0.046 C 
ATOM     21  C   UNL     1       0.889   1.585  23.526  0.00  0.00    +0.046 C 
ATOM     22  C   UNL     1       1.311   0.158  23.185  0.00  0.00    +0.117 C 
BRANCH  22   1
ATOM      1  O   UNL     1       1.608   0.059  21.797  0.00  0.00    -0.392 OA
ATOM     33  H   UNL     1       0.899   0.513  21.313  0.00  0.00    +0.210 HD
ENDBRANCH  22   1
ENDBRANCH  12   4
ENDBRANCH   8  12
BRANCH  10  15
ATOM     15  C   UNL     1      -5.547   4.295  25.178  0.00  0.00    +0.105 C 
BRANCH  15  24
ATOM      2  O   UNL     1      -4.899   1.947  25.023  0.00  0.00    -0.420 OA
ATOM      5  N   UNL     1      -6.258   2.410  26.739  0.00  0.00    -0.112 NA
ATOM      6  N   UNL     1      -5.973   1.058  26.772  0.00  0.00    -0.107 NA
ATOM     24  C   UNL     1      -5.609   2.889  25.703  0.00  0.00    +0.218 A 
ATOM     25  C   UNL     1      -5.178   0.832  25.752  0.00  0.00    +0.248 A 
BRANCH  25  26
ATOM     26  C   UNL     1      -4.569  -0.384  25.298  0.00  0.00    +0.039 A 
ATOM     27  C   UNL     1      -4.719  -0.786  23.971  0.00  0.00    +0.017 A 
ATOM     28  C   UNL     1      -3.824  -1.163  26.182  0.00  0.00    +0.017 A 
ATOM     29  C   UNL     1      -4.126  -1.968  23.529  0.00  0.00    +0.046 A 
ATOM     30  C   UNL     1      -3.230  -2.345  25.741  0.00  0.00    +0.046 A 
ATOM     31  C   UNL     1      -3.381  -2.748  24.414  0.00  0.00    +0.120 A 
BRANCH  31   3
ATOM      3  O   UNL     1      -2.799  -3.899  23.981  0.00  0.00    -0.495 OA
ATOM     32  C   UNL     1      -1.599  -3.773  23.218  0.00  0.00    +0.277 C 
ENDBRANCH  31   3
ENDBRANCH  25  26
ENDBRANCH  15  24
ENDBRANCH  10  15
TORSDOF 8
ENDMDL
MODEL 3
REMARK VINA RESULT:       2.7      1.561      4.570
REMARK  Name = 38030795
REMARK  12 active torsions:
REMARK  status: ('A' for Active; 'I' for Inactive)
REMARK    1  A    between atoms: O_1  and  C_22
REMARK    2  A    between atoms: O_3  and  C_31
REMARK    3  A    between atoms: O_3  and  C_32
REMARK    4  A    between atoms: N_4  and  C_12
REMARK    5  A    between atoms: C_7  and  C_11
REMARK    6  A    between atoms: C_8  and  C_12
REMARK    7  A    between atoms: C_10  and  C_15
REMARK    8  A    between atoms: C_11  and  C_18
REMARK    9  A    between atoms: C_11  and  C_19
REMARK   10  A    between atoms: C_14  and  C_23
REMARK   11  A    between atoms: C_15  and  C_24
REMARK   12  A    between atoms: C_25  and  C_26
REMARK                            x       y       z     vdW  Elec       q    Type
REMARK                         _______ _______ _______ _____ _____    ______ ____
ROOT
ATOM      7  C   UNL     1      -4.510   2.569  25.203  0.00  0.00    +0.000 C 
ATOM      8  C   UNL     1      -4.511   1.213  24.452  0.00  0.00    +0.029 C 
ATOM      9  C   UNL     1      -4.546   3.735  24.204  0.00  0.00    +0.012 C 
ATOM     10  C   UNL     1      -3.345   3.712  23.239  0.00  0.00    +0.024 C 
ATOM     13  C   UNL     1      -3.656   1.228  23.207  0.00  0.00    -0.023 C 
ATOM     14  C   UNL     1      -3.115   2.331  22.659  0.00  0.00    -0.073 C 
ATOM     23  C   UNL     1      -2.288   2.252  21.407  0.00  0.00    +0.039 C 
ENDROOT
BRANCH   7  11
ATOM     11  C   UNL     1      -5.691   2.681  26.174  0.00  0.00    -0.013 C 
ATOM     18  C   UNL     1      -6.350   4.051  26.052  0.00  0.00    +0.007 C 
ATOM     19  C   UNL     1      -6.702   1.569  25.913  0.00  0.00    +0.007 C 
ENDBRANCH   7  11
BRANCH   8  12
ATOM     12  C   UNL     1      -4.057   0.073  25.370  0.00  0.00    +0.092 C 
BRANCH  12   4
ATOM      4  N   UNL     1      -3.907  -1.168  24.614  0.00  0.00    -0.302 NA
ATOM     16  C   UNL     1      -2.886  -1.059  23.563  0.00  0.00    +0.087 C 
ATOM     17  C   UNL     1      -3.653  -2.323  25.488  0.00  0.00    +0.087 C 
ATOM     20  C   UNL     1      -1.449  -1.053  24.087  0.00  0.00    +0.046 C 
ATOM     21  C   UNL     1      -2.243  -2.361  26.077  0.00  0.00    +0.046 C 
ATOM     22  C   UNL     1      -1.182  -2.258  24.985  0.00  0.00    +0.117 C 
BRANCH  22   1
ATOM      1  O   UNL     1       0.107  -2.123  25.570  0.00  0.00    -0.392 OA
ATOM     33  H   UNL     1       0.224  -1.188  25.807  0.00  0.00    +0.210 HD
ENDBRANCH  22   1
ENDBRANCH  12   4
ENDBRANCH   8  12
BRANCH  10  15
ATOM     15  C   UNL     1      -2.078   4.239  23.922  0.00  0.00    +0.105 C 
BRANCH  15  24
ATOM      2  O   UNL     1      -0.102   2.839  23.618  0.00  0.00    -0.420 OA
ATOM      5  N   UNL     1      -1.311   2.336  25.432  0.00  0.00    -0.112 NA
ATOM      6  N   UNL     1      -0.232   1.473  25.384  0.00  0.00    -0.107 NA
ATOM     24  C   UNL     1      -1.195   3.116  24.382  0.00  0.00    +0.218 A 
ATOM     25  C   UNL     1       0.445   1.802  24.309  0.00  0.00    +0.248 A 
BRANCH  25  26
ATOM     26  C   UNL     1       1.651   1.251  23.763  0.00  0.00    +0.039 A 
ATOM     27  C   UNL     1       1.778  -0.129  23.607  0.00  0.00    +0.017 A 
ATOM     28  C   UNL     1       2.695   2.094  23.386  0.00  0.00    +0.017 A 
ATOM     29  C   UNL     1       2.950  -0.666  23.075  0.00  0.00    +0.046 A 
ATOM     30  C   UNL     1       3.868   1.558  22.854  0.00  0.00    +0.046 A 
ATOM     31  C   UNL     1       3.995   0.178  22.698  0.00  0.00    +0.120 A 
BRANCH  31   3
ATOM      3  O   UNL     1       5.137  -0.346  22.176  0.00  0.00    -0.495 OA
ATOM     32  C   UNL     1       6.292  -0.352  23.016  0.00  0.00    +0.277 C 
ENDBRANCH  31   3
ENDBRANCH  25  26
ENDBRANCH  15  24
ENDBRANCH  10  15
TORSDOF 8
ENDMDL
MODEL 4
REMARK VINA RESULT:       3.0      1.720      2.272
REMARK  Name = 38030795
REMARK  12 active torsions:
REMARK  status: ('A' for Active; 'I' for Inactive)
REMARK    1  A    between atoms: O_1  and  C_22
REMARK    2  A    between atoms: O_3  and  C_31
REMARK    3  A    between atoms: O_3  and  C_32
REMARK    4  A    between atoms: N_4  and  C_12
REMARK    5  A    between atoms: C_7  and  C_11
REMARK    6  A    between atoms: C_8  and  C_12
REMARK    7  A    between atoms: C_10  and  C_15
REMARK    8  A    between atoms: C_11  and  C_18
REMARK    9  A    between atoms: C_11  and  C_19
REMARK   10  A    between atoms: C_14  and  C_23
REMARK   11  A    between atoms: C_15  and  C_24
REMARK   12  A    between atoms: C_25  and  C_26
REMARK                            x       y       z     vdW  Elec       q    Type
REMARK                         _______ _______ _______ _____ _____    ______ ____
ROOT
ATOM      7  C   UNL     1      -2.778   1.161  23.655  0.00  0.00    +0.000 C 
ATOM      8  C   UNL     1      -2.338   1.511  25.099  0.00  0.00    +0.029 C 
ATOM      9  C   UNL     1      -4.158   0.487  23.663  0.00  0.00    +0.012 C 
ATOM     10  C   UNL     1      -4.170  -0.804  24.503  0.00  0.00    +0.024 C 
ATOM     13  C   UNL     1      -2.701   0.442  26.102  0.00  0.00    -0.023 C 
ATOM     14  C   UNL     1      -3.506  -0.606  25.850  0.00  0.00    -0.073 C 
ATOM     23  C   UNL     1      -3.825  -1.616  26.917  0.00  0.00    +0.039 C 
ENDROOT
BRANCH   7  11
ATOM     11  C   UNL     1      -2.811   2.402  22.755  0.00  0.00    -0.013 C 
ATOM     18  C   UNL     1      -2.584   2.009  21.300  0.00  0.00    +0.007 C 
ATOM     19  C   UNL     1      -4.136   3.141  22.917  0.00  0.00    +0.007 C 
ENDBRANCH   7  11
BRANCH   8  12
ATOM     12  C   UNL     1      -0.831   1.784  25.167  0.00  0.00    +0.092 C 
BRANCH  12   4
ATOM      4  N   UNL     1      -0.545   2.868  26.105  0.00  0.00    -0.302 NA
ATOM     16  C   UNL     1       0.289   3.917  25.504  0.00  0.00    +0.087 C 
ATOM     17  C   UNL     1      -1.769   3.430  26.694  0.00  0.00    +0.087 C 
ATOM     20  C   UNL     1      -0.451   4.805  24.503  0.00  0.00    +0.046 C 
ATOM     21  C   UNL     1      -2.579   4.302  25.735  0.00  0.00    +0.046 C 
ATOM     22  C   UNL     1      -1.715   5.398  25.118  0.00  0.00    +0.117 C 
BRANCH  22   1
ATOM      1  O   UNL     1      -2.446   6.082  24.107  0.00  0.00    -0.392 OA
ATOM     33  H   UNL     1      -3.156   5.490  23.809  0.00  0.00    +0.210 HD
ENDBRANCH  22   1
ENDBRANCH  12   4
ENDBRANCH   8  12
BRANCH  10  15
ATOM     15  C   UNL     1      -3.527  -1.965  23.738  0.00  0.00    +0.105 C 
BRANCH  15  24
ATOM      2  O   UNL     1      -1.166  -1.366  23.582  0.00  0.00    -0.420 OA
ATOM      5  N   UNL     1      -1.595  -3.036  25.008  0.00  0.00    -0.112 NA
ATOM      6  N   UNL     1      -0.232  -2.804  25.019  0.00  0.00    -0.107 NA
ATOM     24  C   UNL     1      -2.099  -2.174  24.156  0.00  0.00    +0.218 A 
ATOM     25  C   UNL     1      -0.027  -1.822  24.172  0.00  0.00    +0.248 A 
BRANCH  25  26
ATOM     26  C   UNL     1       1.187  -1.167  23.782  0.00  0.00    +0.039 A 
ATOM     27  C   UNL     1       1.138   0.079  23.156  0.00  0.00    +0.017 A 
ATOM     28  C   UNL     1       2.417  -1.774  24.031  0.00  0.00    +0.017 A 
ATOM     29  C   UNL     1       2.319   0.716  22.778  0.00  0.00    +0.046 A 
ATOM     30  C   UNL     1       3.599  -1.137  23.653  0.00  0.00    +0.046 A 
ATOM     31  C   UNL     1       3.550   0.108  23.026  0.00  0.00    +0.120 A 
BRANCH  31   3
ATOM      3  O   UNL     1       4.702   0.733  22.660  0.00  0.00    -0.495 OA
ATOM     32  C   UNL     1       5.899   0.331  23.328  0.00  0.00    +0.277 C 
ENDBRANCH  31   3
ENDBRANCH  25  26
ENDBRANCH  15  24
ENDBRANCH  10  15
TORSDOF 8
ENDMDL
MODEL 5
REMARK VINA RESULT:       3.3      2.003      4.587
REMARK  Name = 38030795
REMARK  12 active torsions:
REMARK  status: ('A' for Active; 'I' for Inactive)
REMARK    1  A    between atoms: O_1  and  C_22
REMARK    2  A    between atoms: O_3  and  C_31
REMARK    3  A    between atoms: O_3  and  C_32
REMARK    4  A    between atoms: N_4  and  C_12
REMARK    5  A    between atoms: C_7  and  C_11
REMARK    6  A    between atoms: C_8  and  C_12
REMARK    7  A    between atoms: C_10  and  C_15
REMARK    8  A    between atoms: C_11  and  C_18
REMARK    9  A    between atoms: C_11  and  C_19
REMARK   10  A    between atoms: C_14  and  C_23
REMARK   11  A    between atoms: C_15  and  C_24
REMARK   12  A    between atoms: C_25  and  C_26
REMARK                            x       y       z     vdW  Elec       q    Type
REMARK                         _______ _______ _______ _____ _____    ______ ____
ROOT
ATOM      7  C   UNL     1      -1.948   2.881  25.672  0.00  0.00    +0.000 C 
ATOM      8  C   UNL     1      -2.447   1.451  26.001  0.00  0.00    +0.029 C 
ATOM      9  C   UNL     1      -3.056   3.911  25.941  0.00  0.00    +0.012 C 
ATOM     10  C   UNL     1      -4.323   3.633  25.110  0.00  0.00    +0.024 C 
ATOM     13  C   UNL     1      -3.879   1.215  25.582  0.00  0.00    -0.023 C 
ATOM     14  C   UNL     1      -4.726   2.174  25.168  0.00  0.00    -0.073 C 
ATOM     23  C   UNL     1      -6.143   1.847  24.785  0.00  0.00    +0.039 C 
ENDROOT
BRANCH   7  11
ATOM     11  C   UNL     1      -0.695   3.245  26.476  0.00  0.00    -0.013 C 
ATOM     18  C   UNL     1       0.046   1.983  26.904  0.00  0.00    +0.007 C 
ATOM     19  C   UNL     1       0.215   4.157  25.660  0.00  0.00    +0.007 C 
ENDBRANCH   7  11
BRANCH   8  12
ATOM     12  C   UNL     1      -1.545   0.391  25.359  0.00  0.00    +0.092 C 
BRANCH  12   4
ATOM      4  N   UNL     1      -1.603  -0.859  26.114  0.00  0.00    -0.302 NA
ATOM     16  C   UNL     1      -2.974  -1.208  26.508  0.00  0.00    +0.087 C 
ATOM     17  C   UNL     1      -0.953  -1.969  25.401  0.00  0.00    +0.087 C 
ATOM     20  C   UNL     1      -3.846  -1.712  25.357  0.00  0.00    +0.046 C 
ATOM     21  C   UNL     1      -1.755  -2.500  24.212  0.00  0.00    +0.046 C 
ATOM     22  C   UNL     1      -3.177  -2.872  24.625  0.00  0.00    +0.117 C 
BRANCH  22   1
ATOM      1  O   UNL     1      -3.947  -3.198  23.474  0.00  0.00    -0.392 OA
ATOM     33  H   UNL     1      -4.685  -3.759  23.766  0.00  0.00    +0.210 HD
ENDBRANCH  22   1
ENDBRANCH  12   4
ENDBRANCH   8  12
BRANCH  10  15
ATOM     15  C   UNL     1      -4.144   4.096  23.659  0.00  0.00    +0.105 C 
BRANCH  15  24
ATOM      2  O   UNL     1      -2.132   2.750  23.346  0.00  0.00    -0.420 OA
ATOM      5  N   UNL     1      -3.662   2.499  21.733  0.00  0.00    -0.112 NA
ATOM      6  N   UNL     1      -2.585   1.687  21.431  0.00  0.00    -0.107 NA
ATOM     24  C   UNL     1      -3.354   3.101  22.859  0.00  0.00    +0.218 A 
ATOM     25  C   UNL     1      -1.716   1.866  22.399  0.00  0.00    +0.248 A 
BRANCH  25  26
ATOM     26  C   UNL     1      -0.423   1.283  22.608  0.00  0.00    +0.039 A 
ATOM     27  C   UNL     1       0.530   1.957  23.373  0.00  0.00    +0.017 A 
ATOM     28  C   UNL     1      -0.118   0.043  22.050  0.00  0.00    +0.017 A 
ATOM     29  C   UNL     1       1.787   1.390  23.577  0.00  0.00    +0.046 A 
ATOM     30  C   UNL     1       1.140  -0.525  22.254  0.00  0.00    +0.046 A 
ATOM     31  C   UNL     1       2.092   0.148  23.018  0.00  0.00    +0.120 A 
BRANCH  31   3
ATOM      3  O   UNL     1       3.318  -0.406  23.221  0.00  0.00    -0.495 OA
ATOM     32  C   UNL     1       4.452   0.445  23.051  0.00  0.00    +0.277 C 
ENDBRANCH  31   3
ENDBRANCH  25  26
ENDBRANCH  15  24
ENDBRANCH  10  15
TORSDOF 8
ENDMDL
MODEL 6
REMARK VINA RESULT:       3.5      1.592      2.546
REMARK  Name = 38030795
REMARK  12 active torsions:
REMARK  status: ('A' for Active; 'I' for Inactive)
REMARK    1  A    between atoms: O_1  and  C_22
REMARK    2  A    between atoms: O_3  and  C_31
REMARK    3  A    between atoms: O_3  and  C_32
REMARK    4  A    between atoms: N_4  and  C_12
REMARK    5  A    between atoms: C_7  and  C_11
REMARK    6  A    between atoms: C_8  and  C_12
REMARK    7  A    between atoms: C_10  and  C_15
REMARK    8  A    between atoms: C_11  and  C_18
REMARK    9  A    between atoms: C_11  and  C_19
REMARK   10  A    between atoms: C_14  and  C_23
REMARK   11  A    between atoms: C_15  and  C_24
REMARK   12  A    between atoms: C_25  and  C_26
REMARK                            x       y       z     vdW  Elec       q    Type
REMARK                         _______ _______ _______ _____ _____    ______ ____
ROOT
ATOM      7  C   UNL     1      -3.156   1.305  23.469  0.00  0.00    +0.000 C 
ATOM      8  C   UNL     1      -4.415   1.535  24.343  0.00  0.00    +0.029 C 
ATOM      9  C   UNL     1      -2.942  -0.195  23.221  0.00  0.00    +0.012 C 
ATOM     10  C   UNL     1      -2.775  -0.985  24.533  0.00  0.00    +0.024 C 
ATOM     13  C   UNL     1      -4.564   0.511  25.444  0.00  0.00    -0.023 C 
ATOM     14  C   UNL     1      -3.832  -0.611  25.553  0.00  0.00    -0.073 C 
ATOM     23  C   UNL     1      -4.060  -1.584  26.677  0.00  0.00    +0.039 C 
ENDROOT
BRANCH   7  11
ATOM     11  C   UNL     1      -3.252   2.045  22.130  0.00  0.00    -0.013 C 
ATOM     18  C   UNL     1      -3.795   3.454  22.339  0.00  0.00    +0.007 C 
ATOM     19  C   UNL     1      -1.889   2.086  21.447  0.00  0.00    +0.007 C 
ENDBRANCH   7  11
BRANCH   8  12
ATOM     12  C   UNL     1      -4.417   2.942  24.951  0.00  0.00    +0.092 C 
BRANCH  12   4
ATOM      4  N   UNL     1      -3.479   3.023  26.068  0.00  0.00    -0.302 NA
ATOM     16  C   UNL     1      -2.172   2.438  25.738  0.00  0.00    +0.087 C 
ATOM     17  C   UNL     1      -3.338   4.395  26.577  0.00  0.00    +0.087 C 
ATOM     20  C   UNL     1      -1.324   3.295  24.796  0.00  0.00    +0.046 C 
ATOM     21  C   UNL     1      -2.530   5.318  25.664  0.00  0.00    +0.046 C 
ATOM     22  C   UNL     1      -1.168   4.716  25.330  0.00  0.00    +0.117 C 
BRANCH  22   1
ATOM      1  O   UNL     1      -0.513   5.510  24.349  0.00  0.00    -0.392 OA
ATOM     33  H   UNL     1       0.389   5.683  24.668  0.00  0.00    +0.210 HD
ENDBRANCH  22   1
ENDBRANCH  12   4
ENDBRANCH   8  12
BRANCH  10  15
ATOM     15  C   UNL     1      -1.367  -0.805  25.110  0.00  0.00    +0.105 C 
BRANCH  15  24
ATOM      2  O   UNL     1       0.957  -0.542  24.413  0.00  0.00    -0.420 OA
ATOM      5  N   UNL     1      -0.499  -0.655  22.719  0.00  0.00    -0.112 NA
ATOM      6  N   UNL     1       0.767  -0.507  22.185  0.00  0.00    -0.107 NA
ATOM     24  C   UNL     1      -0.340  -0.670  24.022  0.00  0.00    +0.218 A 
ATOM     25  C   UNL     1       1.585  -0.445  23.210  0.00  0.00    +0.248 A 
BRANCH  25  26
ATOM     26  C   UNL     1       3.011  -0.295  23.255  0.00  0.00    +0.039 A 
ATOM     27  C   UNL     1       3.801  -1.312  23.791  0.00  0.00    +0.017 A 
ATOM     28  C   UNL     1       3.606   0.865  22.762  0.00  0.00    +0.017 A 
ATOM     29  C   UNL     1       5.187  -1.167  23.835  0.00  0.00    +0.046 A 
ATOM     30  C   UNL     1       4.993   1.010  22.806  0.00  0.00    +0.046 A 
ATOM     31  C   UNL     1       5.784  -0.006  23.342  0.00  0.00    +0.120 A 
BRANCH  31   3
ATOM      3  O   UNL     1       7.137   0.133  23.382  0.00  0.00    -0.495 OA
ATOM     32  C   UNL     1       7.906  -0.784  22.604  0.00  0.00    +0.277 C 
ENDBRANCH  31   3
ENDBRANCH  25  26
ENDBRANCH  15  24
ENDBRANCH  10  15
TORSDOF 8
ENDMDL
MODEL 7
REMARK VINA RESULT:       3.5      1.672      3.045
REMARK  Name = 38030795
REMARK  12 active torsions:
REMARK  status: ('A' for Active; 'I' for Inactive)
REMARK    1  A    between atoms: O_1  and  C_22
REMARK    2  A    between atoms: O_3  and  C_31
REMARK    3  A    between atoms: O_3  and  C_32
REMARK    4  A    between atoms: N_4  and  C_12
REMARK    5  A    between atoms: C_7  and  C_11
REMARK    6  A    between atoms: C_8  and  C_12
REMARK    7  A    between atoms: C_10  and  C_15
REMARK    8  A    between atoms: C_11  and  C_18
REMARK    9  A    between atoms: C_11  and  C_19
REMARK   10  A    between atoms: C_14  and  C_23
REMARK   11  A    between atoms: C_15  and  C_24
REMARK   12  A    between atoms: C_25  and  C_26
REMARK                            x       y       z     vdW  Elec       q    Type
REMARK                         _______ _______ _______ _____ _____    ______ ____
ROOT
ATOM      7  C   UNL     1      -3.951   0.450  24.794  0.00  0.00    +0.000 C 
ATOM      8  C   UNL     1      -3.121   1.340  25.753  0.00  0.00    +0.029 C 
ATOM      9  C   UNL     1      -3.992  -0.997  25.307  0.00  0.00    +0.012 C 
ATOM     10  C   UNL     1      -2.584  -1.607  25.443  0.00  0.00    +0.024 C 
ATOM     13  C   UNL     1      -1.891   0.645  26.289  0.00  0.00    -0.023 C 
ATOM     14  C   UNL     1      -1.628  -0.667  26.148  0.00  0.00    -0.073 C 
ATOM     23  C   UNL     1      -0.383  -1.277  26.729  0.00  0.00    +0.039 C 
ENDROOT
BRANCH   7  11
ATOM     11  C   UNL     1      -5.378   0.980  24.620  0.00  0.00    -0.013 C 
ATOM     18  C   UNL     1      -6.051   1.148  25.977  0.00  0.00    +0.007 C 
ATOM     19  C   UNL     1      -5.366   2.299  23.853  0.00  0.00    +0.007 C 
ENDBRANCH   7  11
BRANCH   8  12
ATOM     12  C   UNL     1      -2.710   2.651  25.074  0.00  0.00    +0.092 C 
BRANCH  12   4
ATOM      4  N   UNL     1      -1.705   3.352  25.870  0.00  0.00    -0.302 NA
ATOM     16  C   UNL     1      -0.342   2.887  25.579  0.00  0.00    +0.087 C 
ATOM     17  C   UNL     1      -1.811   4.812  25.738  0.00  0.00    +0.087 C 
ATOM     20  C   UNL     1       0.206   3.363  24.232  0.00  0.00    +0.046 C 
ATOM     21  C   UNL     1      -1.313   5.355  24.398  0.00  0.00    +0.046 C 
ATOM     22  C   UNL     1       0.107   4.880  24.100  0.00  0.00    +0.117 C 
BRANCH  22   1
ATOM      1  O   UNL     1       0.477   5.255  22.779  0.00  0.00    -0.392 OA
ATOM     33  H   UNL     1       0.109   6.138  22.612  0.00  0.00    +0.210 HD
ENDBRANCH  22   1
ENDBRANCH  12   4
ENDBRANCH   8  12
BRANCH  10  15
ATOM     15  C   UNL     1      -2.032  -2.030  24.077  0.00  0.00    +0.105 C 
BRANCH  15  24
ATOM      2  O   UNL     1       0.254  -1.242  23.747  0.00  0.00    -0.420 OA
ATOM      5  N   UNL     1      -1.310   0.095  22.870  0.00  0.00    -0.112 NA
ATOM      6  N   UNL     1      -0.074   0.657  22.612  0.00  0.00    -0.107 NA
ATOM     24  C   UNL     1      -1.070  -1.012  23.534  0.00  0.00    +0.218 A 
ATOM     25  C   UNL     1       0.810  -0.157  23.143  0.00  0.00    +0.248 A 
BRANCH  25  26
ATOM     26  C   UNL     1       2.241  -0.080  23.180  0.00  0.00    +0.039 A 
ATOM     27  C   UNL     1       2.988  -1.187  23.585  0.00  0.00    +0.017 A 
ATOM     28  C   UNL     1       2.886   1.099  22.810  0.00  0.00    +0.017 A 
ATOM     29  C   UNL     1       4.379  -1.113  23.622  0.00  0.00    +0.046 A 
ATOM     30  C   UNL     1       4.279   1.173  22.846  0.00  0.00    +0.046 A 
ATOM     31  C   UNL     1       5.025   0.068  23.252  0.00  0.00    +0.120 A 
BRANCH  31   3
ATOM      3  O   UNL     1       6.384   0.138  23.283  0.00  0.00    -0.495 OA
ATOM     32  C   UNL     1       7.104  -0.967  22.735  0.00  0.00    +0.277 C 
ENDBRANCH  31   3
ENDBRANCH  25  26
ENDBRANCH  15  24
ENDBRANCH  10  15
TORSDOF 8
ENDMDL
MODEL 8
REMARK VINA RESULT:       3.7      1.672      4.549
REMARK  Name = 38030795
REMARK  12 active torsions:
REMARK  status: ('A' for Active; 'I' for Inactive)
REMARK    1  A    between atoms: O_1  and  C_22
REMARK    2  A    between atoms: O_3  and  C_31
REMARK    3  A    between atoms: O_3  and  C_32
REMARK    4  A    between atoms: N_4  and  C_12
REMARK    5  A    between atoms: C_7  and  C_11
REMARK    6  A    between atoms: C_8  and  C_12
REMARK    7  A    between atoms: C_10  and  C_15
REMARK    8  A    between atoms: C_11  and  C_18
REMARK    9  A    between atoms: C_11  and  C_19
REMARK   10  A    between atoms: C_14  and  C_23
REMARK   11  A    between atoms: C_15  and  C_24
REMARK   12  A    between atoms: C_25  and  C_26
REMARK                            x       y       z     vdW  Elec       q    Type
REMARK                         _______ _______ _______ _____ _____    ______ ____
ROOT
ATOM      7  C   UNL     1      -4.746   2.320  25.298  0.00  0.00    +0.000 C 
ATOM      8  C   UNL     1      -4.231   2.024  23.867  0.00  0.00    +0.029 C 
ATOM      9  C   UNL     1      -5.102   3.807  25.444  0.00  0.00    +0.012 C 
ATOM     10  C   UNL     1      -3.897   4.724  25.160  0.00  0.00    +0.024 C 
ATOM     13  C   UNL     1      -3.342   3.118  23.322  0.00  0.00    -0.023 C 
ATOM     14  C   UNL     1      -3.170   4.323  23.893  0.00  0.00    -0.073 C 
ATOM     23  C   UNL     1      -2.275   5.358  23.270  0.00  0.00    +0.039 C 
ENDROOT
BRANCH   7  11
ATOM     11  C   UNL     1      -5.963   1.458  25.653  0.00  0.00    -0.013 C 
ATOM     18  C   UNL     1      -6.524   1.865  27.011  0.00  0.00    +0.007 C 
ATOM     19  C   UNL     1      -7.031   1.574  24.569  0.00  0.00    +0.007 C 
ENDBRANCH   7  11
BRANCH   8  12
ATOM     12  C   UNL     1      -3.486   0.686  23.813  0.00  0.00    +0.092 C 
BRANCH  12   4
ATOM      4  N   UNL     1      -4.194  -0.330  24.588  0.00  0.00    -0.302 NA
ATOM     16  C   UNL     1      -4.283  -1.611  23.874  0.00  0.00    +0.087 C 
ATOM     17  C   UNL     1      -3.621  -0.505  25.930  0.00  0.00    +0.087 C 
ATOM     20  C   UNL     1      -2.966  -2.387  23.818  0.00  0.00    +0.046 C 
ATOM     21  C   UNL     1      -2.282  -1.243  25.945  0.00  0.00    +0.046 C 
ATOM     22  C   UNL     1      -2.377  -2.579  25.213  0.00  0.00    +0.117 C 
BRANCH  22   1
ATOM      1  O   UNL     1      -1.085  -3.161  25.094  0.00  0.00    -0.392 OA
ATOM     33  H   UNL     1      -0.788  -3.397  25.989  0.00  0.00    +0.210 HD
ENDBRANCH  22   1
ENDBRANCH  12   4
ENDBRANCH   8  12
BRANCH  10  15
ATOM     15  C   UNL     1      -2.938   4.761  26.355  0.00  0.00    +0.105 C 
BRANCH  15  24
ATOM      2  O   UNL     1      -1.391   3.249  25.226  0.00  0.00    -0.420 OA
ATOM      5  N   UNL     1      -1.788   2.724  27.365  0.00  0.00    -0.112 NA
ATOM      6  N   UNL     1      -0.904   1.793  26.853  0.00  0.00    -0.107 NA
ATOM     24  C   UNL     1      -2.045   3.554  26.381  0.00  0.00    +0.218 A 
ATOM     25  C   UNL     1      -0.701   2.138  25.603  0.00  0.00    +0.248 A 
BRANCH  25  26
ATOM     26  C   UNL     1       0.121   1.537  24.593  0.00  0.00    +0.039 A 
ATOM     27  C   UNL     1       1.264   2.197  24.141  0.00  0.00    +0.017 A 
ATOM     28  C   UNL     1      -0.220   0.293  24.065  0.00  0.00    +0.017 A 
ATOM     29  C   UNL     1       2.064   1.613  23.160  0.00  0.00    +0.046 A 
ATOM     30  C   UNL     1       0.580  -0.292  23.083  0.00  0.00    +0.046 A 
ATOM     31  C   UNL     1       1.722   0.368  22.631  0.00  0.00    +0.120 A 
BRANCH  31   3
ATOM      3  O   UNL     1       2.505  -0.203  21.676  0.00  0.00    -0.495 OA
ATOM     32  C   UNL     1       3.877   0.193  21.639  0.00  0.00    +0.277 C 
ENDBRANCH  31   3
ENDBRANCH  25  26
ENDBRANCH  15  24
ENDBRANCH  10  15
TORSDOF 8
ENDMDL
MODEL 9
REMARK VINA RESULT:       4.3      2.394      5.573
REMARK  Name = 38030795
REMARK  12 active torsions:
REMARK  status: ('A' for Active; 'I' for Inactive)
REMARK    1  A    between atoms: O_1  and  C_22
REMARK    2  A    between atoms: O_3  and  C_31
REMARK    3  A    between atoms: O_3  and  C_32
REMARK    4  A    between atoms: N_4  and  C_12
REMARK    5  A    between atoms: C_7  and  C_11
REMARK    6  A    between atoms: C_8  and  C_12
REMARK    7  A    between atoms: C_10  and  C_15
REMARK    8  A    between atoms: C_11  and  C_18
REMARK    9  A    between atoms: C_11  and  C_19
REMARK   10  A    between atoms: C_14  and  C_23
REMARK   11  A    between atoms: C_15  and  C_24
REMARK   12  A    between atoms: C_25  and  C_26
REMARK                            x       y       z     vdW  Elec       q    Type
REMARK                         _______ _______ _______ _____ _____    ______ ____
ROOT
ATOM      7  C   UNL     1      -3.014   3.162  23.268  0.00  0.00    +0.000 C 
ATOM      8  C   UNL     1      -1.501   2.878  23.088  0.00  0.00    +0.029 C 
ATOM      9  C   UNL     1      -3.249   4.653  23.551  0.00  0.00    +0.012 C 
ATOM     10  C   UNL     1      -2.510   5.129  24.816  0.00  0.00    +0.024 C 
ATOM     13  C   UNL     1      -0.635   3.657  24.049  0.00  0.00    -0.023 C 
ATOM     14  C   UNL     1      -1.071   4.655  24.839  0.00  0.00    -0.073 C 
ATOM     23  C   UNL     1      -0.132   5.387  25.757  0.00  0.00    +0.039 C 
ENDROOT
BRANCH   7  11
ATOM     11  C   UNL     1      -3.823   2.733  22.039  0.00  0.00    -0.013 C 
ATOM     18  C   UNL     1      -4.449   3.949  21.364  0.00  0.00    +0.007 C 
ATOM     19  C   UNL     1      -2.938   1.966  21.061  0.00  0.00    +0.007 C 
ENDBRANCH   7  11
BRANCH   8  12
ATOM     12  C   UNL     1      -1.200   1.381  23.226  0.00  0.00    +0.092 C 
BRANCH  12   4
ATOM      4  N   UNL     1       0.010   1.170  24.017  0.00  0.00    -0.302 NA
ATOM     16  C   UNL     1      -0.287   0.949  25.439  0.00  0.00    +0.087 C 
ATOM     17  C   UNL     1       0.849   0.093  23.473  0.00  0.00    +0.087 C 
ATOM     20  C   UNL     1      -0.882  -0.426  25.746  0.00  0.00    +0.046 C 
ATOM     21  C   UNL     1       0.294  -1.311  23.712  0.00  0.00    +0.046 C 
ATOM     22  C   UNL     1      -0.005  -1.545  25.191  0.00  0.00    +0.117 C 
BRANCH  22   1
ATOM      1  O   UNL     1      -0.677  -2.787  25.360  0.00  0.00    -0.392 OA
ATOM     33  H   UNL     1      -0.023  -3.431  25.681  0.00  0.00    +0.210 HD
ENDBRANCH  22   1
ENDBRANCH  12   4
ENDBRANCH   8  12
BRANCH  10  15
ATOM     15  C   UNL     1      -3.251   4.696  26.085  0.00  0.00    +0.105 C 
BRANCH  15  24
ATOM      2  O   UNL     1      -3.524   2.322  25.590  0.00  0.00    -0.420 OA
ATOM      5  N   UNL     1      -5.450   3.443  25.788  0.00  0.00    -0.112 NA
ATOM      6  N   UNL     1      -5.750   2.123  25.510  0.00  0.00    -0.107 NA
ATOM     24  C   UNL     1      -4.139   3.513  25.826  0.00  0.00    +0.218 A 
ATOM     25  C   UNL     1      -4.597   1.505  25.402  0.00  0.00    +0.248 A 
BRANCH  25  26
ATOM     26  C   UNL     1      -4.299   0.131  25.125  0.00  0.00    +0.039 A 
ATOM     27  C   UNL     1      -4.374  -0.349  23.817  0.00  0.00    +0.017 A 
ATOM     28  C   UNL     1      -3.931  -0.726  26.161  0.00  0.00    +0.017 A 
ATOM     29  C   UNL     1      -4.084  -1.686  23.547  0.00  0.00    +0.046 A 
ATOM     30  C   UNL     1      -3.640  -2.064  25.892  0.00  0.00    +0.046 A 
ATOM     31  C   UNL     1      -3.716  -2.543  24.584  0.00  0.00    +0.120 A 
BRANCH  31   3
ATOM      3  O   UNL     1      -3.429  -3.847  24.320  0.00  0.00    -0.495 OA
ATOM     32  C   UNL     1      -2.677  -4.118  23.137  0.00  0.00    +0.277 C 
ENDBRANCH  31   3
ENDBRANCH  25  26
ENDBRANCH  15  24
ENDBRANCH  10  15
TORSDOF 8
ENDMDL
