MODEL 1
REMARK VINA RESULT:      -5.7      0.000      0.000
REMARK  Name = 71693153
REMARK  12 active torsions:
REMARK  status: ('A' for Active; 'I' for Inactive)
REMARK    1  A    between atoms: N_2  and  C_13
REMARK    2  A    between atoms: N_5  and  C_26
REMARK    3  A    between atoms: C_6  and  C_10
REMARK    4  A    between atoms: C_7  and  C_13
REMARK    5  A    between atoms: C_9  and  C_14
REMARK    6  A    between atoms: C_10  and  C_15
REMARK    7  A    between atoms: C_10  and  C_16
REMARK    8  A    between atoms: C_11  and  C_17
REMARK    9  A    between atoms: C_14  and  C_18
REMARK   10  A    between atoms: C_22  and  C_27
REMARK   11  A    between atoms: C_26  and  C_28
REMARK   12  A    between atoms: C_28  and  C_29
REMARK                            x       y       z     vdW  Elec       q    Type
REMARK                         _______ _______ _______ _____ _____    ______ ____
ROOT
ATOM      6  C   UNL     1      -2.515   2.364  23.673  0.00  0.00    +0.000 C 
ATOM      7  C   UNL     1      -1.365   2.935  24.540  0.00  0.00    +0.032 C 
ATOM      8  C   UNL     1      -3.681   3.361  23.604  0.00  0.00    +0.012 C 
ATOM      9  C   UNL     1      -4.242   3.700  24.998  0.00  0.00    +0.022 C 
ATOM     11  C   UNL     1      -3.139   4.016  25.987  0.00  0.00    -0.073 C 
ATOM     12  C   UNL     1      -1.856   3.678  25.759  0.00  0.00    -0.022 C 
ATOM     17  C   UNL     1      -3.535   4.771  27.226  0.00  0.00    +0.039 C 
ENDROOT
BRANCH   6  10
ATOM     10  C   UNL     1      -2.043   2.018  22.257  0.00  0.00    -0.013 C 
ATOM     15  C   UNL     1      -1.986   0.505  22.070  0.00  0.00    +0.007 C 
ATOM     16  C   UNL     1      -2.960   2.657  21.220  0.00  0.00    +0.007 C 
ENDBRANCH   6  10
BRANCH   7  13
ATOM     13  C   UNL     1      -0.396   1.829  24.973  0.00  0.00    +0.113 C 
BRANCH  13   2
ATOM      1  O   UNL     1       1.130  -0.140  23.515  0.00  0.00    -0.253 OA
ATOM      2  N   UNL     1       0.885   2.010  24.365  0.00  0.00    -0.299 N 
ATOM      5  N   UNL     1       2.790   1.446  23.180  0.00  0.00    -0.299 N 
ATOM     19  C   UNL     1       1.565   1.000  23.671  0.00  0.00    +0.300 C 
ATOM     30  H   UNL     1       1.301   2.935  24.376  0.00  0.00    +0.150 HD
ATOM     32  H   UNL     1       3.070   2.404  23.366  0.00  0.00    +0.150 HD
BRANCH   5  26
ATOM     26  C   UNL     1       3.686   0.601  22.428  0.00  0.00    +0.105 C 
BRANCH  26  28
ATOM     28  C   UNL     1       5.002   0.358  23.156  0.00  0.00    +0.015 C 
ATOM     29  C   UNL     1       5.008  -0.945  23.942  0.00  0.00    +0.005 C 
ENDBRANCH  26  28
ENDBRANCH   5  26
ENDBRANCH  13   2
ENDBRANCH   7  13
BRANCH   9  14
ATOM     14  C   UNL     1      -5.140   2.574  25.520  0.00  0.00    +0.082 C 
BRANCH  14  18
ATOM      3  N   UNL     1      -5.179   0.315  24.446  0.00  0.00    -0.342 N 
ATOM      4  N   UNL     1      -3.404   0.759  25.706  0.00  0.00    -0.232 NA
ATOM     18  C   UNL     1      -4.543   1.223  25.246  0.00  0.00    +0.109 A 
ATOM     20  C   UNL     1      -4.397  -0.810  24.386  0.00  0.00    +0.066 A 
ATOM     21  C   UNL     1      -3.295  -0.508  25.181  0.00  0.00    +0.092 A 
ATOM     22  C   UNL     1      -2.280  -1.467  25.336  0.00  0.00    -0.023 A 
ATOM     23  C   UNL     1      -4.554  -2.028  23.724  0.00  0.00    +0.028 A 
ATOM     24  C   UNL     1      -2.417  -2.697  24.682  0.00  0.00    +0.005 A 
ATOM     25  C   UNL     1      -3.534  -2.971  23.890  0.00  0.00    +0.002 A 
ATOM     27  C   UNL     1      -1.065  -1.222  26.171  0.00  0.00    +0.046 C 
ATOM     31  H   UNL     1      -6.067   0.447  23.979  0.00  0.00    +0.167 HD
ENDBRANCH  14  18
ENDBRANCH   9  14
TORSDOF 7
ENDMDL
MODEL 2
REMARK VINA RESULT:      -4.4      0.397      1.480
REMARK  Name = 71693153
REMARK  12 active torsions:
REMARK  status: ('A' for Active; 'I' for Inactive)
REMARK    1  A    between atoms: N_2  and  C_13
REMARK    2  A    between atoms: N_5  and  C_26
REMARK    3  A    between atoms: C_6  and  C_10
REMARK    4  A    between atoms: C_7  and  C_13
REMARK    5  A    between atoms: C_9  and  C_14
REMARK    6  A    between atoms: C_10  and  C_15
REMARK    7  A    between atoms: C_10  and  C_16
REMARK    8  A    between atoms: C_11  and  C_17
REMARK    9  A    between atoms: C_14  and  C_18
REMARK   10  A    between atoms: C_22  and  C_27
REMARK   11  A    between atoms: C_26  and  C_28
REMARK   12  A    between atoms: C_28  and  C_29
REMARK                            x       y       z     vdW  Elec       q    Type
REMARK                         _______ _______ _______ _____ _____    ______ ____
ROOT
ATOM      6  C   UNL     1      -2.424   2.291  23.680  0.00  0.00    +0.000 C 
ATOM      7  C   UNL     1      -1.329   2.951  24.554  0.00  0.00    +0.032 C 
ATOM      8  C   UNL     1      -3.643   3.218  23.556  0.00  0.00    +0.012 C 
ATOM      9  C   UNL     1      -4.254   3.564  24.928  0.00  0.00    +0.022 C 
ATOM     11  C   UNL     1      -3.194   3.970  25.931  0.00  0.00    -0.073 C 
ATOM     12  C   UNL     1      -1.890   3.699  25.740  0.00  0.00    -0.022 C 
ATOM     17  C   UNL     1      -3.661   4.735  27.137  0.00  0.00    +0.039 C 
ENDROOT
BRANCH   6  10
ATOM     10  C   UNL     1      -1.900   1.933  22.286  0.00  0.00    -0.013 C 
ATOM     15  C   UNL     1      -1.688   0.426  22.168  0.00  0.00    +0.007 C 
ATOM     16  C   UNL     1      -2.864   2.428  21.213  0.00  0.00    +0.007 C 
ENDBRANCH   6  10
BRANCH   7  13
ATOM     13  C   UNL     1      -0.309   1.914  25.041  0.00  0.00    +0.113 C 
BRANCH  13   2
ATOM      1  O   UNL     1       1.183  -0.140  23.670  0.00  0.00    -0.253 OA
ATOM      2  N   UNL     1       0.935   2.067  24.355  0.00  0.00    -0.299 N 
ATOM      5  N   UNL     1       2.791   1.441  23.124  0.00  0.00    -0.299 N 
ATOM     19  C   UNL     1       1.601   1.016  23.711  0.00  0.00    +0.300 C 
ATOM     30  H   UNL     1       1.332   2.997  24.272  0.00  0.00    +0.150 HD
ATOM     32  H   UNL     1       3.059   2.416  23.218  0.00  0.00    +0.150 HD
BRANCH   5  26
ATOM     26  C   UNL     1       3.666   0.553  22.397  0.00  0.00    +0.105 C 
BRANCH  26  28
ATOM     28  C   UNL     1       5.006   0.359  23.096  0.00  0.00    +0.015 C 
ATOM     29  C   UNL     1       5.040  -0.891  23.965  0.00  0.00    +0.005 C 
ENDBRANCH  26  28
ENDBRANCH   5  26
ENDBRANCH  13   2
ENDBRANCH   7  13
BRANCH   9  14
ATOM     14  C   UNL     1      -5.100   2.403  25.463  0.00  0.00    +0.082 C 
BRANCH  14  18
ATOM      3  N   UNL     1      -3.204   0.814  25.839  0.00  0.00    -0.342 N 
ATOM      4  N   UNL     1      -4.851   0.071  24.546  0.00  0.00    -0.232 NA
ATOM     18  C   UNL     1      -4.413   1.083  25.260  0.00  0.00    +0.109 A 
ATOM     20  C   UNL     1      -2.837  -0.455  25.474  0.00  0.00    +0.066 A 
ATOM     21  C   UNL     1      -3.882  -0.898  24.666  0.00  0.00    +0.092 A 
ATOM     22  C   UNL     1      -3.820  -2.189  24.115  0.00  0.00    -0.023 A 
ATOM     23  C   UNL     1      -1.716  -1.231  25.772  0.00  0.00    +0.028 A 
ATOM     24  C   UNL     1      -2.704  -2.985  24.400  0.00  0.00    +0.005 A 
ATOM     25  C   UNL     1      -1.672  -2.513  25.214  0.00  0.00    +0.002 A 
ATOM     27  C   UNL     1      -4.898  -2.740  23.239  0.00  0.00    +0.046 C 
ATOM     31  H   UNL     1      -2.673   1.439  26.432  0.00  0.00    +0.167 HD
ENDBRANCH  14  18
ENDBRANCH   9  14
TORSDOF 7
ENDMDL
MODEL 3
REMARK VINA RESULT:      -3.9      1.448      4.447
REMARK  Name = 71693153
REMARK  12 active torsions:
REMARK  status: ('A' for Active; 'I' for Inactive)
REMARK    1  A    between atoms: N_2  and  C_13
REMARK    2  A    between atoms: N_5  and  C_26
REMARK    3  A    between atoms: C_6  and  C_10
REMARK    4  A    between atoms: C_7  and  C_13
REMARK    5  A    between atoms: C_9  and  C_14
REMARK    6  A    between atoms: C_10  and  C_15
REMARK    7  A    between atoms: C_10  and  C_16
REMARK    8  A    between atoms: C_11  and  C_17
REMARK    9  A    between atoms: C_14  and  C_18
REMARK   10  A    between atoms: C_22  and  C_27
REMARK   11  A    between atoms: C_26  and  C_28
REMARK   12  A    between atoms: C_28  and  C_29
REMARK                            x       y       z     vdW  Elec       q    Type
REMARK                         _______ _______ _______ _____ _____    ______ ____
ROOT
ATOM      6  C   UNL     1      -1.572   0.695  25.484  0.00  0.00    +0.000 C 
ATOM      7  C   UNL     1      -0.323   0.207  24.709  0.00  0.00    +0.032 C 
ATOM      8  C   UNL     1      -2.174  -0.453  26.309  0.00  0.00    +0.012 C 
ATOM      9  C   UNL     1      -2.581  -1.651  25.431  0.00  0.00    +0.022 C 
ATOM     11  C   UNL     1      -1.491  -2.024  24.447  0.00  0.00    -0.073 C 
ATOM     12  C   UNL     1      -0.482  -1.185  24.147  0.00  0.00    -0.022 C 
ATOM     17  C   UNL     1      -1.561  -3.402  23.849  0.00  0.00    +0.039 C 
ENDROOT
BRANCH   6  10
ATOM     10  C   UNL     1      -1.247   1.879  26.400  0.00  0.00    -0.013 C 
ATOM     15  C   UNL     1       0.241   1.899  26.735  0.00  0.00    +0.007 C 
ATOM     16  C   UNL     1      -1.671   3.189  25.747  0.00  0.00    +0.007 C 
ENDBRANCH   6  10
BRANCH   7  13
ATOM     13  C   UNL     1       0.040   1.176  23.577  0.00  0.00    +0.113 C 
BRANCH  13   2
ATOM      1  O   UNL     1       2.126  -0.277  22.213  0.00  0.00    -0.253 OA
ATOM      2  N   UNL     1       1.439   1.467  23.587  0.00  0.00    -0.299 N 
ATOM      5  N   UNL     1       3.680   1.213  23.077  0.00  0.00    -0.299 N 
ATOM     19  C   UNL     1       2.394   0.710  22.896  0.00  0.00    +0.300 C 
ATOM     30  H   UNL     1       1.757   2.303  24.066  0.00  0.00    +0.150 HD
ATOM     32  H   UNL     1       3.806   2.030  23.667  0.00  0.00    +0.150 HD
BRANCH   5  26
ATOM     26  C   UNL     1       4.847   0.616  22.471  0.00  0.00    +0.105 C 
BRANCH  26  28
ATOM     28  C   UNL     1       5.774  -0.019  23.500  0.00  0.00    +0.015 C 
ATOM     29  C   UNL     1       5.184  -1.273  24.130  0.00  0.00    +0.005 C 
ENDBRANCH  26  28
ENDBRANCH   5  26
ENDBRANCH  13   2
ENDBRANCH   7  13
BRANCH   9  14
ATOM     14  C   UNL     1      -3.904  -1.381  24.708  0.00  0.00    +0.082 C 
BRANCH  14  18
ATOM      3  N   UNL     1      -5.011   0.641  25.682  0.00  0.00    -0.342 N 
ATOM      4  N   UNL     1      -3.857   0.972  23.812  0.00  0.00    -0.232 NA
ATOM     18  C   UNL     1      -4.238   0.084  24.701  0.00  0.00    +0.109 A 
ATOM     20  C   UNL     1      -5.137   1.977  25.407  0.00  0.00    +0.066 A 
ATOM     21  C   UNL     1      -4.409   2.160  24.234  0.00  0.00    +0.092 A 
ATOM     22  C   UNL     1      -4.332   3.444  23.669  0.00  0.00    -0.023 A 
ATOM     23  C   UNL     1      -5.806   3.012  26.063  0.00  0.00    +0.028 A 
ATOM     24  C   UNL     1      -4.996   4.497  24.310  0.00  0.00    +0.005 A 
ATOM     25  C   UNL     1      -5.719   4.283  25.486  0.00  0.00    +0.002 A 
ATOM     27  C   UNL     1      -3.571   3.725  22.414  0.00  0.00    +0.046 C 
ATOM     31  H   UNL     1      -5.417   0.155  26.471  0.00  0.00    +0.167 HD
ENDBRANCH  14  18
ENDBRANCH   9  14
TORSDOF 7
ENDMDL
MODEL 4
REMARK VINA RESULT:      -2.6      1.428      4.533
REMARK  Name = 71693153
REMARK  12 active torsions:
REMARK  status: ('A' for Active; 'I' for Inactive)
REMARK    1  A    between atoms: N_2  and  C_13
REMARK    2  A    between atoms: N_5  and  C_26
REMARK    3  A    between atoms: C_6  and  C_10
REMARK    4  A    between atoms: C_7  and  C_13
REMARK    5  A    between atoms: C_9  and  C_14
REMARK    6  A    between atoms: C_10  and  C_15
REMARK    7  A    between atoms: C_10  and  C_16
REMARK    8  A    between atoms: C_11  and  C_17
REMARK    9  A    between atoms: C_14  and  C_18
REMARK   10  A    between atoms: C_22  and  C_27
REMARK   11  A    between atoms: C_26  and  C_28
REMARK   12  A    between atoms: C_28  and  C_29
REMARK                            x       y       z     vdW  Elec       q    Type
REMARK                         _______ _______ _______ _____ _____    ______ ____
ROOT
ATOM      6  C   UNL     1      -1.140   0.396  24.841  0.00  0.00    +0.000 C 
ATOM      7  C   UNL     1      -0.346  -0.674  24.050  0.00  0.00    +0.032 C 
ATOM      8  C   UNL     1      -1.836  -0.240  26.054  0.00  0.00    +0.012 C 
ATOM      9  C   UNL     1      -2.805  -1.366  25.647  0.00  0.00    +0.022 C 
ATOM     11  C   UNL     1      -2.175  -2.319  24.652  0.00  0.00    -0.073 C 
ATOM     12  C   UNL     1      -1.068  -1.997  23.957  0.00  0.00    -0.022 C 
ATOM     17  C   UNL     1      -2.819  -3.670  24.505  0.00  0.00    +0.039 C 
ENDROOT
BRANCH   6  10
ATOM     10  C   UNL     1      -0.241   1.547  25.302  0.00  0.00    -0.013 C 
ATOM     15  C   UNL     1      -0.450   2.772  24.417  0.00  0.00    +0.007 C 
ATOM     16  C   UNL     1      -0.515   1.882  26.764  0.00  0.00    +0.007 C 
ENDBRANCH   6  10
BRANCH   7  13
ATOM     13  C   UNL     1      -0.004  -0.179  22.640  0.00  0.00    +0.113 C 
BRANCH  13   2
ATOM      1  O   UNL     1       2.190   1.443  23.581  0.00  0.00    -0.253 OA
ATOM      2  N   UNL     1       1.385  -0.365  22.361  0.00  0.00    -0.299 N 
ATOM      5  N   UNL     1       3.658   0.061  22.433  0.00  0.00    -0.299 N 
ATOM     19  C   UNL     1       2.396   0.469  22.858  0.00  0.00    +0.300 C 
ATOM     30  H   UNL     1       1.669  -1.182  21.829  0.00  0.00    +0.150 HD
ATOM     32  H   UNL     1       3.729  -0.752  21.828  0.00  0.00    +0.150 HD
BRANCH   5  26
ATOM     26  C   UNL     1       4.870   0.751  22.804  0.00  0.00    +0.105 C 
BRANCH  26  28
ATOM     28  C   UNL     1       5.698  -0.033  23.814  0.00  0.00    +0.015 C 
ATOM     29  C   UNL     1       5.130  -1.418  24.091  0.00  0.00    +0.005 C 
ENDBRANCH  26  28
ENDBRANCH   5  26
ENDBRANCH  13   2
ENDBRANCH   7  13
BRANCH   9  14
ATOM     14  C   UNL     1      -4.118  -0.794  25.102  0.00  0.00    +0.082 C 
BRANCH  14  18
ATOM      3  N   UNL     1      -4.032   1.201  23.595  0.00  0.00    -0.342 N 
ATOM      4  N   UNL     1      -3.902   1.624  25.772  0.00  0.00    -0.232 NA
ATOM     18  C   UNL     1      -4.015   0.685  24.860  0.00  0.00    +0.109 A 
ATOM     20  C   UNL     1      -3.924   2.564  23.696  0.00  0.00    +0.066 A 
ATOM     21  C   UNL     1      -3.843   2.803  25.066  0.00  0.00    +0.092 A 
ATOM     22  C   UNL     1      -3.722   4.126  25.523  0.00  0.00    -0.023 A 
ATOM     23  C   UNL     1      -3.890   3.577  22.738  0.00  0.00    +0.028 A 
ATOM     24  C   UNL     1      -3.685   5.160  24.578  0.00  0.00    +0.005 A 
ATOM     25  C   UNL     1      -3.768   4.888  23.211  0.00  0.00    +0.002 A 
ATOM     27  C   UNL     1      -3.630   4.468  26.975  0.00  0.00    +0.046 C 
ATOM     31  H   UNL     1      -4.112   0.674  22.735  0.00  0.00    +0.167 HD
ENDBRANCH  14  18
ENDBRANCH   9  14
TORSDOF 7
ENDMDL
MODEL 5
REMARK VINA RESULT:      -2.3      1.539      2.398
REMARK  Name = 71693153
REMARK  12 active torsions:
REMARK  status: ('A' for Active; 'I' for Inactive)
REMARK    1  A    between atoms: N_2  and  C_13
REMARK    2  A    between atoms: N_5  and  C_26
REMARK    3  A    between atoms: C_6  and  C_10
REMARK    4  A    between atoms: C_7  and  C_13
REMARK    5  A    between atoms: C_9  and  C_14
REMARK    6  A    between atoms: C_10  and  C_15
REMARK    7  A    between atoms: C_10  and  C_16
REMARK    8  A    between atoms: C_11  and  C_17
REMARK    9  A    between atoms: C_14  and  C_18
REMARK   10  A    between atoms: C_22  and  C_27
REMARK   11  A    between atoms: C_26  and  C_28
REMARK   12  A    between atoms: C_28  and  C_29
REMARK                            x       y       z     vdW  Elec       q    Type
REMARK                         _______ _______ _______ _____ _____    ______ ____
ROOT
ATOM      6  C   UNL     1      -1.549   3.935  24.641  0.00  0.00    +0.000 C 
ATOM      7  C   UNL     1      -1.673   3.401  26.090  0.00  0.00    +0.032 C 
ATOM      8  C   UNL     1      -2.922   4.379  24.113  0.00  0.00    +0.012 C 
ATOM      9  C   UNL     1      -3.950   3.233  24.125  0.00  0.00    +0.022 C 
ATOM     11  C   UNL     1      -3.942   2.482  25.441  0.00  0.00    -0.073 C 
ATOM     12  C   UNL     1      -2.921   2.581  26.313  0.00  0.00    -0.022 C 
ATOM     17  C   UNL     1      -5.154   1.651  25.755  0.00  0.00    +0.039 C 
ENDROOT
BRANCH   6  10
ATOM     10  C   UNL     1      -0.555   5.096  24.545  0.00  0.00    -0.013 C 
ATOM     15  C   UNL     1       0.060   5.157  23.150  0.00  0.00    +0.007 C 
ATOM     16  C   UNL     1      -1.242   6.413  24.891  0.00  0.00    +0.007 C 
ENDBRANCH   6  10
BRANCH   7  13
ATOM     13  C   UNL     1      -0.442   2.576  26.483  0.00  0.00    +0.113 C 
BRANCH  13   2
ATOM      1  O   UNL     1       1.348   2.524  24.220  0.00  0.00    -0.253 OA
ATOM      2  N   UNL     1      -0.243   1.496  25.569  0.00  0.00    -0.299 N 
ATOM      5  N   UNL     1       0.646   0.360  23.761  0.00  0.00    -0.299 N 
ATOM     19  C   UNL     1       0.649   1.548  24.489  0.00  0.00    +0.300 C 
ATOM     30  H   UNL     1      -0.722   0.618  25.742  0.00  0.00    +0.150 HD
ATOM     32  H   UNL     1       0.028  -0.390  24.053  0.00  0.00    +0.150 HD
BRANCH   5  26
ATOM     26  C   UNL     1       1.477   0.153  22.598  0.00  0.00    +0.105 C 
BRANCH  26  28
ATOM     28  C   UNL     1       2.893  -0.273  22.965  0.00  0.00    +0.015 C 
ATOM     29  C   UNL     1       3.924   0.813  22.691  0.00  0.00    +0.005 C 
ENDBRANCH  26  28
ENDBRANCH   5  26
ENDBRANCH  13   2
ENDBRANCH   7  13
BRANCH   9  14
ATOM     14  C   UNL     1      -3.726   2.278  22.948  0.00  0.00    +0.082 C 
BRANCH  14  18
ATOM      3  N   UNL     1      -4.445  -0.098  23.267  0.00  0.00    -0.342 N 
ATOM      4  N   UNL     1      -2.410   0.407  24.002  0.00  0.00    -0.232 NA
ATOM     18  C   UNL     1      -3.492   0.870  23.419  0.00  0.00    +0.109 A 
ATOM     20  C   UNL     1      -3.945  -1.263  23.786  0.00  0.00    +0.066 A 
ATOM     21  C   UNL     1      -2.673  -0.922  24.240  0.00  0.00    +0.092 A 
ATOM     22  C   UNL     1      -1.873  -1.909  24.840  0.00  0.00    -0.023 A 
ATOM     23  C   UNL     1      -4.479  -2.548  23.896  0.00  0.00    +0.028 A 
ATOM     24  C   UNL     1      -2.389  -3.206  24.961  0.00  0.00    +0.005 A 
ATOM     25  C   UNL     1      -3.669  -3.517  24.496  0.00  0.00    +0.002 A 
ATOM     27  C   UNL     1      -0.498  -1.626  25.352  0.00  0.00    +0.046 C 
ATOM     31  H   UNL     1      -5.357   0.022  22.846  0.00  0.00    +0.167 HD
ENDBRANCH  14  18
ENDBRANCH   9  14
TORSDOF 7
ENDMDL
MODEL 6
REMARK VINA RESULT:      -1.8      2.275      2.844
REMARK  Name = 71693153
REMARK  12 active torsions:
REMARK  status: ('A' for Active; 'I' for Inactive)
REMARK    1  A    between atoms: N_2  and  C_13
REMARK    2  A    between atoms: N_5  and  C_26
REMARK    3  A    between atoms: C_6  and  C_10
REMARK    4  A    between atoms: C_7  and  C_13
REMARK    5  A    between atoms: C_9  and  C_14
REMARK    6  A    between atoms: C_10  and  C_15
REMARK    7  A    between atoms: C_10  and  C_16
REMARK    8  A    between atoms: C_11  and  C_17
REMARK    9  A    between atoms: C_14  and  C_18
REMARK   10  A    between atoms: C_22  and  C_27
REMARK   11  A    between atoms: C_26  and  C_28
REMARK   12  A    between atoms: C_28  and  C_29
REMARK                            x       y       z     vdW  Elec       q    Type
REMARK                         _______ _______ _______ _____ _____    ______ ____
ROOT
ATOM      6  C   UNL     1      -2.645   2.345  23.584  0.00  0.00    +0.000 C 
ATOM      7  C   UNL     1      -1.474   3.054  24.309  0.00  0.00    +0.032 C 
ATOM      8  C   UNL     1      -3.894   3.239  23.581  0.00  0.00    +0.012 C 
ATOM      9  C   UNL     1      -4.352   3.606  25.005  0.00  0.00    +0.022 C 
ATOM     11  C   UNL     1      -3.195   4.064  25.868  0.00  0.00    -0.073 C 
ATOM     12  C   UNL     1      -1.914   3.820  25.534  0.00  0.00    -0.022 C 
ATOM     17  C   UNL     1      -3.540   4.850  27.103  0.00  0.00    +0.039 C 
ENDROOT
BRANCH   6  10
ATOM     10  C   UNL     1      -2.276   1.963  22.148  0.00  0.00    -0.013 C 
ATOM     15  C   UNL     1      -2.466   0.464  21.930  0.00  0.00    +0.007 C 
ATOM     16  C   UNL     1      -3.110   2.763  21.153  0.00  0.00    +0.007 C 
ENDBRANCH   6  10
BRANCH   7  13
ATOM     13  C   UNL     1      -0.378   2.055  24.699  0.00  0.00    +0.113 C 
BRANCH  13   2
ATOM      1  O   UNL     1       1.165   3.414  26.724  0.00  0.00    -0.253 OA
ATOM      2  N   UNL     1      -0.396   1.806  26.106  0.00  0.00    -0.299 N 
ATOM      5  N   UNL     1       0.174   2.067  28.332  0.00  0.00    -0.299 N 
ATOM     19  C   UNL     1       0.387   2.511  27.029  0.00  0.00    +0.300 C 
ATOM     30  H   UNL     1      -1.056   1.127  26.470  0.00  0.00    +0.150 HD
ATOM     32  H   UNL     1      -0.483   1.308  28.487  0.00  0.00    +0.150 HD
BRANCH   5  26
ATOM     26  C   UNL     1       0.857   2.629  29.473  0.00  0.00    +0.105 C 
BRANCH  26  28
ATOM     28  C   UNL     1       2.252   2.045  29.660  0.00  0.00    +0.015 C 
ATOM     29  C   UNL     1       3.331   2.867  28.970  0.00  0.00    +0.005 C 
ENDBRANCH  26  28
ENDBRANCH   5  26
ENDBRANCH  13   2
ENDBRANCH   7  13
BRANCH   9  14
ATOM     14  C   UNL     1      -5.099   2.441  25.662  0.00  0.00    +0.082 C 
BRANCH  14  18
ATOM      3  N   UNL     1      -5.123   0.208  24.532  0.00  0.00    -0.342 N 
ATOM      4  N   UNL     1      -3.289   0.690  25.689  0.00  0.00    -0.232 NA
ATOM     18  C   UNL     1      -4.472   1.120  25.315  0.00  0.00    +0.109 A 
ATOM     20  C   UNL     1      -4.306  -0.884  24.393  0.00  0.00    +0.066 A 
ATOM     21  C   UNL     1      -3.167  -0.559  25.125  0.00  0.00    +0.092 A 
ATOM     22  C   UNL     1      -2.109  -1.481  25.190  0.00  0.00    -0.023 A 
ATOM     23  C   UNL     1      -4.461  -2.091  23.710  0.00  0.00    +0.028 A 
ATOM     24  C   UNL     1      -2.243  -2.701  24.513  0.00  0.00    +0.005 A 
ATOM     25  C   UNL     1      -3.398  -2.998  23.787  0.00  0.00    +0.002 A 
ATOM     27  C   UNL     1      -0.853  -1.210  25.952  0.00  0.00    +0.046 C 
ATOM     31  H   UNL     1      -6.044   0.317  24.127  0.00  0.00    +0.167 HD
ENDBRANCH  14  18
ENDBRANCH   9  14
TORSDOF 7
ENDMDL
