MODEL 1
REMARK VINA RESULT:       6.9      0.000      0.000
REMARK  Name = 40777108
REMARK  9 active torsions:
REMARK  status: ('A' for Active; 'I' for Inactive)
REMARK    1  A    between atoms: N_4  and  C_15
REMARK    2  A    between atoms: N_7  and  C_32
REMARK    3  A    between atoms: N_7  and  C_34
REMARK    4  A    between atoms: N_7  and  C_35
REMARK    5  A    between atoms: C_9  and  C_16
REMARK    6  A    between atoms: C_10  and  C_15
REMARK    7  A    between atoms: C_18  and  C_21
REMARK    8  A    between atoms: C_19  and  C_23
REMARK    9  A    between atoms: C_20  and  C_22
REMARK                            x       y       z     vdW  Elec       q    Type
REMARK                         _______ _______ _______ _____ _____    ______ ____
ROOT
ATOM      3  N   UNL     1      -3.048  -2.463  23.856  0.00  0.00    -0.297 NA
ATOM      8  C   UNL     1      -2.885  -1.342  26.202  0.00  0.00    +0.002 C 
ATOM      9  C   UNL     1      -4.057  -0.729  25.386  0.00  0.00    +0.055 C 
ATOM     10  C   UNL     1      -1.649  -2.031  24.118  0.00  0.00    +0.074 C 
ATOM     11  C   UNL     1      -1.573  -1.184  25.406  0.00  0.00    +0.024 C 
ATOM     12  C   UNL     1      -3.167  -2.856  26.316  0.00  0.00    +0.019 C 
ATOM     13  C   UNL     1      -3.964  -1.297  23.942  0.00  0.00    +0.094 C 
ATOM     14  C   UNL     1      -3.430  -3.429  24.913  0.00  0.00    +0.085 C 
ENDROOT
BRANCH   9  16
ATOM      5  N   UNL     1      -5.477   1.250  25.614  0.00  0.00    -0.237 NA
ATOM      6  N   UNL     1      -4.600   3.487  25.437  0.00  0.00    -0.232 NA
ATOM     16  C   UNL     1      -4.229   0.784  25.402  0.00  0.00    +0.050 A 
ATOM     17  C   UNL     1      -3.130   1.595  25.201  0.00  0.00    +0.052 A 
ATOM     18  C   UNL     1      -3.378   2.952  25.229  0.00  0.00    +0.076 A 
ATOM     19  C   UNL     1      -5.588   2.591  25.619  0.00  0.00    +0.127 A 
ATOM     23  C   UNL     1      -6.954   3.145  25.850  0.00  0.00    +0.088 C 
BRANCH  18  21
ATOM      1 BR   UNL     1      -0.436   1.705  25.101  0.00  0.00    -0.050 Br
ATOM     21  C   UNL     1      -2.315   3.908  25.031  0.00  0.00    +0.014 A 
ATOM     24  C   UNL     1      -0.977   3.520  24.953  0.00  0.00    +0.027 A 
ATOM     25  C   UNL     1      -2.659   5.255  24.917  0.00  0.00    +0.011 A 
ATOM     28  C   UNL     1       0.017   4.481  24.761  0.00  0.00    +0.016 A 
ATOM     29  C   UNL     1      -1.666   6.214  24.724  0.00  0.00    +0.001 A 
ATOM     33  C   UNL     1      -0.327   5.827  24.645  0.00  0.00    +0.001 A 
ENDBRANCH  18  21
ENDBRANCH   9  16
BRANCH  10  15
ATOM     15  C   UNL     1      -1.030  -1.305  22.920  0.00  0.00    +0.123 C 
BRANCH  15   4
ATOM      2  O   UNL     1       0.948  -0.538  20.986  0.00  0.00    -0.270 OA
ATOM      4  N   UNL     1       0.334  -0.961  23.183  0.00  0.00    -0.310 N 
ATOM     20  C   UNL     1       1.230  -0.599  22.180  0.00  0.00    +0.244 C 
ATOM     36  H   UNL     1       0.648  -1.050  24.143  0.00  0.00    +0.149 HD
BRANCH  20  22
ATOM     22  C   UNL     1       2.618  -0.295  22.615  0.00  0.00    +0.037 A 
ATOM     26  C   UNL     1       3.197   0.932  22.292  0.00  0.00    +0.015 A 
ATOM     27  C   UNL     1       3.340  -1.236  23.347  0.00  0.00    +0.015 A 
ATOM     30  C   UNL     1       4.500   1.218  22.701  0.00  0.00    +0.024 A 
ATOM     31  C   UNL     1       4.643  -0.951  23.756  0.00  0.00    +0.024 A 
ATOM     32  C   UNL     1       5.223   0.276  23.433  0.00  0.00    +0.029 A 
BRANCH  32   7
ATOM      7  N   UNL     1       6.540   0.564  23.846  0.00  0.00    -0.336 N 
ATOM     34  C   UNL     1       6.821   1.753  24.626  0.00  0.00    +0.129 C 
ATOM     35  C   UNL     1       7.629  -0.330  23.505  0.00  0.00    +0.129 C 
ENDBRANCH  32   7
ENDBRANCH  20  22
ENDBRANCH  15   4
ENDBRANCH  10  15
TORSDOF 6
ENDMDL
MODEL 2
REMARK VINA RESULT:       9.4      2.431      7.057
REMARK  Name = 40777108
REMARK  9 active torsions:
REMARK  status: ('A' for Active; 'I' for Inactive)
REMARK    1  A    between atoms: N_4  and  C_15
REMARK    2  A    between atoms: N_7  and  C_32
REMARK    3  A    between atoms: N_7  and  C_34
REMARK    4  A    between atoms: N_7  and  C_35
REMARK    5  A    between atoms: C_9  and  C_16
REMARK    6  A    between atoms: C_10  and  C_15
REMARK    7  A    between atoms: C_18  and  C_21
REMARK    8  A    between atoms: C_19  and  C_23
REMARK    9  A    between atoms: C_20  and  C_22
REMARK                            x       y       z     vdW  Elec       q    Type
REMARK                         _______ _______ _______ _____ _____    ______ ____
ROOT
ATOM      3  N   UNL     1      -4.514   4.504  23.941  0.00  0.00    -0.297 NA
ATOM      8  C   UNL     1      -2.342   5.624  24.841  0.00  0.00    +0.002 C 
ATOM      9  C   UNL     1      -1.996   4.364  23.999  0.00  0.00    +0.055 C 
ATOM     10  C   UNL     1      -4.639   4.754  25.401  0.00  0.00    +0.074 C 
ATOM     11  C   UNL     1      -3.291   5.224  25.990  0.00  0.00    +0.024 C 
ATOM     12  C   UNL     1      -3.128   6.577  23.914  0.00  0.00    +0.019 C 
ATOM     13  C   UNL     1      -3.334   3.643  23.671  0.00  0.00    +0.094 C 
ATOM     14  C   UNL     1      -4.296   5.809  23.273  0.00  0.00    +0.085 C 
ENDROOT
BRANCH   9  16
ATOM      5  N   UNL     1      -0.900   3.243  25.876  0.00  0.00    -0.237 NA
ATOM      6  N   UNL     1       0.929   1.705  25.563  0.00  0.00    -0.232 NA
ATOM     16  C   UNL     1      -0.942   3.407  24.538  0.00  0.00    +0.050 A 
ATOM     17  C   UNL     1      -0.093   2.765  23.658  0.00  0.00    +0.052 A 
ATOM     18  C   UNL     1       0.831   1.917  24.234  0.00  0.00    +0.076 A 
ATOM     19  C   UNL     1       0.046   2.390  26.314  0.00  0.00    +0.127 A 
ATOM     23  C   UNL     1       0.124   2.183  27.789  0.00  0.00    +0.088 C 
BRANCH  18  21
ATOM      1 BR   UNL     1      -0.429  -0.405  22.432  0.00  0.00    -0.050 Br
ATOM     21  C   UNL     1       1.777   1.187  23.424  0.00  0.00    +0.014 A 
ATOM     24  C   UNL     1       1.383   0.145  22.585  0.00  0.00    +0.027 A 
ATOM     25  C   UNL     1       3.122   1.551  23.500  0.00  0.00    +0.011 A 
ATOM     28  C   UNL     1       2.334  -0.532  21.821  0.00  0.00    +0.016 A 
ATOM     29  C   UNL     1       4.071   0.875  22.736  0.00  0.00    +0.001 A 
ATOM     33  C   UNL     1       3.678  -0.168  21.896  0.00  0.00    +0.001 A 
ENDBRANCH  18  21
ENDBRANCH   9  16
BRANCH  10  15
ATOM     15  C   UNL     1      -5.199   3.545  26.154  0.00  0.00    +0.123 C 
BRANCH  15   4
ATOM      2  O   UNL     1      -6.145   1.233  24.737  0.00  0.00    -0.270 OA
ATOM      4  N   UNL     1      -4.451   2.364  25.849  0.00  0.00    -0.310 N 
ATOM     20  C   UNL     1      -4.990   1.284  25.154  0.00  0.00    +0.244 C 
ATOM     36  H   UNL     1      -3.507   2.315  26.218  0.00  0.00    +0.149 HD
BRANCH  20  22
ATOM     22  C   UNL     1      -4.089   0.122  24.940  0.00  0.00    +0.037 A 
ATOM     26  C   UNL     1      -4.546  -0.995  24.240  0.00  0.00    +0.015 A 
ATOM     27  C   UNL     1      -2.787   0.149  25.437  0.00  0.00    +0.015 A 
ATOM     30  C   UNL     1      -3.700  -2.086  24.038  0.00  0.00    +0.024 A 
ATOM     31  C   UNL     1      -1.941  -0.942  25.236  0.00  0.00    +0.024 A 
ATOM     32  C   UNL     1      -2.398  -2.059  24.536  0.00  0.00    +0.029 A 
BRANCH  32   7
ATOM      7  N   UNL     1      -1.542  -3.161  24.333  0.00  0.00    -0.336 N 
ATOM     34  C   UNL     1      -1.822  -4.124  23.286  0.00  0.00    +0.129 C 
ATOM     35  C   UNL     1      -0.368  -3.342  25.163  0.00  0.00    +0.129 C 
ENDBRANCH  32   7
ENDBRANCH  20  22
ENDBRANCH  15   4
ENDBRANCH  10  15
TORSDOF 6
ENDMDL
