MODEL 1
REMARK VINA RESULT:      -5.3      0.000      0.000
REMARK  Name = 75536641
REMARK  9 active torsions:
REMARK  status: ('A' for Active; 'I' for Inactive)
REMARK    1  A    between atoms: O_3  and  C_9
REMARK    2  A    between atoms: O_5  and  C_21
REMARK    3  A    between atoms: O_5  and  C_27
REMARK    4  A    between atoms: N_6  and  C_8
REMARK    5  A    between atoms: N_6  and  C_13
REMARK    6  A    between atoms: N_7  and  C_12
REMARK    7  A    between atoms: C_10  and  C_12
REMARK    8  A    between atoms: C_13  and  C_14
REMARK    9  A    between atoms: C_15  and  C_18
REMARK                            x       y       z     vdW  Elec       q    Type
REMARK                         _______ _______ _______ _____ _____    ______ ____
ROOT
ATOM      2  O   UNL     1      -1.925  -0.648  25.844  0.00  0.00    -0.371 OA
ATOM      8  C   UNL     1      -3.865  -1.503  24.789  0.00  0.00    +0.111 C 
ATOM      9  C   UNL     1      -2.653  -2.108  24.101  0.00  0.00    +0.164 C 
ATOM     10  C   UNL     1      -1.458  -1.352  24.679  0.00  0.00    +0.165 C 
ATOM     11  C   UNL     1      -3.275  -1.046  26.114  0.00  0.00    +0.181 C 
ENDROOT
BRANCH   9   3
ATOM      3  O   UNL     1      -2.571  -3.481  24.493  0.00  0.00    -0.388 OA
ATOM     29  H   UNL     1      -2.287  -3.988  23.714  0.00  0.00    +0.210 HD
ENDBRANCH   9   3
BRANCH   8   6
ATOM      6  N   UNL     1      -4.397  -0.366  24.040  0.00  0.00    -0.305 NA
ATOM     28  H   UNL     1      -3.637   0.086  23.532  0.00  0.00    +0.123 HD
BRANCH   6  13
ATOM     13  C   UNL     1      -5.002   0.614  24.934  0.00  0.00    +0.116 C 
BRANCH  13  14
ATOM     14  C   UNL     1      -4.166   1.861  25.047  0.00  0.00    -0.033 A 
ATOM     16  C   UNL     1      -3.013   2.000  24.273  0.00  0.00    +0.008 A 
ATOM     17  C   UNL     1      -4.542   2.876  25.926  0.00  0.00    +0.008 A 
ATOM     19  C   UNL     1      -2.238   3.155  24.378  0.00  0.00    +0.046 A 
ATOM     20  C   UNL     1      -3.767   4.031  26.031  0.00  0.00    +0.046 A 
ATOM     21  C   UNL     1      -2.615   4.170  25.257  0.00  0.00    +0.120 A 
BRANCH  21   5
ATOM      5  O   UNL     1      -1.858   5.297  25.360  0.00  0.00    -0.495 OA
ATOM     27  C   UNL     1      -0.610   5.306  24.668  0.00  0.00    +0.277 C 
ENDBRANCH  21   5
ENDBRANCH  13  14
ENDBRANCH   6  13
ENDBRANCH   8   6
BRANCH  10  12
ATOM     12  C   UNL     1      -0.857  -0.339  23.716  0.00  0.00    +0.138 C 
BRANCH  12   7
ATOM      4  O   UNL     1       1.066  -0.287  21.584  0.00  0.00    -0.270 OA
ATOM      7  N   UNL     1       0.571  -0.276  23.850  0.00  0.00    -0.309 N 
ATOM     15  C   UNL     1       1.430  -0.254  22.757  0.00  0.00    +0.244 C 
ATOM     30  H   UNL     1       0.942  -0.330  24.794  0.00  0.00    +0.149 HD
BRANCH  15  18
ATOM      1  F   UNL     1       6.922  -0.109  23.915  0.00  0.00    -0.205 F 
ATOM     18  C   UNL     1       2.883  -0.216  23.064  0.00  0.00    +0.037 A 
ATOM     22  C   UNL     1       3.505  -1.327  23.634  0.00  0.00    +0.016 A 
ATOM     23  C   UNL     1       3.626   0.931  22.782  0.00  0.00    +0.016 A 
ATOM     24  C   UNL     1       4.869  -1.291  23.922  0.00  0.00    +0.039 A 
ATOM     25  C   UNL     1       4.989   0.967  23.070  0.00  0.00    +0.039 A 
ATOM     26  C   UNL     1       5.612  -0.144  23.640  0.00  0.00    +0.123 A 
ENDBRANCH  15  18
ENDBRANCH  12   7
ENDBRANCH  10  12
TORSDOF 8
ENDMDL
MODEL 2
REMARK VINA RESULT:      -5.0      2.609      5.851
REMARK  Name = 75536641
REMARK  9 active torsions:
REMARK  status: ('A' for Active; 'I' for Inactive)
REMARK    1  A    between atoms: O_3  and  C_9
REMARK    2  A    between atoms: O_5  and  C_21
REMARK    3  A    between atoms: O_5  and  C_27
REMARK    4  A    between atoms: N_6  and  C_8
REMARK    5  A    between atoms: N_6  and  C_13
REMARK    6  A    between atoms: N_7  and  C_12
REMARK    7  A    between atoms: C_10  and  C_12
REMARK    8  A    between atoms: C_13  and  C_14
REMARK    9  A    between atoms: C_15  and  C_18
REMARK                            x       y       z     vdW  Elec       q    Type
REMARK                         _______ _______ _______ _____ _____    ______ ____
ROOT
ATOM      2  O   UNL     1      -4.693   2.763  26.825  0.00  0.00    -0.371 OA
ATOM      8  C   UNL     1      -4.304   4.621  25.410  0.00  0.00    +0.111 C 
ATOM      9  C   UNL     1      -5.708   4.110  25.135  0.00  0.00    +0.164 C 
ATOM     10  C   UNL     1      -5.805   2.797  25.910  0.00  0.00    +0.165 C 
ATOM     11  C   UNL     1      -4.019   4.026  26.779  0.00  0.00    +0.181 C 
ENDROOT
BRANCH   9   3
ATOM      3  O   UNL     1      -6.630   5.051  25.691  0.00  0.00    -0.388 OA
ATOM     29  H   UNL     1      -6.164   5.529  26.398  0.00  0.00    +0.210 HD
ENDBRANCH   9   3
BRANCH   8   6
ATOM      6  N   UNL     1      -3.348   4.126  24.422  0.00  0.00    -0.305 NA
ATOM     28  H   UNL     1      -3.624   3.189  24.128  0.00  0.00    +0.123 HD
BRANCH   6  13
ATOM     13  C   UNL     1      -2.003   4.057  24.982  0.00  0.00    +0.116 C 
BRANCH  13  14
ATOM     14  C   UNL     1      -1.216   2.908  24.410  0.00  0.00    -0.033 A 
ATOM     16  C   UNL     1       0.054   2.616  24.909  0.00  0.00    +0.008 A 
ATOM     17  C   UNL     1      -1.755   2.136  23.381  0.00  0.00    +0.008 A 
ATOM     19  C   UNL     1       0.784   1.552  24.380  0.00  0.00    +0.046 A 
ATOM     20  C   UNL     1      -1.024   1.073  22.851  0.00  0.00    +0.046 A 
ATOM     21  C   UNL     1       0.245   0.781  23.351  0.00  0.00    +0.120 A 
BRANCH  21   5
ATOM      5  O   UNL     1       0.957  -0.256  22.832  0.00  0.00    -0.495 OA
ATOM     27  C   UNL     1       2.315   0.004  22.474  0.00  0.00    +0.277 C 
ENDBRANCH  21   5
ENDBRANCH  13  14
ENDBRANCH   6  13
ENDBRANCH   8   6
BRANCH  10  12
ATOM     12  C   UNL     1      -5.735   1.561  25.026  0.00  0.00    +0.138 C 
BRANCH  12   7
ATOM      4  O   UNL     1      -5.074  -1.048  24.028  0.00  0.00    -0.270 OA
ATOM      7  N   UNL     1      -4.490   0.869  25.196  0.00  0.00    -0.309 N 
ATOM     15  C   UNL     1      -4.256  -0.400  24.675  0.00  0.00    +0.244 C 
ATOM     30  H   UNL     1      -3.799   1.314  25.792  0.00  0.00    +0.149 HD
BRANCH  15  18
ATOM      1  F   UNL     1       0.779  -2.635  25.758  0.00  0.00    -0.205 F 
ATOM     18  C   UNL     1      -2.924  -0.992  24.962  0.00  0.00    +0.037 A 
ATOM     22  C   UNL     1      -2.480  -2.096  24.234  0.00  0.00    +0.016 A 
ATOM     23  C   UNL     1      -2.116  -0.443  25.958  0.00  0.00    +0.016 A 
ATOM     24  C   UNL     1      -1.229  -2.652  24.503  0.00  0.00    +0.039 A 
ATOM     25  C   UNL     1      -0.866  -0.999  26.227  0.00  0.00    +0.039 A 
ATOM     26  C   UNL     1      -0.422  -2.103  25.500  0.00  0.00    +0.123 A 
ENDBRANCH  15  18
ENDBRANCH  12   7
ENDBRANCH  10  12
TORSDOF 8
ENDMDL
MODEL 3
REMARK VINA RESULT:      -4.5      3.109      6.864
REMARK  Name = 75536641
REMARK  9 active torsions:
REMARK  status: ('A' for Active; 'I' for Inactive)
REMARK    1  A    between atoms: O_3  and  C_9
REMARK    2  A    between atoms: O_5  and  C_21
REMARK    3  A    between atoms: O_5  and  C_27
REMARK    4  A    between atoms: N_6  and  C_8
REMARK    5  A    between atoms: N_6  and  C_13
REMARK    6  A    between atoms: N_7  and  C_12
REMARK    7  A    between atoms: C_10  and  C_12
REMARK    8  A    between atoms: C_13  and  C_14
REMARK    9  A    between atoms: C_15  and  C_18
REMARK                            x       y       z     vdW  Elec       q    Type
REMARK                         _______ _______ _______ _____ _____    ______ ____
ROOT
ATOM      2  O   UNL     1      -4.285   4.388  25.595  0.00  0.00    -0.371 OA
ATOM      8  C   UNL     1      -2.092   3.660  26.109  0.00  0.00    +0.111 C 
ATOM      9  C   UNL     1      -2.050   4.353  24.758  0.00  0.00    +0.164 C 
ATOM     10  C   UNL     1      -3.515   4.594  24.397  0.00  0.00    +0.165 C 
ATOM     11  C   UNL     1      -3.387   4.198  26.695  0.00  0.00    +0.181 C 
ENDROOT
BRANCH   9   3
ATOM      3  O   UNL     1      -1.399   5.614  24.936  0.00  0.00    -0.388 OA
ATOM     29  H   UNL     1      -2.092   6.295  24.971  0.00  0.00    +0.210 HD
ENDBRANCH   9   3
BRANCH   8   6
ATOM      6  N   UNL     1      -2.153   2.206  25.966  0.00  0.00    -0.305 NA
ATOM     28  H   UNL     1      -2.869   1.838  26.592  0.00  0.00    +0.123 HD
BRANCH   6  13
ATOM     13  C   UNL     1      -0.876   1.592  26.312  0.00  0.00    +0.116 C 
BRANCH  13  14
ATOM     14  C   UNL     1      -0.150   1.086  25.095  0.00  0.00    -0.033 A 
ATOM     16  C   UNL     1      -0.421  -0.190  24.601  0.00  0.00    +0.008 A 
ATOM     17  C   UNL     1       0.795   1.893  24.461  0.00  0.00    +0.008 A 
ATOM     19  C   UNL     1       0.253  -0.659  23.472  0.00  0.00    +0.046 A 
ATOM     20  C   UNL     1       1.470   1.423  23.333  0.00  0.00    +0.046 A 
ATOM     21  C   UNL     1       1.198   0.147  22.839  0.00  0.00    +0.120 A 
BRANCH  21   5
ATOM      5  O   UNL     1       1.856  -0.310  21.740  0.00  0.00    -0.495 OA
ATOM     27  C   UNL     1       3.226   0.066  21.601  0.00  0.00    +0.277 C 
ENDBRANCH  21   5
ENDBRANCH  13  14
ENDBRANCH   6  13
ENDBRANCH   8   6
BRANCH  10  12
ATOM     12  C   UNL     1      -4.039   3.653  23.323  0.00  0.00    +0.138 C 
BRANCH  12   7
ATOM      4  O   UNL     1      -5.838   1.845  24.641  0.00  0.00    -0.270 OA
ATOM      7  N   UNL     1      -3.782   2.282  23.660  0.00  0.00    -0.309 N 
ATOM     15  C   UNL     1      -4.716   1.476  24.301  0.00  0.00    +0.244 C 
ATOM     30  H   UNL     1      -2.843   1.939  23.482  0.00  0.00    +0.149 HD
BRANCH  15  18
ATOM      1  F   UNL     1      -3.088  -3.772  25.452  0.00  0.00    -0.205 F 
ATOM     18  C   UNL     1      -4.287   0.087  24.606  0.00  0.00    +0.037 A 
ATOM     22  C   UNL     1      -4.257  -0.872  23.593  0.00  0.00    +0.016 A 
ATOM     23  C   UNL     1      -3.911  -0.259  25.904  0.00  0.00    +0.016 A 
ATOM     24  C   UNL     1      -3.852  -2.176  23.878  0.00  0.00    +0.039 A 
ATOM     25  C   UNL     1      -3.507  -1.562  26.190  0.00  0.00    +0.039 A 
ATOM     26  C   UNL     1      -3.477  -2.521  25.177  0.00  0.00    +0.123 A 
ENDBRANCH  15  18
ENDBRANCH  12   7
ENDBRANCH  10  12
TORSDOF 8
ENDMDL
MODEL 4
REMARK VINA RESULT:      -4.0      1.553      4.118
REMARK  Name = 75536641
REMARK  9 active torsions:
REMARK  status: ('A' for Active; 'I' for Inactive)
REMARK    1  A    between atoms: O_3  and  C_9
REMARK    2  A    between atoms: O_5  and  C_21
REMARK    3  A    between atoms: O_5  and  C_27
REMARK    4  A    between atoms: N_6  and  C_8
REMARK    5  A    between atoms: N_6  and  C_13
REMARK    6  A    between atoms: N_7  and  C_12
REMARK    7  A    between atoms: C_10  and  C_12
REMARK    8  A    between atoms: C_13  and  C_14
REMARK    9  A    between atoms: C_15  and  C_18
REMARK                            x       y       z     vdW  Elec       q    Type
REMARK                         _______ _______ _______ _____ _____    ______ ____
ROOT
ATOM      2  O   UNL     1      -0.340   4.333  24.673  0.00  0.00    -0.371 OA
ATOM      8  C   UNL     1      -2.619   4.351  25.314  0.00  0.00    +0.111 C 
ATOM      9  C   UNL     1      -1.962   3.141  25.957  0.00  0.00    +0.164 C 
ATOM     10  C   UNL     1      -0.571   3.072  25.329  0.00  0.00    +0.165 C 
ATOM     11  C   UNL     1      -1.417   5.223  24.991  0.00  0.00    +0.181 C 
ENDROOT
BRANCH   9   3
ATOM      3  O   UNL     1      -1.831   3.410  27.355  0.00  0.00    -0.388 OA
ATOM     29  H   UNL     1      -1.757   2.553  27.809  0.00  0.00    +0.210 HD
ENDBRANCH   9   3
BRANCH   8   6
ATOM      6  N   UNL     1      -3.338   3.988  24.095  0.00  0.00    -0.305 NA
ATOM     28  H   UNL     1      -3.646   4.838  23.622  0.00  0.00    +0.123 HD
BRANCH   6  13
ATOM     13  C   UNL     1      -4.512   3.178  24.399  0.00  0.00    +0.116 C 
BRANCH  13  14
ATOM     14  C   UNL     1      -4.205   1.705  24.345  0.00  0.00    -0.033 A 
ATOM     16  C   UNL     1      -3.489   1.181  23.268  0.00  0.00    +0.008 A 
ATOM     17  C   UNL     1      -4.637   0.864  25.370  0.00  0.00    +0.008 A 
ATOM     19  C   UNL     1      -3.205  -0.184  23.218  0.00  0.00    +0.046 A 
ATOM     20  C   UNL     1      -4.354  -0.501  25.320  0.00  0.00    +0.046 A 
ATOM     21  C   UNL     1      -3.638  -1.024  24.243  0.00  0.00    +0.120 A 
BRANCH  21   5
ATOM      5  O   UNL     1      -3.363  -2.356  24.194  0.00  0.00    -0.495 OA
ATOM     27  C   UNL     1      -2.017  -2.751  24.461  0.00  0.00    +0.277 C 
ENDBRANCH  21   5
ENDBRANCH  13  14
ENDBRANCH   6  13
ENDBRANCH   8   6
BRANCH  10  12
ATOM     12  C   UNL     1      -0.424   1.963  24.299  0.00  0.00    +0.138 C 
BRANCH  12   7
ATOM      4  O   UNL     1       0.572  -0.252  22.767  0.00  0.00    -0.270 OA
ATOM      7  N   UNL     1       0.950   1.580  24.139  0.00  0.00    -0.309 N 
ATOM     15  C   UNL     1       1.343   0.486  23.374  0.00  0.00    +0.244 C 
ATOM     30  H   UNL     1       1.633   2.099  24.682  0.00  0.00    +0.149 HD
BRANCH  15  18
ATOM      1  F   UNL     1       6.854  -0.574  23.208  0.00  0.00    -0.205 F 
ATOM     18  C   UNL     1       2.801   0.206  23.331  0.00  0.00    +0.037 A 
ATOM     22  C   UNL     1       3.283  -1.044  23.720  0.00  0.00    +0.016 A 
ATOM     23  C   UNL     1       3.689   1.192  22.900  0.00  0.00    +0.016 A 
ATOM     24  C   UNL     1       4.652  -1.308  23.679  0.00  0.00    +0.039 A 
ATOM     25  C   UNL     1       5.058   0.928  22.859  0.00  0.00    +0.039 A 
ATOM     26  C   UNL     1       5.540  -0.321  23.248  0.00  0.00    +0.123 A 
ENDBRANCH  15  18
ENDBRANCH  12   7
ENDBRANCH  10  12
TORSDOF 8
ENDMDL
MODEL 5
REMARK VINA RESULT:      -3.9      3.637      6.353
REMARK  Name = 75536641
REMARK  9 active torsions:
REMARK  status: ('A' for Active; 'I' for Inactive)
REMARK    1  A    between atoms: O_3  and  C_9
REMARK    2  A    between atoms: O_5  and  C_21
REMARK    3  A    between atoms: O_5  and  C_27
REMARK    4  A    between atoms: N_6  and  C_8
REMARK    5  A    between atoms: N_6  and  C_13
REMARK    6  A    between atoms: N_7  and  C_12
REMARK    7  A    between atoms: C_10  and  C_12
REMARK    8  A    between atoms: C_13  and  C_14
REMARK    9  A    between atoms: C_15  and  C_18
REMARK                            x       y       z     vdW  Elec       q    Type
REMARK                         _______ _______ _______ _____ _____    ______ ____
ROOT
ATOM      2  O   UNL     1      -1.975  -3.239  24.431  0.00  0.00    -0.371 OA
ATOM      8  C   UNL     1      -0.594  -1.413  25.035  0.00  0.00    +0.111 C 
ATOM      9  C   UNL     1      -1.961  -1.192  25.660  0.00  0.00    +0.164 C 
ATOM     10  C   UNL     1      -2.848  -2.278  25.053  0.00  0.00    +0.165 C 
ATOM     11  C   UNL     1      -0.619  -2.907  24.752  0.00  0.00    +0.181 C 
ENDROOT
BRANCH   9   3
ATOM      3  O   UNL     1      -1.838  -1.420  27.066  0.00  0.00    -0.388 OA
ATOM     29  H   UNL     1      -1.145  -2.092  27.190  0.00  0.00    +0.210 HD
ENDBRANCH   9   3
BRANCH   8   6
ATOM      6  N   UNL     1      -0.440  -0.654  23.795  0.00  0.00    -0.305 NA
ATOM     28  H   UNL     1      -0.144  -1.285  23.050  0.00  0.00    +0.123 HD
BRANCH   6  13
ATOM     13  C   UNL     1       0.566   0.391  23.942  0.00  0.00    +0.116 C 
BRANCH  13  14
ATOM     14  C   UNL     1      -0.036   1.685  24.420  0.00  0.00    -0.033 A 
ATOM     16  C   UNL     1      -0.572   1.772  25.705  0.00  0.00    +0.008 A 
ATOM     17  C   UNL     1      -0.059   2.797  23.578  0.00  0.00    +0.008 A 
ATOM     19  C   UNL     1      -1.130   2.972  26.148  0.00  0.00    +0.046 A 
ATOM     20  C   UNL     1      -0.618   3.996  24.021  0.00  0.00    +0.046 A 
ATOM     21  C   UNL     1      -1.153   4.083  25.307  0.00  0.00    +0.120 A 
BRANCH  21   5
ATOM      5  O   UNL     1      -1.698   5.252  25.738  0.00  0.00    -0.495 OA
ATOM     27  C   UNL     1      -1.719   6.339  24.812  0.00  0.00    +0.277 C 
ENDBRANCH  21   5
ENDBRANCH  13  14
ENDBRANCH   6  13
ENDBRANCH   8   6
BRANCH  10  12
ATOM     12  C   UNL     1      -3.814  -1.757  24.000  0.00  0.00    +0.138 C 
BRANCH  12   7
ATOM      4  O   UNL     1      -2.918   0.817  23.098  0.00  0.00    -0.270 OA
ATOM      7  N   UNL     1      -4.355  -0.481  24.375  0.00  0.00    -0.309 N 
ATOM     15  C   UNL     1      -3.855   0.722  23.886  0.00  0.00    +0.244 C 
ATOM     30  H   UNL     1      -5.077  -0.485  25.088  0.00  0.00    +0.149 HD
BRANCH  15  18
ATOM      1  F   UNL     1      -6.315   5.391  25.801  0.00  0.00    -0.205 F 
ATOM     18  C   UNL     1      -4.507   1.957  24.392  0.00  0.00    +0.037 A 
ATOM     22  C   UNL     1      -5.498   1.872  25.370  0.00  0.00    +0.016 A 
ATOM     23  C   UNL     1      -4.127   3.202  23.891  0.00  0.00    +0.016 A 
ATOM     24  C   UNL     1      -6.109   3.032  25.846  0.00  0.00    +0.039 A 
ATOM     25  C   UNL     1      -4.737   4.361  24.367  0.00  0.00    +0.039 A 
ATOM     26  C   UNL     1      -5.729   4.277  25.344  0.00  0.00    +0.123 A 
ENDBRANCH  15  18
ENDBRANCH  12   7
ENDBRANCH  10  12
TORSDOF 8
ENDMDL
MODEL 6
REMARK VINA RESULT:      -3.8      2.501      5.296
REMARK  Name = 75536641
REMARK  9 active torsions:
REMARK  status: ('A' for Active; 'I' for Inactive)
REMARK    1  A    between atoms: O_3  and  C_9
REMARK    2  A    between atoms: O_5  and  C_21
REMARK    3  A    between atoms: O_5  and  C_27
REMARK    4  A    between atoms: N_6  and  C_8
REMARK    5  A    between atoms: N_6  and  C_13
REMARK    6  A    between atoms: N_7  and  C_12
REMARK    7  A    between atoms: C_10  and  C_12
REMARK    8  A    between atoms: C_13  and  C_14
REMARK    9  A    between atoms: C_15  and  C_18
REMARK                            x       y       z     vdW  Elec       q    Type
REMARK                         _______ _______ _______ _____ _____    ______ ____
ROOT
ATOM      2  O   UNL     1      -3.920   3.553  24.138  0.00  0.00    -0.371 OA
ATOM      8  C   UNL     1      -5.843   2.603  25.142  0.00  0.00    +0.111 C 
ATOM      9  C   UNL     1      -5.403   3.781  25.995  0.00  0.00    +0.164 C 
ATOM     10  C   UNL     1      -4.051   4.198  25.418  0.00  0.00    +0.165 C 
ATOM     11  C   UNL     1      -5.157   2.904  23.819  0.00  0.00    +0.181 C 
ENDROOT
BRANCH   9   3
ATOM      3  O   UNL     1      -6.344   4.839  25.794  0.00  0.00    -0.388 OA
ATOM     29  H   UNL     1      -7.037   4.500  25.202  0.00  0.00    +0.210 HD
ENDBRANCH   9   3
BRANCH   8   6
ATOM      6  N   UNL     1      -5.371   1.334  25.692  0.00  0.00    -0.305 NA
ATOM     28  H   UNL     1      -4.415   1.448  26.027  0.00  0.00    +0.123 HD
BRANCH   6  13
ATOM     13  C   UNL     1      -5.384   0.286  24.679  0.00  0.00    +0.116 C 
BRANCH  13  14
ATOM     14  C   UNL     1      -4.179  -0.611  24.784  0.00  0.00    -0.033 A 
ATOM     16  C   UNL     1      -4.073  -1.736  23.965  0.00  0.00    +0.008 A 
ATOM     17  C   UNL     1      -3.169  -0.318  25.701  0.00  0.00    +0.008 A 
ATOM     19  C   UNL     1      -2.957  -2.567  24.063  0.00  0.00    +0.046 A 
ATOM     20  C   UNL     1      -2.054  -1.150  25.799  0.00  0.00    +0.046 A 
ATOM     21  C   UNL     1      -1.948  -2.274  24.980  0.00  0.00    +0.120 A 
BRANCH  21   5
ATOM      5  O   UNL     1      -0.860  -3.086  25.077  0.00  0.00    -0.495 OA
ATOM     27  C   UNL     1       0.365  -2.481  25.490  0.00  0.00    +0.277 C 
ENDBRANCH  21   5
ENDBRANCH  13  14
ENDBRANCH   6  13
ENDBRANCH   8   6
BRANCH  10  12
ATOM     12  C   UNL     1      -2.868   3.789  26.284  0.00  0.00    +0.138 C 
BRANCH  12   7
ATOM      4  O   UNL     1      -0.604   4.410  24.632  0.00  0.00    -0.270 OA
ATOM      7  N   UNL     1      -2.023   2.852  25.601  0.00  0.00    -0.309 N 
ATOM     15  C   UNL     1      -0.942   3.244  24.818  0.00  0.00    +0.244 C 
ATOM     30  H   UNL     1      -2.297   1.876  25.646  0.00  0.00    +0.149 HD
BRANCH  15  18
ATOM      1  F   UNL     1       1.934  -0.876  22.313  0.00  0.00    -0.205 F 
ATOM     18  C   UNL     1      -0.181   2.153  24.156  0.00  0.00    +0.037 A 
ATOM     22  C   UNL     1      -0.861   1.098  23.549  0.00  0.00    +0.016 A 
ATOM     23  C   UNL     1       1.213   2.185  24.140  0.00  0.00    +0.016 A 
ATOM     24  C   UNL     1      -0.147   0.074  22.926  0.00  0.00    +0.039 A 
ATOM     25  C   UNL     1       1.927   1.162  23.518  0.00  0.00    +0.039 A 
ATOM     26  C   UNL     1       1.248   0.106  22.911  0.00  0.00    +0.123 A 
ENDBRANCH  15  18
ENDBRANCH  12   7
ENDBRANCH  10  12
TORSDOF 8
ENDMDL
MODEL 7
REMARK VINA RESULT:      -3.2      2.418      6.303
REMARK  Name = 75536641
REMARK  9 active torsions:
REMARK  status: ('A' for Active; 'I' for Inactive)
REMARK    1  A    between atoms: O_3  and  C_9
REMARK    2  A    between atoms: O_5  and  C_21
REMARK    3  A    between atoms: O_5  and  C_27
REMARK    4  A    between atoms: N_6  and  C_8
REMARK    5  A    between atoms: N_6  and  C_13
REMARK    6  A    between atoms: N_7  and  C_12
REMARK    7  A    between atoms: C_10  and  C_12
REMARK    8  A    between atoms: C_13  and  C_14
REMARK    9  A    between atoms: C_15  and  C_18
REMARK                            x       y       z     vdW  Elec       q    Type
REMARK                         _______ _______ _______ _____ _____    ______ ____
ROOT
ATOM      2  O   UNL     1      -3.310  -2.171  23.737  0.00  0.00    -0.371 OA
ATOM      8  C   UNL     1      -1.748  -1.483  25.378  0.00  0.00    +0.111 C 
ATOM      9  C   UNL     1      -3.142  -1.311  25.958  0.00  0.00    +0.164 C 
ATOM     10  C   UNL     1      -4.087  -1.559  24.783  0.00  0.00    +0.165 C 
ATOM     11  C   UNL     1      -2.002  -2.462  24.243  0.00  0.00    +0.181 C 
ENDROOT
BRANCH   9   3
ATOM      3  O   UNL     1      -3.334  -2.335  26.937  0.00  0.00    -0.388 OA
ATOM     29  H   UNL     1      -3.904  -1.965  27.634  0.00  0.00    +0.210 HD
ENDBRANCH   9   3
BRANCH   8   6
ATOM      6  N   UNL     1      -1.219  -0.221  24.864  0.00  0.00    -0.305 NA
ATOM     28  H   UNL     1      -1.920   0.511  24.986  0.00  0.00    +0.123 HD
BRANCH   6  13
ATOM     13  C   UNL     1      -0.903  -0.324  23.444  0.00  0.00    +0.116 C 
BRANCH  13  14
ATOM     14  C   UNL     1       0.539   0.004  23.166  0.00  0.00    -0.033 A 
ATOM     16  C   UNL     1       1.185   0.994  23.907  0.00  0.00    +0.008 A 
ATOM     17  C   UNL     1       1.231  -0.681  22.167  0.00  0.00    +0.008 A 
ATOM     19  C   UNL     1       2.522   1.298  23.650  0.00  0.00    +0.046 A 
ATOM     20  C   UNL     1       2.568  -0.376  21.908  0.00  0.00    +0.046 A 
ATOM     21  C   UNL     1       3.213   0.613  22.651  0.00  0.00    +0.120 A 
BRANCH  21   5
ATOM      5  O   UNL     1       4.516   0.911  22.398  0.00  0.00    -0.495 OA
ATOM     27  C   UNL     1       5.494   0.321  23.254  0.00  0.00    +0.277 C 
ENDBRANCH  21   5
ENDBRANCH  13  14
ENDBRANCH   6  13
ENDBRANCH   8   6
BRANCH  10  12
ATOM     12  C   UNL     1      -4.718  -0.289  24.231  0.00  0.00    +0.138 C 
BRANCH  12   7
ATOM      4  O   UNL     1      -5.162   2.188  25.612  0.00  0.00    -0.270 OA
ATOM      7  N   UNL     1      -3.812   0.821  24.314  0.00  0.00    -0.309 N 
ATOM     15  C   UNL     1      -4.111   1.988  25.009  0.00  0.00    +0.244 C 
ATOM     30  H   UNL     1      -2.959   0.753  23.767  0.00  0.00    +0.149 HD
BRANCH  15  18
ATOM      1  F   UNL     1      -0.210   6.023  24.883  0.00  0.00    -0.205 F 
ATOM     18  C   UNL     1      -3.079   3.055  24.976  0.00  0.00    +0.037 A 
ATOM     22  C   UNL     1      -1.929   2.890  24.203  0.00  0.00    +0.016 A 
ATOM     23  C   UNL     1      -3.258   4.223  25.717  0.00  0.00    +0.016 A 
ATOM     24  C   UNL     1      -0.960   3.892  24.171  0.00  0.00    +0.039 A 
ATOM     25  C   UNL     1      -2.290   5.225  25.686  0.00  0.00    +0.039 A 
ATOM     26  C   UNL     1      -1.140   5.060  24.913  0.00  0.00    +0.123 A 
ENDBRANCH  15  18
ENDBRANCH  12   7
ENDBRANCH  10  12
TORSDOF 8
ENDMDL
MODEL 8
REMARK VINA RESULT:      -2.2      3.603      5.975
REMARK  Name = 75536641
REMARK  9 active torsions:
REMARK  status: ('A' for Active; 'I' for Inactive)
REMARK    1  A    between atoms: O_3  and  C_9
REMARK    2  A    between atoms: O_5  and  C_21
REMARK    3  A    between atoms: O_5  and  C_27
REMARK    4  A    between atoms: N_6  and  C_8
REMARK    5  A    between atoms: N_6  and  C_13
REMARK    6  A    between atoms: N_7  and  C_12
REMARK    7  A    between atoms: C_10  and  C_12
REMARK    8  A    between atoms: C_13  and  C_14
REMARK    9  A    between atoms: C_15  and  C_18
REMARK                            x       y       z     vdW  Elec       q    Type
REMARK                         _______ _______ _______ _____ _____    ______ ____
ROOT
ATOM      2  O   UNL     1       0.912   1.944  25.018  0.00  0.00    -0.371 OA
ATOM      8  C   UNL     1      -0.476   2.835  23.319  0.00  0.00    +0.111 C 
ATOM      9  C   UNL     1      -0.691   3.659  24.578  0.00  0.00    +0.164 C 
ATOM     10  C   UNL     1       0.057   2.900  25.673  0.00  0.00    +0.165 C 
ATOM     11  C   UNL     1       0.862   2.173  23.604  0.00  0.00    +0.181 C 
ENDROOT
BRANCH   9   3
ATOM      3  O   UNL     1      -0.065   4.929  24.378  0.00  0.00    -0.388 OA
ATOM     29  H   UNL     1       0.854   4.759  24.105  0.00  0.00    +0.210 HD
ENDBRANCH   9   3
BRANCH   8   6
ATOM      6  N   UNL     1      -1.525   1.831  23.148  0.00  0.00    -0.305 NA
ATOM     28  H   UNL     1      -1.230   1.155  22.443  0.00  0.00    +0.123 HD
BRANCH   6  13
ATOM     13  C   UNL     1      -2.772   2.444  22.708  0.00  0.00    +0.116 C 
BRANCH  13  14
ATOM     14  C   UNL     1      -3.793   2.495  23.812  0.00  0.00    -0.033 A 
ATOM     16  C   UNL     1      -4.622   1.398  24.048  0.00  0.00    +0.008 A 
ATOM     17  C   UNL     1      -3.912   3.640  24.601  0.00  0.00    +0.008 A 
ATOM     19  C   UNL     1      -5.568   1.445  25.071  0.00  0.00    +0.046 A 
ATOM     20  C   UNL     1      -4.859   3.687  25.624  0.00  0.00    +0.046 A 
ATOM     21  C   UNL     1      -5.687   2.589  25.859  0.00  0.00    +0.120 A 
BRANCH  21   5
ATOM      5  O   UNL     1      -6.611   2.636  26.856  0.00  0.00    -0.495 OA
ATOM     27  C   UNL     1      -6.946   1.401  27.490  0.00  0.00    +0.277 C 
ENDBRANCH  21   5
ENDBRANCH  13  14
ENDBRANCH   6  13
ENDBRANCH   8   6
BRANCH  10  12
ATOM     12  C   UNL     1      -0.859   2.148  26.627  0.00  0.00    +0.138 C 
BRANCH  12   7
ATOM      4  O   UNL     1      -0.554  -0.679  27.024  0.00  0.00    -0.270 OA
ATOM      7  N   UNL     1      -1.574   1.105  25.948  0.00  0.00    -0.309 N 
ATOM     15  C   UNL     1      -1.361  -0.245  26.206  0.00  0.00    +0.244 C 
ATOM     30  H   UNL     1      -2.197   1.393  25.200  0.00  0.00    +0.149 HD
BRANCH  15  18
ATOM      1  F   UNL     1      -4.390  -3.862  23.161  0.00  0.00    -0.205 F 
ATOM     18  C   UNL     1      -2.162  -1.201  25.400  0.00  0.00    +0.037 A 
ATOM     22  C   UNL     1      -1.522  -2.174  24.632  0.00  0.00    +0.016 A 
ATOM     23  C   UNL     1      -3.555  -1.128  25.411  0.00  0.00    +0.016 A 
ATOM     24  C   UNL     1      -2.274  -3.073  23.876  0.00  0.00    +0.039 A 
ATOM     25  C   UNL     1      -4.307  -2.026  24.655  0.00  0.00    +0.039 A 
ATOM     26  C   UNL     1      -3.667  -2.999  23.887  0.00  0.00    +0.123 A 
ENDBRANCH  15  18
ENDBRANCH  12   7
ENDBRANCH  10  12
TORSDOF 8
ENDMDL
MODEL 9
REMARK VINA RESULT:      -2.1      3.543      6.774
REMARK  Name = 75536641
REMARK  9 active torsions:
REMARK  status: ('A' for Active; 'I' for Inactive)
REMARK    1  A    between atoms: O_3  and  C_9
REMARK    2  A    between atoms: O_5  and  C_21
REMARK    3  A    between atoms: O_5  and  C_27
REMARK    4  A    between atoms: N_6  and  C_8
REMARK    5  A    between atoms: N_6  and  C_13
REMARK    6  A    between atoms: N_7  and  C_12
REMARK    7  A    between atoms: C_10  and  C_12
REMARK    8  A    between atoms: C_13  and  C_14
REMARK    9  A    between atoms: C_15  and  C_18
REMARK                            x       y       z     vdW  Elec       q    Type
REMARK                         _______ _______ _______ _____ _____    ______ ____
ROOT
ATOM      2  O   UNL     1       2.363   0.699  23.548  0.00  0.00    -0.371 OA
ATOM      8  C   UNL     1       0.639  -0.923  23.494  0.00  0.00    +0.111 C 
ATOM      9  C   UNL     1       0.033   0.416  23.109  0.00  0.00    +0.164 C 
ATOM     10  C   UNL     1       1.138   1.436  23.378  0.00  0.00    +0.165 C 
ATOM     11  C   UNL     1       2.118  -0.679  23.243  0.00  0.00    +0.181 C 
ENDROOT
BRANCH   9   3
ATOM      3  O   UNL     1      -0.240   0.382  21.706  0.00  0.00    -0.388 OA
ATOM     29  H   UNL     1      -0.909  -0.308  21.558  0.00  0.00    +0.210 HD
ENDBRANCH   9   3
BRANCH   8   6
ATOM      6  N   UNL     1       0.398  -1.239  24.900  0.00  0.00    -0.305 NA
ATOM     28  H   UNL     1       1.224  -1.695  25.288  0.00  0.00    +0.123 HD
BRANCH   6  13
ATOM     13  C   UNL     1      -0.739  -2.139  25.049  0.00  0.00    +0.116 C 
BRANCH  13  14
ATOM     14  C   UNL     1      -2.050  -1.407  24.942  0.00  0.00    -0.033 A 
ATOM     16  C   UNL     1      -2.203  -0.158  25.545  0.00  0.00    +0.008 A 
ATOM     17  C   UNL     1      -3.114  -1.978  24.243  0.00  0.00    +0.008 A 
ATOM     19  C   UNL     1      -3.418   0.521  25.446  0.00  0.00    +0.046 A 
ATOM     20  C   UNL     1      -4.329  -1.300  24.145  0.00  0.00    +0.046 A 
ATOM     21  C   UNL     1      -4.481  -0.050  24.747  0.00  0.00    +0.120 A 
BRANCH  21   5
ATOM      5  O   UNL     1      -5.667   0.610  24.652  0.00  0.00    -0.495 OA
ATOM     27  C   UNL     1      -6.183   1.191  25.849  0.00  0.00    +0.277 C 
ENDBRANCH  21   5
ENDBRANCH  13  14
ENDBRANCH   6  13
ENDBRANCH   8   6
BRANCH  10  12
ATOM     12  C   UNL     1       0.904   2.270  24.629  0.00  0.00    +0.138 C 
BRANCH  12   7
ATOM      4  O   UNL     1      -0.340   4.858  24.636  0.00  0.00    -0.270 OA
ATOM      7  N   UNL     1      -0.491   2.550  24.815  0.00  0.00    -0.309 N 
ATOM     15  C   UNL     1      -1.009   3.841  24.803  0.00  0.00    +0.244 C 
ATOM     30  H   UNL     1      -1.087   1.760  25.041  0.00  0.00    +0.149 HD
BRANCH  15  18
ATOM      1  F   UNL     1      -6.533   4.310  25.688  0.00  0.00    -0.205 F 
ATOM     18  C   UNL     1      -2.470   3.964  25.037  0.00  0.00    +0.037 A 
ATOM     22  C   UNL     1      -2.955   4.172  26.329  0.00  0.00    +0.016 A 
ATOM     23  C   UNL     1      -3.359   3.874  23.966  0.00  0.00    +0.016 A 
ATOM     24  C   UNL     1      -4.327   4.289  26.549  0.00  0.00    +0.039 A 
ATOM     25  C   UNL     1      -4.731   3.990  24.186  0.00  0.00    +0.039 A 
ATOM     26  C   UNL     1      -5.215   4.198  25.477  0.00  0.00    +0.123 A 
ENDBRANCH  15  18
ENDBRANCH  12   7
ENDBRANCH  10  12
TORSDOF 8
ENDMDL
MODEL 10
REMARK VINA RESULT:      -1.9      3.090      6.252
REMARK  Name = 75536641
REMARK  9 active torsions:
REMARK  status: ('A' for Active; 'I' for Inactive)
REMARK    1  A    between atoms: O_3  and  C_9
REMARK    2  A    between atoms: O_5  and  C_21
REMARK    3  A    between atoms: O_5  and  C_27
REMARK    4  A    between atoms: N_6  and  C_8
REMARK    5  A    between atoms: N_6  and  C_13
REMARK    6  A    between atoms: N_7  and  C_12
REMARK    7  A    between atoms: C_10  and  C_12
REMARK    8  A    between atoms: C_13  and  C_14
REMARK    9  A    between atoms: C_15  and  C_18
REMARK                            x       y       z     vdW  Elec       q    Type
REMARK                         _______ _______ _______ _____ _____    ______ ____
ROOT
ATOM      2  O   UNL     1      -6.111   3.969  25.690  0.00  0.00    -0.371 OA
ATOM      8  C   UNL     1      -3.937   4.289  24.807  0.00  0.00    +0.111 C 
ATOM      9  C   UNL     1      -4.486   2.991  24.239  0.00  0.00    +0.164 C 
ATOM     10  C   UNL     1      -5.779   2.742  25.013  0.00  0.00    +0.165 C 
ATOM     11  C   UNL     1      -5.206   4.993  25.258  0.00  0.00    +0.181 C 
ENDROOT
BRANCH   9   3
ATOM      3  O   UNL     1      -4.801   3.219  22.863  0.00  0.00    -0.388 OA
ATOM     29  H   UNL     1      -5.705   2.890  22.715  0.00  0.00    +0.210 HD
ENDBRANCH   9   3
BRANCH   8   6
ATOM      6  N   UNL     1      -3.049   4.046  25.942  0.00  0.00    -0.305 NA
ATOM     28  H   UNL     1      -3.313   4.661  26.712  0.00  0.00    +0.123 HD
BRANCH   6  13
ATOM     13  C   UNL     1      -1.660   4.319  25.589  0.00  0.00    +0.116 C 
BRANCH  13  14
ATOM     14  C   UNL     1      -0.999   3.126  24.954  0.00  0.00    -0.033 A 
ATOM     16  C   UNL     1      -1.401   2.696  23.689  0.00  0.00    +0.008 A 
ATOM     17  C   UNL     1       0.016   2.448  25.630  0.00  0.00    +0.008 A 
ATOM     19  C   UNL     1      -0.788   1.590  23.100  0.00  0.00    +0.046 A 
ATOM     20  C   UNL     1       0.628   1.341  25.042  0.00  0.00    +0.046 A 
ATOM     21  C   UNL     1       0.226   0.913  23.776  0.00  0.00    +0.120 A 
BRANCH  21   5
ATOM      5  O   UNL     1       0.823  -0.167  23.203  0.00  0.00    -0.495 OA
ATOM     27  C   UNL     1       2.050   0.061  22.511  0.00  0.00    +0.277 C 
ENDBRANCH  21   5
ENDBRANCH  13  14
ENDBRANCH   6  13
ENDBRANCH   8   6
BRANCH  10  12
ATOM     12  C   UNL     1      -5.662   1.638  26.053  0.00  0.00    +0.138 C 
BRANCH  12   7
ATOM      4  O   UNL     1      -2.884   0.920  25.973  0.00  0.00    -0.270 OA
ATOM      7  N   UNL     1      -5.102   0.445  25.486  0.00  0.00    -0.309 N 
ATOM     15  C   UNL     1      -3.737   0.178  25.492  0.00  0.00    +0.244 C 
ATOM     30  H   UNL     1      -5.743  -0.171  24.998  0.00  0.00    +0.149 HD
BRANCH  15  18
ATOM      1  F   UNL     1      -2.137  -4.607  23.030  0.00  0.00    -0.205 F 
ATOM     18  C   UNL     1      -3.313  -1.088  24.840  0.00  0.00    +0.037 A 
ATOM     22  C   UNL     1      -1.982  -1.500  24.914  0.00  0.00    +0.016 A 
ATOM     23  C   UNL     1      -4.246  -1.866  24.154  0.00  0.00    +0.016 A 
ATOM     24  C   UNL     1      -1.585  -2.688  24.303  0.00  0.00    +0.039 A 
ATOM     25  C   UNL     1      -3.849  -3.054  23.542  0.00  0.00    +0.039 A 
ATOM     26  C   UNL     1      -2.518  -3.466  23.617  0.00  0.00    +0.123 A 
ENDBRANCH  15  18
ENDBRANCH  12   7
ENDBRANCH  10  12
TORSDOF 8
ENDMDL
