MODEL 1
REMARK VINA RESULT:       4.8      0.000      0.000
REMARK  Name = 11883007
REMARK  12 active torsions:
REMARK  status: ('A' for Active; 'I' for Inactive)
REMARK    1  A    between atoms: O_2  and  C_14
REMARK    2  A    between atoms: O_3  and  C_19
REMARK    3  A    between atoms: N_7  and  C_25
REMARK    4  A    between atoms: C_9  and  C_17
REMARK    5  A    between atoms: C_11  and  C_19
REMARK    6  A    between atoms: C_11  and  C_20
REMARK    7  A    between atoms: C_12  and  C_22
REMARK    8  A    between atoms: C_22  and  C_23
REMARK    9  A    between atoms: C_28  and  C_29
REMARK   10  A    between atoms: C_29  and  C_30
REMARK   11  A    between atoms: C_29  and  C_31
REMARK   12  A    between atoms: C_29  and  C_32
REMARK                            x       y       z     vdW  Elec       q    Type
REMARK                         _______ _______ _______ _____ _____    ______ ____
ROOT
ATOM      1  S   UNL     1       0.649   2.154  25.731  0.00  0.00    -0.057 S 
ATOM      5  O   UNL     1       2.103  -0.047  21.912  0.00  0.00    -0.275 OA
ATOM      6  N   UNL     1      -0.077   1.214  23.434  0.00  0.00    -0.229 NA
ATOM      8  N   UNL     1       2.243   0.947  24.034  0.00  0.00    -0.264 N 
ATOM      9  C   UNL     1      -3.714   2.085  24.372  0.00  0.00    -0.019 C 
ATOM     10  C   UNL     1      -3.268   3.329  25.262  0.00  0.00    +0.011 C 
ATOM     11  C   UNL     1      -4.403   4.077  26.063  0.00  0.00    +0.021 C 
ATOM     12  C   UNL     1      -2.535   1.771  23.340  0.00  0.00    +0.054 C 
ATOM     13  C   UNL     1      -4.985   2.457  23.565  0.00  0.00    +0.010 C 
ATOM     14  C   UNL     1      -5.614   4.329  25.122  0.00  0.00    +0.123 C 
ATOM     15  C   UNL     1      -2.012   2.995  26.117  0.00  0.00    +0.049 C 
ATOM     16  C   UNL     1      -6.093   3.071  24.408  0.00  0.00    +0.032 C 
ATOM     17  C   UNL     1      -4.012   0.820  25.213  0.00  0.00    +0.012 C 
ATOM     18  C   UNL     1      -1.196   1.761  24.032  0.00  0.00    +0.058 A 
ATOM     20  C   UNL     1      -3.871   5.466  26.515  0.00  0.00    +0.016 C 
ATOM     21  C   UNL     1      -0.980   2.332  25.270  0.00  0.00    +0.015 A 
ATOM     24  C   UNL     1       0.951   1.356  24.240  0.00  0.00    +0.165 A 
ATOM     28  C   UNL     1       2.752   0.277  22.904  0.00  0.00    +0.224 C 
ATOM     36  H   UNL     1       2.876   1.164  24.797  0.00  0.00    +0.157 HD
ENDROOT
BRANCH  28  29
ATOM     29  C   UNL     1       4.266  -0.044  22.998  0.00  0.00    +0.039 C 
ATOM     30  C   UNL     1       4.967   1.033  23.847  0.00  0.00    +0.020 C 
ATOM     31  C   UNL     1       4.896  -0.041  21.596  0.00  0.00    +0.020 C 
ATOM     32  C   UNL     1       4.479  -1.407  23.673  0.00  0.00    +0.020 C 
ENDBRANCH  28  29
BRANCH  14   2
ATOM      2  O   UNL     1      -6.707   4.889  25.849  0.00  0.00    -0.391 OA
ATOM     33  H   UNL     1      -6.428   4.987  26.775  0.00  0.00    +0.210 HD
ENDBRANCH  14   2
BRANCH  11  19
ATOM     19  C   UNL     1      -4.850   3.363  27.357  0.00  0.00    +0.165 C 
BRANCH  19   3
ATOM      3  O   UNL     1      -5.997   2.600  27.055  0.00  0.00    -0.394 OA
ATOM     34  H   UNL     1      -6.659   2.788  27.741  0.00  0.00    +0.209 HD
ENDBRANCH  19   3
ENDBRANCH  11  19
BRANCH  12  22
ATOM     22  C   UNL     1      -2.743   0.504  22.500  0.00  0.00    +0.106 C 
BRANCH  22  23
ATOM      4  O   UNL     1      -4.287  -1.090  23.470  0.00  0.00    -0.276 OA
ATOM      7  N   UNL     1      -2.026  -1.236  23.977  0.00  0.00    -0.312 N 
ATOM     23  C   UNL     1      -3.135  -0.681  23.352  0.00  0.00    +0.214 C 
ATOM     35  H   UNL     1      -1.107  -0.828  23.829  0.00  0.00    +0.149 HD
BRANCH   7  25
ATOM     25  C   UNL     1      -2.120  -2.374  24.845  0.00  0.00    +0.073 C 
ATOM     26  C   UNL     1      -3.229  -3.374  24.696  0.00  0.00    +0.024 C 
ATOM     27  C   UNL     1      -3.191  -2.468  25.891  0.00  0.00    +0.024 C 
ENDBRANCH   7  25
ENDBRANCH  22  23
ENDBRANCH  12  22
TORSDOF 7
ENDMDL
MODEL 2
REMARK VINA RESULT:       7.0      2.742      4.401
REMARK  Name = 11883007
REMARK  12 active torsions:
REMARK  status: ('A' for Active; 'I' for Inactive)
REMARK    1  A    between atoms: O_2  and  C_14
REMARK    2  A    between atoms: O_3  and  C_19
REMARK    3  A    between atoms: N_7  and  C_25
REMARK    4  A    between atoms: C_9  and  C_17
REMARK    5  A    between atoms: C_11  and  C_19
REMARK    6  A    between atoms: C_11  and  C_20
REMARK    7  A    between atoms: C_12  and  C_22
REMARK    8  A    between atoms: C_22  and  C_23
REMARK    9  A    between atoms: C_28  and  C_29
REMARK   10  A    between atoms: C_29  and  C_30
REMARK   11  A    between atoms: C_29  and  C_31
REMARK   12  A    between atoms: C_29  and  C_32
REMARK                            x       y       z     vdW  Elec       q    Type
REMARK                         _______ _______ _______ _____ _____    ______ ____
ROOT
ATOM      1  S   UNL     1       0.533   0.191  22.544  0.00  0.00    -0.057 S 
ATOM      5  O   UNL     1       4.472   0.849  24.908  0.00  0.00    -0.275 OA
ATOM      6  N   UNL     1       1.583   1.323  24.619  0.00  0.00    -0.229 NA
ATOM      8  N   UNL     1       3.065   0.049  23.208  0.00  0.00    -0.264 N 
ATOM      9  C   UNL     1      -1.820   3.019  25.255  0.00  0.00    -0.019 C 
ATOM     10  C   UNL     1      -2.633   1.802  24.626  0.00  0.00    +0.011 C 
ATOM     11  C   UNL     1      -4.194   1.979  24.492  0.00  0.00    +0.021 C 
ATOM     12  C   UNL     1      -0.384   2.477  25.697  0.00  0.00    +0.054 C 
ATOM     13  C   UNL     1      -2.558   3.534  26.519  0.00  0.00    +0.010 C 
ATOM     14  C   UNL     1      -4.764   2.543  25.823  0.00  0.00    +0.123 C 
ATOM     15  C   UNL     1      -1.948   1.269  23.335  0.00  0.00    +0.049 C 
ATOM     16  C   UNL     1      -4.042   3.798  26.302  0.00  0.00    +0.032 C 
ATOM     17  C   UNL     1      -1.644   4.199  24.268  0.00  0.00    +0.012 C 
ATOM     18  C   UNL     1       0.238   1.639  24.609  0.00  0.00    +0.058 A 
ATOM     20  C   UNL     1      -4.843   0.584  24.265  0.00  0.00    +0.016 C 
ATOM     21  C   UNL     1      -0.486   1.092  23.568  0.00  0.00    +0.015 A 
ATOM     24  C   UNL     1       1.853   0.571  23.574  0.00  0.00    +0.165 A 
ATOM     28  C   UNL     1       4.296   0.207  23.875  0.00  0.00    +0.224 C 
ATOM     36  H   UNL     1       3.040  -0.507  22.359  0.00  0.00    +0.157 HD
ENDROOT
BRANCH  28  29
ATOM     29  C   UNL     1       5.479  -0.520  23.184  0.00  0.00    +0.039 C 
ATOM     30  C   UNL     1       6.808   0.092  23.665  0.00  0.00    +0.020 C 
ATOM     31  C   UNL     1       5.390  -0.347  21.659  0.00  0.00    +0.020 C 
ATOM     32  C   UNL     1       5.472  -2.012  23.550  0.00  0.00    +0.020 C 
ENDBRANCH  28  29
BRANCH  14   2
ATOM      2  O   UNL     1      -6.154   2.836  25.693  0.00  0.00    -0.391 OA
ATOM     33  H   UNL     1      -6.301   3.732  26.039  0.00  0.00    +0.210 HD
ENDBRANCH  14   2
BRANCH  11  19
ATOM     19  C   UNL     1      -4.640   2.844  23.292  0.00  0.00    +0.165 C 
BRANCH  19   3
ATOM      3  O   UNL     1      -4.436   4.196  23.635  0.00  0.00    -0.394 OA
ATOM     34  H   UNL     1      -3.634   4.238  24.183  0.00  0.00    +0.209 HD
ENDBRANCH  19   3
ENDBRANCH  11  19
BRANCH  12  22
ATOM     22  C   UNL     1       0.583   3.560  26.193  0.00  0.00    +0.106 C 
BRANCH  22  23
ATOM      4  O   UNL     1       2.397   3.536  27.797  0.00  0.00    -0.276 OA
ATOM      7  N   UNL     1       0.472   2.313  28.231  0.00  0.00    -0.312 N 
ATOM     23  C   UNL     1       1.273   3.159  27.475  0.00  0.00    +0.214 C 
ATOM     35  H   UNL     1      -0.446   2.045  27.885  0.00  0.00    +0.149 HD
BRANCH   7  25
ATOM     25  C   UNL     1       0.888   1.782  29.497  0.00  0.00    +0.073 C 
ATOM     26  C   UNL     1       0.890   2.636  30.732  0.00  0.00    +0.024 C 
ATOM     27  C   UNL     1       2.189   2.194  30.122  0.00  0.00    +0.024 C 
ENDBRANCH   7  25
ENDBRANCH  22  23
ENDBRANCH  12  22
TORSDOF 7
ENDMDL
MODEL 3
REMARK VINA RESULT:       7.1      1.602      2.325
REMARK  Name = 11883007
REMARK  12 active torsions:
REMARK  status: ('A' for Active; 'I' for Inactive)
REMARK    1  A    between atoms: O_2  and  C_14
REMARK    2  A    between atoms: O_3  and  C_19
REMARK    3  A    between atoms: N_7  and  C_25
REMARK    4  A    between atoms: C_9  and  C_17
REMARK    5  A    between atoms: C_11  and  C_19
REMARK    6  A    between atoms: C_11  and  C_20
REMARK    7  A    between atoms: C_12  and  C_22
REMARK    8  A    between atoms: C_22  and  C_23
REMARK    9  A    between atoms: C_28  and  C_29
REMARK   10  A    between atoms: C_29  and  C_30
REMARK   11  A    between atoms: C_29  and  C_31
REMARK   12  A    between atoms: C_29  and  C_32
REMARK                            x       y       z     vdW  Elec       q    Type
REMARK                         _______ _______ _______ _____ _____    ______ ____
ROOT
ATOM      1  S   UNL     1       0.990   2.593  24.122  0.00  0.00    -0.057 S 
ATOM      5  O   UNL     1       3.221  -1.418  23.431  0.00  0.00    -0.275 OA
ATOM      6  N   UNL     1       0.711   0.028  23.952  0.00  0.00    -0.229 NA
ATOM      8  N   UNL     1       2.941   0.900  23.671  0.00  0.00    -0.264 N 
ATOM      9  C   UNL     1      -2.975   0.489  24.985  0.00  0.00    -0.019 C 
ATOM     10  C   UNL     1      -3.069   1.923  24.298  0.00  0.00    +0.011 C 
ATOM     11  C   UNL     1      -4.411   2.726  24.501  0.00  0.00    +0.021 C 
ATOM     12  C   UNL     1      -1.764  -0.303  24.306  0.00  0.00    +0.054 C 
ATOM     13  C   UNL     1      -4.284  -0.297  24.717  0.00  0.00    +0.010 C 
ATOM     14  C   UNL     1      -5.618   1.781  24.240  0.00  0.00    +0.123 C 
ATOM     15  C   UNL     1      -1.788   2.766  24.564  0.00  0.00    +0.049 C 
ATOM     16  C   UNL     1      -5.550   0.485  25.039  0.00  0.00    +0.032 C 
ATOM     17  C   UNL     1      -2.746   0.568  26.514  0.00  0.00    +0.012 C 
ATOM     18  C   UNL     1      -0.536   0.565  24.206  0.00  0.00    +0.058 A 
ATOM     20  C   UNL     1      -4.482   3.868  23.448  0.00  0.00    +0.016 C 
ATOM     21  C   UNL     1      -0.572   1.942  24.306  0.00  0.00    +0.015 A 
ATOM     24  C   UNL     1       1.593   1.001  23.895  0.00  0.00    +0.165 A 
ATOM     28  C   UNL     1       3.681  -0.279  23.455  0.00  0.00    +0.224 C 
ATOM     36  H   UNL     1       3.431   1.789  23.669  0.00  0.00    +0.157 HD
ENDROOT
BRANCH  28  29
ATOM     29  C   UNL     1       5.196  -0.033  23.237  0.00  0.00    +0.039 C 
ATOM     30  C   UNL     1       6.005  -0.989  24.135  0.00  0.00    +0.020 C 
ATOM     31  C   UNL     1       5.560   1.411  23.616  0.00  0.00    +0.020 C 
ATOM     32  C   UNL     1       5.574  -0.309  21.773  0.00  0.00    +0.020 C 
ENDBRANCH  28  29
BRANCH  14   2
ATOM      2  O   UNL     1      -6.848   2.441  24.540  0.00  0.00    -0.391 OA
ATOM     33  H   UNL     1      -6.855   3.285  24.057  0.00  0.00    +0.210 HD
ENDBRANCH  14   2
BRANCH  11  19
ATOM     19  C   UNL     1      -4.542   3.420  25.874  0.00  0.00    +0.165 C 
BRANCH  19   3
ATOM      3  O   UNL     1      -5.550   4.400  25.769  0.00  0.00    -0.394 OA
ATOM     34  H   UNL     1      -5.420   5.029  26.499  0.00  0.00    +0.209 HD
ENDBRANCH  19   3
ENDBRANCH  11  19
BRANCH  12  22
ATOM     22  C   UNL     1      -1.444  -1.656  24.955  0.00  0.00    +0.106 C 
BRANCH  22  23
ATOM      4  O   UNL     1      -3.201  -2.906  26.057  0.00  0.00    -0.276 OA
ATOM      7  N   UNL     1      -3.062  -2.930  23.740  0.00  0.00    -0.312 N 
ATOM     23  C   UNL     1      -2.656  -2.556  25.014  0.00  0.00    +0.214 C 
ATOM     35  H   UNL     1      -2.548  -2.598  22.928  0.00  0.00    +0.149 HD
BRANCH   7  25
ATOM     25  C   UNL     1      -4.191  -3.785  23.511  0.00  0.00    +0.073 C 
ATOM     26  C   UNL     1      -4.918  -3.773  22.197  0.00  0.00    +0.024 C 
ATOM     27  C   UNL     1      -5.582  -3.229  23.428  0.00  0.00    +0.024 C 
ENDBRANCH   7  25
ENDBRANCH  22  23
ENDBRANCH  12  22
TORSDOF 7
ENDMDL
MODEL 4
REMARK VINA RESULT:       8.3      2.140      4.564
REMARK  Name = 11883007
REMARK  12 active torsions:
REMARK  status: ('A' for Active; 'I' for Inactive)
REMARK    1  A    between atoms: O_2  and  C_14
REMARK    2  A    between atoms: O_3  and  C_19
REMARK    3  A    between atoms: N_7  and  C_25
REMARK    4  A    between atoms: C_9  and  C_17
REMARK    5  A    between atoms: C_11  and  C_19
REMARK    6  A    between atoms: C_11  and  C_20
REMARK    7  A    between atoms: C_12  and  C_22
REMARK    8  A    between atoms: C_22  and  C_23
REMARK    9  A    between atoms: C_28  and  C_29
REMARK   10  A    between atoms: C_29  and  C_30
REMARK   11  A    between atoms: C_29  and  C_31
REMARK   12  A    between atoms: C_29  and  C_32
REMARK                            x       y       z     vdW  Elec       q    Type
REMARK                         _______ _______ _______ _____ _____    ______ ____
ROOT
ATOM      1  S   UNL     1       1.104  -1.704  23.941  0.00  0.00    -0.057 S 
ATOM      5  O   UNL     1       4.398   1.514  23.363  0.00  0.00    -0.275 OA
ATOM      6  N   UNL     1       1.559   0.833  23.726  0.00  0.00    -0.229 NA
ATOM      8  N   UNL     1       3.472  -0.629  23.604  0.00  0.00    -0.264 N 
ATOM      9  C   UNL     1      -2.257   1.386  23.714  0.00  0.00    -0.019 C 
ATOM     10  C   UNL     1      -2.522   0.118  24.641  0.00  0.00    +0.011 C 
ATOM     11  C   UNL     1      -4.027  -0.267  24.912  0.00  0.00    +0.021 C 
ATOM     12  C   UNL     1      -0.742   1.846  23.930  0.00  0.00    +0.054 C 
ATOM     13  C   UNL     1      -3.187   2.547  24.150  0.00  0.00    +0.010 C 
ATOM     14  C   UNL     1      -4.824   1.014  25.290  0.00  0.00    +0.123 C 
ATOM     15  C   UNL     1      -1.632  -1.088  24.222  0.00  0.00    +0.049 C 
ATOM     16  C   UNL     1      -4.650   2.147  24.286  0.00  0.00    +0.032 C 
ATOM     17  C   UNL     1      -2.497   1.094  22.212  0.00  0.00    +0.012 C 
ATOM     18  C   UNL     1       0.196   0.667  23.879  0.00  0.00    +0.058 A 
ATOM     20  C   UNL     1      -4.092  -1.228  26.132  0.00  0.00    +0.016 C 
ATOM     21  C   UNL     1      -0.222  -0.640  24.030  0.00  0.00    +0.015 A 
ATOM     24  C   UNL     1       2.137  -0.348  23.735  0.00  0.00    +0.165 A 
ATOM     28  C   UNL     1       4.522   0.293  23.427  0.00  0.00    +0.224 C 
ATOM     36  H   UNL     1       3.695  -1.619  23.642  0.00  0.00    +0.157 HD
ENDROOT
BRANCH  28  29
ATOM     29  C   UNL     1       5.920  -0.368  23.310  0.00  0.00    +0.039 C 
ATOM     30  C   UNL     1       5.953  -1.652  24.160  0.00  0.00    +0.020 C 
ATOM     31  C   UNL     1       7.003   0.588  23.834  0.00  0.00    +0.020 C 
ATOM     32  C   UNL     1       6.208  -0.747  21.849  0.00  0.00    +0.020 C 
ENDBRANCH  28  29
BRANCH  14   2
ATOM      2  O   UNL     1      -6.215   0.722  25.416  0.00  0.00    -0.391 OA
ATOM     33  H   UNL     1      -6.701   1.351  24.857  0.00  0.00    +0.210 HD
ENDBRANCH  14   2
BRANCH  11  19
ATOM     19  C   UNL     1      -4.715  -1.021  23.753  0.00  0.00    +0.165 C 
BRANCH  19   3
ATOM      3  O   UNL     1      -4.497  -2.401  23.946  0.00  0.00    -0.394 OA
ATOM     34  H   UNL     1      -5.179  -2.718  24.562  0.00  0.00    +0.209 HD
ENDBRANCH  19   3
ENDBRANCH  11  19
BRANCH  12  22
ATOM     22  C   UNL     1      -0.278   2.973  22.998  0.00  0.00    +0.106 C 
BRANCH  22  23
ATOM      4  O   UNL     1      -0.011   5.375  23.153  0.00  0.00    -0.276 OA
ATOM      7  N   UNL     1      -1.225   4.254  24.783  0.00  0.00    -0.312 N 
ATOM     23  C   UNL     1      -0.469   4.337  23.621  0.00  0.00    +0.214 C 
ATOM     35  H   UNL     1      -1.561   3.349  25.103  0.00  0.00    +0.149 HD
BRANCH   7  25
ATOM     25  C   UNL     1      -1.555   5.405  25.572  0.00  0.00    +0.073 C 
ATOM     26  C   UNL     1      -2.928   5.579  26.155  0.00  0.00    +0.024 C 
ATOM     27  C   UNL     1      -2.464   6.475  25.044  0.00  0.00    +0.024 C 
ENDBRANCH   7  25
ENDBRANCH  22  23
ENDBRANCH  12  22
TORSDOF 7
ENDMDL
