MODEL 1
REMARK VINA RESULT:      -3.5      0.000      0.000
REMARK  Name = 45784017
REMARK  4 active torsions:
REMARK  status: ('A' for Active; 'I' for Inactive)
REMARK    1  A    between atoms: O_3  and  C_15
REMARK    2  A    between atoms: O_3  and  C_20
REMARK    3  A    between atoms: C_7  and  C_11
REMARK    4  A    between atoms: C_12  and  C_15
REMARK                            x       y       z     vdW  Elec       q    Type
REMARK                         _______ _______ _______ _____ _____    ______ ____
ROOT
ATOM      1  F   UNL     1      -5.376  -3.060  23.543  0.00  0.00    -0.205 F 
ATOM      5  N   UNL     1      -2.302   0.469  24.908  0.00  0.00    -0.341 N 
ATOM      6  N   UNL     1      -0.577  -0.916  25.128  0.00  0.00    -0.232 NA
ATOM     11  C   UNL     1      -0.979   0.332  25.227  0.00  0.00    +0.113 A 
ATOM     13  C   UNL     1      -2.785  -0.772  24.582  0.00  0.00    +0.069 A 
ATOM     14  C   UNL     1      -1.691  -1.619  24.727  0.00  0.00    +0.089 A 
ATOM     16  C   UNL     1      -4.048  -1.212  24.185  0.00  0.00    +0.066 A 
ATOM     17  C   UNL     1      -1.846  -2.991  24.465  0.00  0.00    +0.032 A 
ATOM     18  C   UNL     1      -4.185  -2.580  23.928  0.00  0.00    +0.125 A 
ATOM     19  C   UNL     1      -3.106  -3.456  24.065  0.00  0.00    +0.040 A 
ATOM     21  H   UNL     1      -2.831   1.331  24.912  0.00  0.00    +0.167 HD
ENDROOT
BRANCH  11   7
ATOM      2  O   UNL     1      -2.735   4.810  26.632  0.00  0.00    -0.273 OA
ATOM      4  N   UNL     1      -1.286   3.584  25.314  0.00  0.00    -0.299 N 
ATOM      7  C   UNL     1      -0.138   1.527  25.637  0.00  0.00    +0.074 C 
ATOM      8  C   UNL     1       0.445   2.254  24.414  0.00  0.00    +0.032 C 
ATOM      9  C   UNL     1      -0.868   2.664  26.364  0.00  0.00    +0.119 C 
ATOM     10  C   UNL     1      -0.624   3.279  24.051  0.00  0.00    +0.108 C 
ATOM     12  C   UNL     1      -2.204   4.594  25.542  0.00  0.00    +0.241 C 
BRANCH  12  15
ATOM     15  C   UNL     1      -2.532   5.454  24.348  0.00  0.00    +0.255 C 
BRANCH  15   3
ATOM      3  O   UNL     1      -3.829   5.097  23.939  0.00  0.00    -0.374 OA
ATOM     20  C   UNL     1      -4.031   3.685  23.970  0.00  0.00    +0.194 C 
ENDBRANCH  15   3
ENDBRANCH  12  15
ENDBRANCH  11   7
TORSDOF 3
ENDMDL
MODEL 2
REMARK VINA RESULT:      -2.9     18.610     20.492
REMARK  Name = 45784017
REMARK  4 active torsions:
REMARK  status: ('A' for Active; 'I' for Inactive)
REMARK    1  A    between atoms: O_3  and  C_15
REMARK    2  A    between atoms: O_3  and  C_20
REMARK    3  A    between atoms: C_7  and  C_11
REMARK    4  A    between atoms: C_12  and  C_15
REMARK                            x       y       z     vdW  Elec       q    Type
REMARK                         _______ _______ _______ _____ _____    ______ ____
ROOT
ATOM      1  F   UNL     1      11.137  -3.693  32.313  0.00  0.00    -0.205 F 
ATOM      5  N   UNL     1      12.711  -8.229  31.465  0.00  0.00    -0.341 N 
ATOM      6  N   UNL     1      14.856  -7.679  31.657  0.00  0.00    -0.232 NA
ATOM     11  C   UNL     1      14.010  -8.658  31.429  0.00  0.00    +0.113 A 
ATOM     13  C   UNL     1      12.721  -6.885  31.734  0.00  0.00    +0.069 A 
ATOM     14  C   UNL     1      14.070  -6.564  31.850  0.00  0.00    +0.089 A 
ATOM     16  C   UNL     1      11.696  -5.950  31.883  0.00  0.00    +0.066 A 
ATOM     17  C   UNL     1      14.438  -5.238  32.129  0.00  0.00    +0.032 A 
ATOM     18  C   UNL     1      12.080  -4.634  32.160  0.00  0.00    +0.125 A 
ATOM     19  C   UNL     1      13.426  -4.282  32.282  0.00  0.00    +0.040 A 
ATOM     21  H   UNL     1      11.889  -8.800  31.319  0.00  0.00    +0.167 HD
ENDROOT
BRANCH  11   7
ATOM      2  O   UNL     1      17.376 -10.290  28.095  0.00  0.00    -0.273 OA
ATOM      4  N   UNL     1      15.241 -10.421  28.968  0.00  0.00    -0.299 N 
ATOM      7  C   UNL     1      14.354 -10.110  31.152  0.00  0.00    +0.074 C 
ATOM      8  C   UNL     1      13.297 -10.781  30.259  0.00  0.00    +0.032 C 
ATOM      9  C   UNL     1      15.646 -10.373  30.367  0.00  0.00    +0.119 C 
ATOM     10  C   UNL     1      13.791 -10.516  28.841  0.00  0.00    +0.108 C 
ATOM     12  C   UNL     1      16.157 -10.371  27.934  0.00  0.00    +0.241 C 
BRANCH  12  15
ATOM     15  C   UNL     1      15.573 -10.426  26.545  0.00  0.00    +0.255 C 
BRANCH  15   3
ATOM      3  O   UNL     1      16.261  -9.466  25.780  0.00  0.00    -0.374 OA
ATOM     20  C   UNL     1      15.668  -8.173  25.885  0.00  0.00    +0.194 C 
ENDBRANCH  15   3
ENDBRANCH  12  15
ENDBRANCH  11   7
TORSDOF 3
ENDMDL
MODEL 3
REMARK VINA RESULT:      -2.8      1.300      1.422
REMARK  Name = 45784017
REMARK  4 active torsions:
REMARK  status: ('A' for Active; 'I' for Inactive)
REMARK    1  A    between atoms: O_3  and  C_15
REMARK    2  A    between atoms: O_3  and  C_20
REMARK    3  A    between atoms: C_7  and  C_11
REMARK    4  A    between atoms: C_12  and  C_15
REMARK                            x       y       z     vdW  Elec       q    Type
REMARK                         _______ _______ _______ _____ _____    ______ ____
ROOT
ATOM      1  F   UNL     1      -4.351  -3.892  24.162  0.00  0.00    -0.205 F 
ATOM      5  N   UNL     1      -2.457   0.537  24.913  0.00  0.00    -0.341 N 
ATOM      6  N   UNL     1      -0.356  -0.171  24.743  0.00  0.00    -0.232 NA
ATOM     11  C   UNL     1      -1.130   0.871  24.945  0.00  0.00    +0.113 A 
ATOM     13  C   UNL     1      -2.542  -0.811  24.674  0.00  0.00    +0.069 A 
ATOM     14  C   UNL     1      -1.219  -1.230  24.573  0.00  0.00    +0.089 A 
ATOM     16  C   UNL     1      -3.632  -1.672  24.543  0.00  0.00    +0.066 A 
ATOM     17  C   UNL     1      -0.947  -2.586  24.326  0.00  0.00    +0.032 A 
ATOM     18  C   UNL     1      -3.343  -3.018  24.297  0.00  0.00    +0.125 A 
ATOM     19  C   UNL     1      -2.026  -3.470  24.190  0.00  0.00    +0.040 A 
ATOM     21  H   UNL     1      -3.235   1.169  25.042  0.00  0.00    +0.167 HD
ENDROOT
BRANCH  11   7
ATOM      2  O   UNL     1      -3.638   4.318  27.581  0.00  0.00    -0.273 OA
ATOM      4  N   UNL     1      -2.514   3.749  25.644  0.00  0.00    -0.299 N 
ATOM      7  C   UNL     1      -0.683   2.302  25.190  0.00  0.00    +0.074 C 
ATOM      8  C   UNL     1      -0.948   3.194  23.966  0.00  0.00    +0.032 C 
ATOM      9  C   UNL     1      -1.409   3.067  26.304  0.00  0.00    +0.119 C 
ATOM     10  C   UNL     1      -2.361   3.720  24.193  0.00  0.00    +0.108 C 
ATOM     12  C   UNL     1      -3.555   4.322  26.351  0.00  0.00    +0.241 C 
BRANCH  12  15
ATOM     15  C   UNL     1      -4.622   4.983  25.516  0.00  0.00    +0.255 C 
BRANCH  15   3
ATOM      3  O   UNL     1      -5.806   4.252  25.723  0.00  0.00    -0.374 OA
ATOM     20  C   UNL     1      -5.657   2.879  25.366  0.00  0.00    +0.194 C 
ENDBRANCH  15   3
ENDBRANCH  12  15
ENDBRANCH  11   7
TORSDOF 3
ENDMDL
MODEL 4
REMARK VINA RESULT:      -2.3      2.065      3.482
REMARK  Name = 45784017
REMARK  4 active torsions:
REMARK  status: ('A' for Active; 'I' for Inactive)
REMARK    1  A    between atoms: O_3  and  C_15
REMARK    2  A    between atoms: O_3  and  C_20
REMARK    3  A    between atoms: C_7  and  C_11
REMARK    4  A    between atoms: C_12  and  C_15
REMARK                            x       y       z     vdW  Elec       q    Type
REMARK                         _______ _______ _______ _____ _____    ______ ____
ROOT
ATOM      1  F   UNL     1      -0.174  -3.165  25.304  0.00  0.00    -0.205 F 
ATOM      5  N   UNL     1      -3.274   0.597  25.236  0.00  0.00    -0.341 N 
ATOM      6  N   UNL     1      -4.918  -0.585  24.318  0.00  0.00    -0.232 NA
ATOM     11  C   UNL     1      -4.562   0.595  24.773  0.00  0.00    +0.113 A 
ATOM     13  C   UNL     1      -2.767  -0.666  25.067  0.00  0.00    +0.069 A 
ATOM     14  C   UNL     1      -3.812  -1.385  24.493  0.00  0.00    +0.089 A 
ATOM     16  C   UNL     1      -1.523  -1.224  25.359  0.00  0.00    +0.066 A 
ATOM     17  C   UNL     1      -3.621  -2.742  24.184  0.00  0.00    +0.032 A 
ATOM     18  C   UNL     1      -1.350  -2.576  25.045  0.00  0.00    +0.125 A 
ATOM     19  C   UNL     1      -2.379  -3.324  24.468  0.00  0.00    +0.040 A 
ATOM     21  H   UNL     1      -2.783   1.387  25.630  0.00  0.00    +0.167 HD
ENDROOT
BRANCH  11   7
ATOM      2  O   UNL     1      -3.166   5.151  23.220  0.00  0.00    -0.273 OA
ATOM      4  N   UNL     1      -4.102   3.830  24.868  0.00  0.00    -0.299 N 
ATOM      7  C   UNL     1      -5.417   1.849  24.815  0.00  0.00    +0.074 C 
ATOM      8  C   UNL     1      -5.460   2.457  26.227  0.00  0.00    +0.032 C 
ATOM      9  C   UNL     1      -4.936   3.038  23.973  0.00  0.00    +0.119 C 
ATOM     10  C   UNL     1      -4.269   3.409  26.255  0.00  0.00    +0.108 C 
ATOM     12  C   UNL     1      -3.270   4.833  24.406  0.00  0.00    +0.241 C 
BRANCH  12  15
ATOM     15  C   UNL     1      -2.471   5.553  25.462  0.00  0.00    +0.255 C 
BRANCH  15   3
ATOM      3  O   UNL     1      -1.115   5.372  25.134  0.00  0.00    -0.374 OA
ATOM     20  C   UNL     1      -0.735   3.997  25.170  0.00  0.00    +0.194 C 
ENDBRANCH  15   3
ENDBRANCH  12  15
ENDBRANCH  11   7
TORSDOF 3
ENDMDL
MODEL 5
REMARK VINA RESULT:      -2.2      3.743      5.393
REMARK  Name = 45784017
REMARK  4 active torsions:
REMARK  status: ('A' for Active; 'I' for Inactive)
REMARK    1  A    between atoms: O_3  and  C_15
REMARK    2  A    between atoms: O_3  and  C_20
REMARK    3  A    between atoms: C_7  and  C_11
REMARK    4  A    between atoms: C_12  and  C_15
REMARK                            x       y       z     vdW  Elec       q    Type
REMARK                         _______ _______ _______ _____ _____    ______ ____
ROOT
ATOM      1  F   UNL     1       6.002  -0.582  23.115  0.00  0.00    -0.205 F 
ATOM      5  N   UNL     1       1.231  -1.159  23.936  0.00  0.00    -0.341 N 
ATOM      6  N   UNL     1       0.720   0.905  23.288  0.00  0.00    -0.232 NA
ATOM     11  C   UNL     1       0.244  -0.232  23.743  0.00  0.00    +0.113 A 
ATOM     13  C   UNL     1       2.423  -0.581  23.581  0.00  0.00    +0.069 A 
ATOM     14  C   UNL     1       2.078   0.706  23.180  0.00  0.00    +0.089 A 
ATOM     16  C   UNL     1       3.733  -1.060  23.576  0.00  0.00    +0.066 A 
ATOM     17  C   UNL     1       3.087   1.582  22.746  0.00  0.00    +0.032 A 
ATOM     18  C   UNL     1       4.725  -0.176  23.141  0.00  0.00    +0.125 A 
ATOM     19  C   UNL     1       4.411   1.123  22.733  0.00  0.00    +0.040 A 
ATOM     21  H   UNL     1       1.106  -2.102  24.279  0.00  0.00    +0.167 HD
ENDROOT
BRANCH  11   7
ATOM      2  O   UNL     1      -3.642   2.862  23.075  0.00  0.00    -0.273 OA
ATOM      4  N   UNL     1      -2.494   1.405  24.454  0.00  0.00    -0.299 N 
ATOM      7  C   UNL     1      -1.210  -0.553  24.043  0.00  0.00    +0.074 C 
ATOM      8  C   UNL     1      -1.514  -0.445  25.546  0.00  0.00    +0.032 C 
ATOM      9  C   UNL     1      -2.260   0.387  23.437  0.00  0.00    +0.119 C 
ATOM     10  C   UNL     1      -1.919   1.013  25.735  0.00  0.00    +0.108 C 
ATOM     12  C   UNL     1      -3.174   2.578  24.179  0.00  0.00    +0.241 C 
BRANCH  12  15
ATOM     15  C   UNL     1      -3.326   3.527  25.340  0.00  0.00    +0.255 C 
BRANCH  15   3
ATOM      3  O   UNL     1      -4.689   3.869  25.404  0.00  0.00    -0.374 OA
ATOM     20  C   UNL     1      -5.493   2.782  25.859  0.00  0.00    +0.194 C 
ENDBRANCH  15   3
ENDBRANCH  12  15
ENDBRANCH  11   7
TORSDOF 3
ENDMDL
MODEL 6
REMARK VINA RESULT:      -2.2      3.183      5.121
REMARK  Name = 45784017
REMARK  4 active torsions:
REMARK  status: ('A' for Active; 'I' for Inactive)
REMARK    1  A    between atoms: O_3  and  C_15
REMARK    2  A    between atoms: O_3  and  C_20
REMARK    3  A    between atoms: C_7  and  C_11
REMARK    4  A    between atoms: C_12  and  C_15
REMARK                            x       y       z     vdW  Elec       q    Type
REMARK                         _______ _______ _______ _____ _____    ______ ____
ROOT
ATOM      1  F   UNL     1       3.795   0.375  22.533  0.00  0.00    -0.205 F 
ATOM      5  N   UNL     1      -0.657  -1.311  23.586  0.00  0.00    -0.341 N 
ATOM      6  N   UNL     1      -1.388   0.656  24.320  0.00  0.00    -0.232 NA
ATOM     11  C   UNL     1      -1.703  -0.603  24.110  0.00  0.00    +0.113 A 
ATOM     13  C   UNL     1       0.404  -0.452  23.450  0.00  0.00    +0.069 A 
ATOM     14  C   UNL     1      -0.077   0.769  23.915  0.00  0.00    +0.089 A 
ATOM     16  C   UNL     1       1.702  -0.633  22.974  0.00  0.00    +0.066 A 
ATOM     17  C   UNL     1       0.774   1.886  23.913  0.00  0.00    +0.032 A 
ATOM     18  C   UNL     1       2.536   0.490  22.979  0.00  0.00    +0.125 A 
ATOM     19  C   UNL     1       2.083   1.728  23.440  0.00  0.00    +0.040 A 
ATOM     21  H   UNL     1      -0.662  -2.292  23.342  0.00  0.00    +0.167 HD
ENDROOT
BRANCH  11   7
ATOM      2  O   UNL     1      -6.165   1.677  24.048  0.00  0.00    -0.273 OA
ATOM      4  N   UNL     1      -4.671   0.296  25.143  0.00  0.00    -0.299 N 
ATOM      7  C   UNL     1      -3.042  -1.263  24.387  0.00  0.00    +0.074 C 
ATOM      8  C   UNL     1      -3.276  -1.454  25.894  0.00  0.00    +0.032 C 
ATOM      9  C   UNL     1      -4.294  -0.480  23.968  0.00  0.00    +0.119 C 
ATOM     10  C   UNL     1      -3.956  -0.161  26.329  0.00  0.00    +0.108 C 
ATOM     12  C   UNL     1      -5.587   1.330  25.079  0.00  0.00    +0.241 C 
BRANCH  12  15
ATOM     15  C   UNL     1      -5.862   2.035  26.384  0.00  0.00    +0.255 C 
BRANCH  15   3
ATOM      3  O   UNL     1      -5.598   3.400  26.166  0.00  0.00    -0.374 OA
ATOM     20  C   UNL     1      -4.227   3.636  25.850  0.00  0.00    +0.194 C 
ENDBRANCH  15   3
ENDBRANCH  12  15
ENDBRANCH  11   7
TORSDOF 3
ENDMDL
MODEL 7
REMARK VINA RESULT:      -1.7      3.698      5.563
REMARK  Name = 45784017
REMARK  4 active torsions:
REMARK  status: ('A' for Active; 'I' for Inactive)
REMARK    1  A    between atoms: O_3  and  C_15
REMARK    2  A    between atoms: O_3  and  C_20
REMARK    3  A    between atoms: C_7  and  C_11
REMARK    4  A    between atoms: C_12  and  C_15
REMARK                            x       y       z     vdW  Elec       q    Type
REMARK                         _______ _______ _______ _____ _____    ______ ____
ROOT
ATOM      1  F   UNL     1      -5.909   4.863  25.305  0.00  0.00    -0.205 F 
ATOM      5  N   UNL     1      -2.551   1.333  25.492  0.00  0.00    -0.341 N 
ATOM      6  N   UNL     1      -4.048  -0.302  25.331  0.00  0.00    -0.232 NA
ATOM     11  C   UNL     1      -2.770  -0.016  25.442  0.00  0.00    +0.113 A 
ATOM     13  C   UNL     1      -3.769   1.958  25.408  0.00  0.00    +0.069 A 
ATOM     14  C   UNL     1      -4.687   0.918  25.309  0.00  0.00    +0.089 A 
ATOM     16  C   UNL     1      -4.134   3.305  25.411  0.00  0.00    +0.066 A 
ATOM     17  C   UNL     1      -6.055   1.218  25.207  0.00  0.00    +0.032 A 
ATOM     18  C   UNL     1      -5.500   3.586  25.308  0.00  0.00    +0.125 A 
ATOM     19  C   UNL     1      -6.446   2.564  25.207  0.00  0.00    +0.040 A 
ATOM     21  H   UNL     1      -1.653   1.790  25.576  0.00  0.00    +0.167 HD
ENDROOT
BRANCH  11   7
ATOM      2  O   UNL     1       1.937   0.851  23.955  0.00  0.00    -0.273 OA
ATOM      4  N   UNL     1       0.076  -0.519  23.917  0.00  0.00    -0.299 N 
ATOM      7  C   UNL     1      -1.620  -1.005  25.510  0.00  0.00    +0.074 C 
ATOM      8  C   UNL     1      -1.685  -2.027  24.363  0.00  0.00    +0.032 C 
ATOM      9  C   UNL     1      -0.208  -0.430  25.343  0.00  0.00    +0.119 C 
ATOM     10  C   UNL     1      -0.897  -1.367  23.237  0.00  0.00    +0.108 C 
ATOM     12  C   UNL     1       1.141   0.144  23.334  0.00  0.00    +0.241 C 
BRANCH  12  15
ATOM     15  C   UNL     1       1.292  -0.049  21.846  0.00  0.00    +0.255 C 
BRANCH  15   3
ATOM      3  O   UNL     1       2.656  -0.302  21.610  0.00  0.00    -0.374 OA
ATOM     20  C   UNL     1       3.496   0.659  22.247  0.00  0.00    +0.194 C 
ENDBRANCH  15   3
ENDBRANCH  12  15
ENDBRANCH  11   7
TORSDOF 3
ENDMDL
MODEL 8
REMARK VINA RESULT:      -1.7      4.073      5.801
REMARK  Name = 45784017
REMARK  4 active torsions:
REMARK  status: ('A' for Active; 'I' for Inactive)
REMARK    1  A    between atoms: O_3  and  C_15
REMARK    2  A    between atoms: O_3  and  C_20
REMARK    3  A    between atoms: C_7  and  C_11
REMARK    4  A    between atoms: C_12  and  C_15
REMARK                            x       y       z     vdW  Elec       q    Type
REMARK                         _______ _______ _______ _____ _____    ______ ____
ROOT
ATOM      1  F   UNL     1       5.308   0.359  22.319  0.00  0.00    -0.205 F 
ATOM      5  N   UNL     1       1.148   1.879  24.358  0.00  0.00    -0.341 N 
ATOM      6  N   UNL     1      -0.127   0.609  23.053  0.00  0.00    -0.232 NA
ATOM     11  C   UNL     1      -0.121   1.489  24.029  0.00  0.00    +0.113 A 
ATOM     13  C   UNL     1       2.018   1.207  23.538  0.00  0.00    +0.069 A 
ATOM     14  C   UNL     1       1.199   0.422  22.733  0.00  0.00    +0.089 A 
ATOM     16  C   UNL     1       3.409   1.219  23.435  0.00  0.00    +0.066 A 
ATOM     17  C   UNL     1       1.785  -0.407  21.761  0.00  0.00    +0.032 A 
ATOM     18  C   UNL     1       3.975   0.388  22.463  0.00  0.00    +0.125 A 
ATOM     19  C   UNL     1       3.180  -0.412  21.640  0.00  0.00    +0.040 A 
ATOM     21  H   UNL     1       1.401   2.545  25.076  0.00  0.00    +0.167 HD
ENDROOT
BRANCH  11   7
ATOM      2  O   UNL     1      -3.643  -1.202  26.368  0.00  0.00    -0.273 OA
ATOM      4  N   UNL     1      -3.112   0.478  24.873  0.00  0.00    -0.299 N 
ATOM      7  C   UNL     1      -1.331   2.049  24.755  0.00  0.00    +0.074 C 
ATOM      8  C   UNL     1      -2.441   2.456  23.772  0.00  0.00    +0.032 C 
ATOM      9  C   UNL     1      -2.075   1.089  25.694  0.00  0.00    +0.119 C 
ATOM     10  C   UNL     1      -3.272   1.188  23.609  0.00  0.00    +0.108 C 
ATOM     12  C   UNL     1      -3.817  -0.638  25.287  0.00  0.00    +0.241 C 
BRANCH  12  15
ATOM     15  C   UNL     1      -4.853  -1.149  24.317  0.00  0.00    +0.255 C 
BRANCH  15   3
ATOM      3  O   UNL     1      -4.233  -2.162  23.563  0.00  0.00    -0.374 OA
ATOM     20  C   UNL     1      -3.449  -3.032  24.378  0.00  0.00    +0.194 C 
ENDBRANCH  15   3
ENDBRANCH  12  15
ENDBRANCH  11   7
TORSDOF 3
ENDMDL
MODEL 9
REMARK VINA RESULT:      -1.0      3.653      6.168
REMARK  Name = 45784017
REMARK  4 active torsions:
REMARK  status: ('A' for Active; 'I' for Inactive)
REMARK    1  A    between atoms: O_3  and  C_15
REMARK    2  A    between atoms: O_3  and  C_20
REMARK    3  A    between atoms: C_7  and  C_11
REMARK    4  A    between atoms: C_12  and  C_15
REMARK                            x       y       z     vdW  Elec       q    Type
REMARK                         _______ _______ _______ _____ _____    ______ ____
ROOT
ATOM      1  F   UNL     1      -6.727   5.766  25.691  0.00  0.00    -0.205 F 
ATOM      5  N   UNL     1      -5.495   1.049  25.635  0.00  0.00    -0.341 N 
ATOM      6  N   UNL     1      -3.458   1.439  24.835  0.00  0.00    -0.232 NA
ATOM     11  C   UNL     1      -4.303   0.514  25.232  0.00  0.00    +0.113 A 
ATOM     13  C   UNL     1      -5.414   2.410  25.487  0.00  0.00    +0.069 A 
ATOM     14  C   UNL     1      -4.135   2.629  24.987  0.00  0.00    +0.089 A 
ATOM     16  C   UNL     1      -6.324   3.437  25.741  0.00  0.00    +0.066 A 
ATOM     17  C   UNL     1      -3.720   3.944  24.717  0.00  0.00    +0.032 A 
ATOM     18  C   UNL     1      -5.895   4.739  25.467  0.00  0.00    +0.125 A 
ATOM     19  C   UNL     1      -4.617   4.991  24.964  0.00  0.00    +0.040 A 
ATOM     21  H   UNL     1      -6.295   0.535  25.979  0.00  0.00    +0.167 HD
ENDROOT
BRANCH  11   7
ATOM      2  O   UNL     1       0.089  -1.716  26.156  0.00  0.00    -0.273 OA
ATOM      4  N   UNL     1      -1.788  -1.532  24.821  0.00  0.00    -0.299 N 
ATOM      7  C   UNL     1      -4.057  -0.984  25.270  0.00  0.00    +0.074 C 
ATOM      8  C   UNL     1      -3.942  -1.574  23.855  0.00  0.00    +0.032 C 
ATOM      9  C   UNL     1      -2.746  -1.449  25.916  0.00  0.00    +0.119 C 
ATOM     10  C   UNL     1      -2.457  -1.457  23.528  0.00  0.00    +0.108 C 
ATOM     12  C   UNL     1      -0.428  -1.656  25.040  0.00  0.00    +0.241 C 
BRANCH  12  15
ATOM     15  C   UNL     1       0.426  -1.724  23.798  0.00  0.00    +0.255 C 
BRANCH  15   3
ATOM      3  O   UNL     1       0.587  -0.401  23.348  0.00  0.00    -0.374 OA
ATOM     20  C   UNL     1       1.785  -0.235  22.590  0.00  0.00    +0.194 C 
ENDBRANCH  15   3
ENDBRANCH  12  15
ENDBRANCH  11   7
TORSDOF 3
ENDMDL
MODEL 10
REMARK VINA RESULT:      -0.6      3.734      6.599
REMARK  Name = 45784017
REMARK  4 active torsions:
REMARK  status: ('A' for Active; 'I' for Inactive)
REMARK    1  A    between atoms: O_3  and  C_15
REMARK    2  A    between atoms: O_3  and  C_20
REMARK    3  A    between atoms: C_7  and  C_11
REMARK    4  A    between atoms: C_12  and  C_15
REMARK                            x       y       z     vdW  Elec       q    Type
REMARK                         _______ _______ _______ _____ _____    ______ ____
ROOT
ATOM      1  F   UNL     1       0.099   5.844  24.715  0.00  0.00    -0.205 F 
ATOM      5  N   UNL     1      -2.439   1.694  25.034  0.00  0.00    -0.341 N 
ATOM      6  N   UNL     1      -4.327   2.721  25.604  0.00  0.00    -0.232 NA
ATOM     11  C   UNL     1      -3.760   1.559  25.365  0.00  0.00    +0.113 A 
ATOM     13  C   UNL     1      -2.135   3.031  25.064  0.00  0.00    +0.069 A 
ATOM     14  C   UNL     1      -3.328   3.651  25.422  0.00  0.00    +0.089 A 
ATOM     16  C   UNL     1      -0.954   3.729  24.815  0.00  0.00    +0.066 A 
ATOM     17  C   UNL     1      -3.364   5.050  25.545  0.00  0.00    +0.032 A 
ATOM     18  C   UNL     1      -1.007   5.121  24.942  0.00  0.00    +0.125 A 
ATOM     19  C   UNL     1      -2.189   5.772  25.300  0.00  0.00    +0.040 A 
ATOM     21  H   UNL     1      -1.800   0.943  24.810  0.00  0.00    +0.167 HD
ENDROOT
BRANCH  11   7
ATOM      2  O   UNL     1      -1.399  -2.828  25.904  0.00  0.00    -0.273 OA
ATOM      4  N   UNL     1      -2.948  -1.549  24.763  0.00  0.00    -0.299 N 
ATOM      7  C   UNL     1      -4.423   0.195  25.424  0.00  0.00    +0.074 C 
ATOM      8  C   UNL     1      -4.815  -0.305  24.024  0.00  0.00    +0.032 C 
ATOM      9  C   UNL     1      -3.564  -0.964  25.947  0.00  0.00    +0.119 C 
ATOM     10  C   UNL     1      -3.578  -1.056  23.543  0.00  0.00    +0.108 C 
ATOM     12  C   UNL     1      -1.896  -2.443  24.845  0.00  0.00    +0.241 C 
BRANCH  12  15
ATOM     15  C   UNL     1      -1.371  -2.950  23.525  0.00  0.00    +0.255 C 
BRANCH  15   3
ATOM      3  O   UNL     1      -0.564  -1.927  22.994  0.00  0.00    -0.374 OA
ATOM     20  C   UNL     1      -0.019  -1.090  24.013  0.00  0.00    +0.194 C 
ENDBRANCH  15   3
ENDBRANCH  12  15
ENDBRANCH  11   7
TORSDOF 3
ENDMDL
