MODEL 1
REMARK VINA RESULT:       8.9      0.000      0.000
REMARK  Name = 9420564
REMARK  5 active torsions:
REMARK  status: ('A' for Active; 'I' for Inactive)
REMARK    1  A    between atoms: N_4  and  C_14
REMARK    2  A    between atoms: N_6  and  C_24
REMARK    3  A    between atoms: C_14  and  C_19
REMARK    4  A    between atoms: C_17  and  C_20
REMARK    5  A    between atoms: C_22  and  C_24
REMARK                            x       y       z     vdW  Elec       q    Type
REMARK                         _______ _______ _______ _____ _____    ______ ____
ROOT
ATOM      1  O   UNL     1      -2.568   1.818  26.512  0.00  0.00    -0.267 OA
ATOM      4  N   UNL     1      -0.170  -1.132  23.242  0.00  0.00    -0.294 NA
ATOM      5  N   UNL     1      -2.354  -0.206  25.374  0.00  0.00    -0.311 N 
ATOM      7  C   UNL     1      -0.330  -1.752  25.666  0.00  0.00    +0.024 C 
ATOM      8  C   UNL     1      -2.135  -2.388  24.139  0.00  0.00    +0.050 C 
ATOM      9  C   UNL     1      -1.319  -2.863  25.338  0.00  0.00    +0.017 C 
ATOM     10  C   UNL     1       0.584  -1.480  24.453  0.00  0.00    +0.090 C 
ATOM     11  C   UNL     1      -1.194  -2.143  22.937  0.00  0.00    +0.094 C 
ATOM     12  C   UNL     1      -1.114  -0.506  26.104  0.00  0.00    +0.130 C 
ATOM     13  C   UNL     1      -2.903  -1.124  24.476  0.00  0.00    +0.026 A 
ATOM     15  C   UNL     1      -4.093  -0.878  23.905  0.00  0.00    +0.022 A 
ATOM     16  C   UNL     1      -3.005   1.000  25.701  0.00  0.00    +0.259 A 
ATOM     17  C   UNL     1      -4.321   1.264  25.019  0.00  0.00    +0.047 A 
ATOM     18  C   UNL     1      -4.806   0.337  24.179  0.00  0.00    +0.015 A 
ENDROOT
BRANCH  17  20
ATOM     20  C   UNL     1      -5.065   2.513  25.253  0.00  0.00    -0.008 A 
ATOM     22  C   UNL     1      -4.742   3.692  24.576  0.00  0.00    -0.025 A 
ATOM     25  C   UNL     1      -6.116   2.509  26.173  0.00  0.00    +0.009 A 
ATOM     27  C   UNL     1      -5.465   4.860  24.820  0.00  0.00    +0.005 A 
ATOM     30  C   UNL     1      -6.839   3.677  26.416  0.00  0.00    +0.001 A 
ATOM     32  C   UNL     1      -6.514   4.851  25.740  0.00  0.00    +0.000 A 
BRANCH  22  24
ATOM     24  C   UNL     1      -3.624   3.738  23.585  0.00  0.00    +0.120 C 
BRANCH  24   6
ATOM      3  O   UNL     1       0.499   3.407  24.293  0.00  0.00    -0.377 OA
ATOM      6  N   UNL     1      -2.344   3.351  24.174  0.00  0.00    -0.294 NA
ATOM     28  C   UNL     1      -1.619   4.531  24.666  0.00  0.00    +0.113 C 
ATOM     29  C   UNL     1      -1.519   2.622  23.200  0.00  0.00    +0.113 C 
ATOM     34  C   UNL     1      -0.281   4.104  25.264  0.00  0.00    +0.175 C 
ATOM     35  C   UNL     1      -0.186   2.241  23.834  0.00  0.00    +0.175 C 
ENDBRANCH  24   6
ENDBRANCH  22  24
ENDBRANCH  17  20
BRANCH   4  14
ATOM     14  C   UNL     1       0.726  -0.936  22.105  0.00  0.00    +0.158 C 
BRANCH  14  19
ATOM      2  O   UNL     1       2.838  -1.464  23.121  0.00  0.00    -0.458 OA
ATOM     19  C   UNL     1       2.100  -0.502  22.541  0.00  0.00    +0.120 A 
ATOM     21  C   UNL     1       2.739   0.686  22.461  0.00  0.00    +0.054 A 
ATOM     23  C   UNL     1       4.013   0.464  23.046  0.00  0.00    +0.020 A 
ATOM     26  C   UNL     1       4.024  -0.871  23.435  0.00  0.00    +0.135 A 
ATOM     31  C   UNL     1       5.157   1.244  23.290  0.00  0.00    +0.011 A 
ATOM     33  C   UNL     1       5.104  -1.496  24.057  0.00  0.00    +0.047 A 
ATOM     36  C   UNL     1       6.260   0.644  23.914  0.00  0.00    +0.001 A 
ATOM     37  C   UNL     1       6.232  -0.702  24.290  0.00  0.00    +0.004 A 
ENDBRANCH  14  19
ENDBRANCH   4  14
TORSDOF 5
ENDMDL
MODEL 2
REMARK VINA RESULT:      12.4      1.531      7.148
REMARK  Name = 9420564
REMARK  5 active torsions:
REMARK  status: ('A' for Active; 'I' for Inactive)
REMARK    1  A    between atoms: N_4  and  C_14
REMARK    2  A    between atoms: N_6  and  C_24
REMARK    3  A    between atoms: C_14  and  C_19
REMARK    4  A    between atoms: C_17  and  C_20
REMARK    5  A    between atoms: C_22  and  C_24
REMARK                            x       y       z     vdW  Elec       q    Type
REMARK                         _______ _______ _______ _____ _____    ______ ____
ROOT
ATOM      1  O   UNL     1      -0.298  -0.407  22.153  0.00  0.00    -0.267 OA
ATOM      4  N   UNL     1      -4.013  -0.754  25.504  0.00  0.00    -0.294 NA
ATOM      5  N   UNL     1      -1.522  -1.632  23.715  0.00  0.00    -0.311 N 
ATOM      7  C   UNL     1      -4.014  -2.152  23.422  0.00  0.00    +0.024 C 
ATOM      8  C   UNL     1      -2.831  -2.954  25.410  0.00  0.00    +0.050 C 
ATOM      9  C   UNL     1      -3.698  -3.400  24.236  0.00  0.00    +0.017 C 
ATOM     10  C   UNL     1      -4.763  -1.125  24.297  0.00  0.00    +0.090 C 
ATOM     11  C   UNL     1      -3.615  -1.941  26.275  0.00  0.00    +0.094 C 
ATOM     12  C   UNL     1      -2.706  -1.592  22.845  0.00  0.00    +0.130 C 
ATOM     13  C   UNL     1      -1.534  -2.339  24.919  0.00  0.00    +0.026 A 
ATOM     15  C   UNL     1      -0.409  -2.455  25.643  0.00  0.00    +0.022 A 
ATOM     16  C   UNL     1      -0.355  -1.011  23.226  0.00  0.00    +0.259 A 
ATOM     17  C   UNL     1       0.882  -1.130  24.076  0.00  0.00    +0.047 A 
ATOM     18  C   UNL     1       0.812  -1.836  25.214  0.00  0.00    +0.015 A 
ENDROOT
BRANCH  17  20
ATOM     20  C   UNL     1       2.144  -0.482  23.682  0.00  0.00    -0.008 A 
ATOM     22  C   UNL     1       2.171   0.829  23.201  0.00  0.00    -0.025 A 
ATOM     25  C   UNL     1       3.335  -1.203  23.795  0.00  0.00    +0.009 A 
ATOM     27  C   UNL     1       3.383   1.416  22.835  0.00  0.00    +0.005 A 
ATOM     30  C   UNL     1       4.547  -0.616  23.430  0.00  0.00    +0.001 A 
ATOM     32  C   UNL     1       4.571   0.692  22.950  0.00  0.00    +0.000 A 
BRANCH  22  24
ATOM     24  C   UNL     1       0.919   1.633  23.064  0.00  0.00    +0.120 C 
BRANCH  24   6
ATOM      3  O   UNL     1      -1.196   3.583  26.120  0.00  0.00    -0.377 OA
ATOM      6  N   UNL     1       0.615   2.397  24.272  0.00  0.00    -0.294 NA
ATOM     28  C   UNL     1      -0.156   1.582  25.223  0.00  0.00    +0.113 C 
ATOM     29  C   UNL     1      -0.125   3.623  23.944  0.00  0.00    +0.113 C 
ATOM     34  C   UNL     1      -0.471   2.404  26.470  0.00  0.00    +0.175 C 
ATOM     35  C   UNL     1      -0.441   4.395  25.221  0.00  0.00    +0.175 C 
ENDBRANCH  24   6
ENDBRANCH  22  24
ENDBRANCH  17  20
BRANCH   4  14
ATOM     14  C   UNL     1      -4.777   0.177  26.331  0.00  0.00    +0.158 C 
BRANCH  14  19
ATOM      2  O   UNL     1      -3.991   1.734  24.680  0.00  0.00    -0.458 OA
ATOM     19  C   UNL     1      -4.775   1.568  25.758  0.00  0.00    +0.120 A 
ATOM     21  C   UNL     1      -5.419   2.697  26.128  0.00  0.00    +0.054 A 
ATOM     23  C   UNL     1      -5.008   3.684  25.194  0.00  0.00    +0.020 A 
ATOM     26  C   UNL     1      -4.131   3.042  24.326  0.00  0.00    +0.135 A 
ATOM     31  C   UNL     1      -5.279   5.048  24.987  0.00  0.00    +0.011 A 
ATOM     33  C   UNL     1      -3.497   3.666  23.252  0.00  0.00    +0.047 A 
ATOM     36  C   UNL     1      -4.657   5.703  23.915  0.00  0.00    +0.001 A 
ATOM     37  C   UNL     1      -3.782   5.022  23.064  0.00  0.00    +0.004 A 
ENDBRANCH  14  19
ENDBRANCH   4  14
TORSDOF 5
ENDMDL
