MODEL 1
REMARK VINA RESULT:      -4.8      0.000      0.000
REMARK  Name = 38028801
REMARK  9 active torsions:
REMARK  status: ('A' for Active; 'I' for Inactive)
REMARK    1  A    between atoms: N_4  and  C_15
REMARK    2  A    between atoms: C_7  and  C_11
REMARK    3  A    between atoms: C_9  and  C_15
REMARK    4  A    between atoms: C_10  and  C_14
REMARK    5  A    between atoms: C_11  and  C_16
REMARK    6  A    between atoms: C_11  and  C_17
REMARK    7  A    between atoms: C_12  and  C_19
REMARK    8  A    between atoms: C_14  and  C_18
REMARK    9  A    between atoms: C_24  and  C_25
REMARK                            x       y       z     vdW  Elec       q    Type
REMARK                         _______ _______ _______ _____ _____    ______ ____
ROOT
ATOM      7  C   UNL     1      -1.707   0.615  25.000  0.00  0.00    +0.000 C 
ATOM      8  C   UNL     1      -2.836   0.249  25.976  0.00  0.00    +0.012 C 
ATOM      9  C   UNL     1      -0.979  -0.662  24.513  0.00  0.00    +0.032 C 
ATOM     10  C   UNL     1      -3.875  -0.693  25.339  0.00  0.00    +0.023 C 
ATOM     12  C   UNL     1      -3.216  -1.843  24.603  0.00  0.00    -0.073 C 
ATOM     13  C   UNL     1      -1.917  -1.817  24.254  0.00  0.00    -0.022 C 
ATOM     19  C   UNL     1      -4.074  -3.044  24.319  0.00  0.00    +0.039 C 
ENDROOT
BRANCH   7  11
ATOM     11  C   UNL     1      -0.743   1.601  25.667  0.00  0.00    -0.013 C 
ATOM     16  C   UNL     1       0.136   2.278  24.619  0.00  0.00    +0.007 C 
ATOM     17  C   UNL     1      -1.517   2.638  26.474  0.00  0.00    +0.007 C 
ENDBRANCH   7  11
BRANCH  10  14
ATOM     14  C   UNL     1      -4.825   0.076  24.415  0.00  0.00    +0.103 C 
BRANCH  14  18
ATOM      1  O   UNL     1      -6.152   1.283  25.983  0.00  0.00    -0.276 OA
ATOM      3  N   UNL     1      -4.711   2.508  24.656  0.00  0.00    -0.301 N 
ATOM     18  C   UNL     1      -5.296   1.335  25.098  0.00  0.00    +0.216 C 
ATOM     20  C   UNL     1      -5.063   3.808  25.209  0.00  0.00    +0.108 C 
ATOM     21  C   UNL     1      -3.694   2.638  23.618  0.00  0.00    +0.108 C 
ATOM     22  C   UNL     1      -3.983   4.746  24.691  0.00  0.00    +0.020 C 
ATOM     23  C   UNL     1      -3.620   4.134  23.345  0.00  0.00    +0.020 C 
ENDBRANCH  14  18
ENDBRANCH  10  14
BRANCH   9  15
ATOM     15  C   UNL     1      -0.156  -0.381  23.249  0.00  0.00    +0.112 C 
BRANCH  15   4
ATOM      2  O   UNL     1       1.998  -0.214  21.359  0.00  0.00    -0.268 OA
ATOM      4  N   UNL     1       1.241  -0.348  23.549  0.00  0.00    -0.309 N 
ATOM     24  C   UNL     1       2.225  -0.266  22.565  0.00  0.00    +0.264 C 
ATOM     29  H   UNL     1       1.528  -0.345  24.523  0.00  0.00    +0.149 HD
BRANCH  24  25
ATOM      5  N   UNL     1       4.076  -1.406  23.609  0.00  0.00    -0.247 NA
ATOM      6  N   UNL     1       5.718   0.850  23.329  0.00  0.00    -0.259 NA
ATOM     25  C   UNL     1       3.634  -0.268  23.038  0.00  0.00    +0.143 A 
ATOM     26  C   UNL     1       4.440   0.840  22.901  0.00  0.00    +0.143 A 
ATOM     27  C   UNL     1       5.354  -1.397  24.037  0.00  0.00    +0.131 A 
ATOM     28  C   UNL     1       6.160  -0.288  23.900  0.00  0.00    +0.130 A 
ENDBRANCH  24  25
ENDBRANCH  15   4
ENDBRANCH   9  15
TORSDOF 6
ENDMDL
MODEL 2
REMARK VINA RESULT:      -1.1      1.378      3.694
REMARK  Name = 38028801
REMARK  9 active torsions:
REMARK  status: ('A' for Active; 'I' for Inactive)
REMARK    1  A    between atoms: N_4  and  C_15
REMARK    2  A    between atoms: C_7  and  C_11
REMARK    3  A    between atoms: C_9  and  C_15
REMARK    4  A    between atoms: C_10  and  C_14
REMARK    5  A    between atoms: C_11  and  C_16
REMARK    6  A    between atoms: C_11  and  C_17
REMARK    7  A    between atoms: C_12  and  C_19
REMARK    8  A    between atoms: C_14  and  C_18
REMARK    9  A    between atoms: C_24  and  C_25
REMARK                            x       y       z     vdW  Elec       q    Type
REMARK                         _______ _______ _______ _____ _____    ______ ____
ROOT
ATOM      7  C   UNL     1      -2.294   2.361  23.418  0.00  0.00    +0.000 C 
ATOM      8  C   UNL     1      -2.801   3.601  24.170  0.00  0.00    +0.012 C 
ATOM      9  C   UNL     1      -0.789   2.134  23.704  0.00  0.00    +0.032 C 
ATOM     10  C   UNL     1      -2.607   3.479  25.694  0.00  0.00    +0.023 C 
ATOM     12  C   UNL     1      -1.214   2.996  26.046  0.00  0.00    -0.073 C 
ATOM     13  C   UNL     1      -0.411   2.410  25.140  0.00  0.00    -0.022 C 
ATOM     19  C   UNL     1      -0.749   3.245  27.453  0.00  0.00    +0.039 C 
ENDROOT
BRANCH   7  11
ATOM     11  C   UNL     1      -2.572   2.514  21.920  0.00  0.00    -0.013 C 
ATOM     16  C   UNL     1      -2.593   1.147  21.240  0.00  0.00    +0.007 C 
ATOM     17  C   UNL     1      -3.889   3.249  21.695  0.00  0.00    +0.007 C 
ENDBRANCH   7  11
BRANCH  10  14
ATOM     14  C   UNL     1      -3.675   2.575  26.316  0.00  0.00    +0.103 C 
BRANCH  14  18
ATOM      1  O   UNL     1      -5.304   2.431  24.584  0.00  0.00    -0.276 OA
ATOM      3  N   UNL     1      -4.073   0.528  25.035  0.00  0.00    -0.301 N 
ATOM     18  C   UNL     1      -4.430   1.851  25.230  0.00  0.00    +0.216 C 
ATOM     20  C   UNL     1      -4.713  -0.309  24.030  0.00  0.00    +0.108 C 
ATOM     21  C   UNL     1      -3.049  -0.215  25.762  0.00  0.00    +0.108 C 
ATOM     22  C   UNL     1      -3.820  -1.537  23.935  0.00  0.00    +0.020 C 
ATOM     23  C   UNL     1      -3.267  -1.664  25.349  0.00  0.00    +0.020 C 
ENDBRANCH  14  18
ENDBRANCH  10  14
BRANCH   9  15
ATOM     15  C   UNL     1      -0.364   0.710  23.329  0.00  0.00    +0.112 C 
BRANCH  15   4
ATOM      2  O   UNL     1       1.628  -0.296  21.522  0.00  0.00    -0.268 OA
ATOM      4  N   UNL     1       1.021   0.500  23.616  0.00  0.00    -0.309 N 
ATOM     24  C   UNL     1       1.923   0.006  22.675  0.00  0.00    +0.264 C 
ATOM     29  H   UNL     1       1.370   0.759  24.533  0.00  0.00    +0.149 HD
BRANCH  24  25
ATOM      5  N   UNL     1       4.130   0.896  23.064  0.00  0.00    -0.247 NA
ATOM      6  N   UNL     1       5.036  -1.576  24.031  0.00  0.00    -0.259 NA
ATOM     25  C   UNL     1       3.323  -0.181  23.138  0.00  0.00    +0.143 A 
ATOM     26  C   UNL     1       3.768  -1.395  23.612  0.00  0.00    +0.143 A 
ATOM     27  C   UNL     1       5.399   0.715  23.483  0.00  0.00    +0.131 A 
ATOM     28  C   UNL     1       5.843  -0.499  23.958  0.00  0.00    +0.130 A 
ENDBRANCH  24  25
ENDBRANCH  15   4
ENDBRANCH   9  15
TORSDOF 6
ENDMDL
MODEL 3
REMARK VINA RESULT:      -1.0      2.165      4.552
REMARK  Name = 38028801
REMARK  9 active torsions:
REMARK  status: ('A' for Active; 'I' for Inactive)
REMARK    1  A    between atoms: N_4  and  C_15
REMARK    2  A    between atoms: C_7  and  C_11
REMARK    3  A    between atoms: C_9  and  C_15
REMARK    4  A    between atoms: C_10  and  C_14
REMARK    5  A    between atoms: C_11  and  C_16
REMARK    6  A    between atoms: C_11  and  C_17
REMARK    7  A    between atoms: C_12  and  C_19
REMARK    8  A    between atoms: C_14  and  C_18
REMARK    9  A    between atoms: C_24  and  C_25
REMARK                            x       y       z     vdW  Elec       q    Type
REMARK                         _______ _______ _______ _____ _____    ______ ____
ROOT
ATOM      7  C   UNL     1      -3.001   2.127  23.627  0.00  0.00    +0.000 C 
ATOM      8  C   UNL     1      -4.459   1.642  23.593  0.00  0.00    +0.012 C 
ATOM      9  C   UNL     1      -2.917   3.539  24.258  0.00  0.00    +0.032 C 
ATOM     10  C   UNL     1      -5.089   1.588  24.998  0.00  0.00    +0.023 C 
ATOM     12  C   UNL     1      -4.814   2.852  25.787  0.00  0.00    -0.073 C 
ATOM     13  C   UNL     1      -3.848   3.719  25.433  0.00  0.00    -0.022 C 
ATOM     19  C   UNL     1      -5.707   3.120  26.966  0.00  0.00    +0.039 C 
ENDROOT
BRANCH   7  11
ATOM     11  C   UNL     1      -2.412   2.100  22.214  0.00  0.00    -0.013 C 
ATOM     16  C   UNL     1      -2.340   0.666  21.695  0.00  0.00    +0.007 C 
ATOM     17  C   UNL     1      -3.239   2.973  21.275  0.00  0.00    +0.007 C 
ENDBRANCH   7  11
BRANCH  10  14
ATOM     14  C   UNL     1      -4.617   0.348  25.766  0.00  0.00    +0.103 C 
BRANCH  14  18
ATOM      1  O   UNL     1      -5.043  -1.174  23.983  0.00  0.00    -0.276 OA
ATOM      3  N   UNL     1      -2.922  -1.188  24.899  0.00  0.00    -0.301 N 
ATOM     18  C   UNL     1      -4.226  -0.738  24.796  0.00  0.00    +0.216 C 
ATOM     20  C   UNL     1      -2.392  -2.237  24.040  0.00  0.00    +0.108 C 
ATOM     21  C   UNL     1      -1.907  -0.713  25.834  0.00  0.00    +0.108 C 
ATOM     22  C   UNL     1      -0.888  -2.186  24.261  0.00  0.00    +0.020 C 
ATOM     23  C   UNL     1      -0.774  -1.723  25.708  0.00  0.00    +0.020 C 
ENDBRANCH  14  18
ENDBRANCH  10  14
BRANCH   9  15
ATOM     15  C   UNL     1      -1.483   3.867  24.690  0.00  0.00    +0.112 C 
BRANCH  15   4
ATOM      2  O   UNL     1       0.212   1.836  25.807  0.00  0.00    -0.268 OA
ATOM      4  N   UNL     1      -0.541   3.057  23.983  0.00  0.00    -0.309 N 
ATOM     24  C   UNL     1       0.246   2.090  24.605  0.00  0.00    +0.264 C 
ATOM     29  H   UNL     1      -0.469   3.165  22.975  0.00  0.00    +0.149 HD
BRANCH  24  25
ATOM      5  N   UNL     1       2.457   1.825  23.679  0.00  0.00    -0.247 NA
ATOM      6  N   UNL     1       1.656  -0.437  22.227  0.00  0.00    -0.259 NA
ATOM     25  C   UNL     1       1.197   1.350  23.735  0.00  0.00    +0.143 A 
ATOM     26  C   UNL     1       0.803   0.239  23.022  0.00  0.00    +0.143 A 
ATOM     27  C   UNL     1       3.310   1.148  22.885  0.00  0.00    +0.131 A 
ATOM     28  C   UNL     1       2.916   0.037  22.171  0.00  0.00    +0.130 A 
ENDBRANCH  24  25
ENDBRANCH  15   4
ENDBRANCH   9  15
TORSDOF 6
ENDMDL
