MODEL 1
REMARK VINA RESULT:       6.0      0.000      0.000
REMARK  Name = 11885119
REMARK  4 active torsions:
REMARK  status: ('A' for Active; 'I' for Inactive)
REMARK    1  A    between atoms: O_4  and  C_30
REMARK    2  A    between atoms: O_4  and  C_31
REMARK    3  A    between atoms: C_16  and  C_19
REMARK    4  A    between atoms: C_17  and  C_20
REMARK                            x       y       z     vdW  Elec       q    Type
REMARK                         _______ _______ _______ _____ _____    ______ ____
ROOT
ATOM      2  O   UNL     1       0.837   2.126  25.331  0.00  0.00    -0.267 OA
ATOM      3  O   UNL     1      -3.340  -0.314  26.963  0.00  0.00    -0.270 OA
ATOM      5  N   UNL     1      -3.994   0.975  25.122  0.00  0.00    -0.297 N 
ATOM      6  N   UNL     1      -1.220   2.198  24.235  0.00  0.00    -0.311 N 
ATOM      7  C   UNL     1      -3.276   3.352  25.238  0.00  0.00    +0.027 C 
ATOM      8  C   UNL     1      -3.444   2.231  23.053  0.00  0.00    +0.054 C 
ATOM      9  C   UNL     1      -3.702   3.547  23.786  0.00  0.00    +0.018 C 
ATOM     10  C   UNL     1      -4.089   2.218  25.888  0.00  0.00    +0.113 C 
ATOM     11  C   UNL     1      -1.767   3.080  25.277  0.00  0.00    +0.130 C 
ATOM     12  C   UNL     1      -4.292   1.110  23.687  0.00  0.00    +0.117 C 
ATOM     13  C   UNL     1      -1.977   1.851  23.112  0.00  0.00    +0.027 A 
ATOM     14  C   UNL     1      -1.419   1.148  22.115  0.00  0.00    +0.022 A 
ATOM     15  C   UNL     1       0.126   1.812  24.373  0.00  0.00    +0.259 A 
ATOM     16  C   UNL     1      -3.590  -0.199  25.763  0.00  0.00    +0.247 C 
ATOM     17  C   UNL     1       0.710   0.985  23.260  0.00  0.00    +0.047 A 
ATOM     18  C   UNL     1      -0.056   0.705  22.196  0.00  0.00    +0.015 A 
ENDROOT
BRANCH  16  19
ATOM      1  F   UNL     1      -2.944  -4.804  22.660  0.00  0.00    -0.205 F 
ATOM     19  C   UNL     1      -3.421  -1.405  24.949  0.00  0.00    +0.037 A 
ATOM     21  C   UNL     1      -2.170  -2.013  24.862  0.00  0.00    +0.016 A 
ATOM     22  C   UNL     1      -4.511  -1.940  24.266  0.00  0.00    +0.016 A 
ATOM     25  C   UNL     1      -2.009  -3.162  24.088  0.00  0.00    +0.039 A 
ATOM     26  C   UNL     1      -4.349  -3.090  23.492  0.00  0.00    +0.039 A 
ATOM     29  C   UNL     1      -3.098  -3.701  23.403  0.00  0.00    +0.123 A 
ENDBRANCH  16  19
BRANCH  17  20
ATOM     20  C   UNL     1       2.088   0.470  23.334  0.00  0.00    -0.012 A 
ATOM     23  C   UNL     1       2.317  -0.863  23.678  0.00  0.00    +0.012 A 
ATOM     24  C   UNL     1       3.165   1.314  23.061  0.00  0.00    +0.012 A 
ATOM     27  C   UNL     1       3.622  -1.351  23.749  0.00  0.00    +0.046 A 
ATOM     28  C   UNL     1       4.469   0.826  23.131  0.00  0.00    +0.046 A 
ATOM     30  C   UNL     1       4.698  -0.506  23.476  0.00  0.00    +0.120 A 
BRANCH  30   4
ATOM      4  O   UNL     1       5.971  -0.982  23.545  0.00  0.00    -0.495 OA
ATOM     31  C   UNL     1       7.013  -0.118  23.092  0.00  0.00    +0.277 C 
ENDBRANCH  30   4
ENDBRANCH  17  20
TORSDOF 3
ENDMDL
MODEL 2
REMARK VINA RESULT:       7.4      0.873      1.449
REMARK  Name = 11885119
REMARK  4 active torsions:
REMARK  status: ('A' for Active; 'I' for Inactive)
REMARK    1  A    between atoms: O_4  and  C_30
REMARK    2  A    between atoms: O_4  and  C_31
REMARK    3  A    between atoms: C_16  and  C_19
REMARK    4  A    between atoms: C_17  and  C_20
REMARK                            x       y       z     vdW  Elec       q    Type
REMARK                         _______ _______ _______ _____ _____    ______ ____
ROOT
ATOM      2  O   UNL     1       0.285   2.498  25.383  0.00  0.00    -0.267 OA
ATOM      3  O   UNL     1      -3.772  -0.019  27.191  0.00  0.00    -0.270 OA
ATOM      5  N   UNL     1      -4.536   1.287  25.405  0.00  0.00    -0.297 N 
ATOM      6  N   UNL     1      -1.826   2.558  24.395  0.00  0.00    -0.311 N 
ATOM      7  C   UNL     1      -3.842   3.672  25.519  0.00  0.00    +0.027 C 
ATOM      8  C   UNL     1      -4.108   2.580  23.329  0.00  0.00    +0.054 C 
ATOM      9  C   UNL     1      -4.344   3.882  24.094  0.00  0.00    +0.018 C 
ATOM     10  C   UNL     1      -4.606   2.518  26.193  0.00  0.00    +0.113 C 
ATOM     11  C   UNL     1      -2.330   3.418  25.477  0.00  0.00    +0.130 C 
ATOM     12  C   UNL     1      -4.909   1.439  23.989  0.00  0.00    +0.117 C 
ATOM     13  C   UNL     1      -2.636   2.218  23.308  0.00  0.00    +0.027 A 
ATOM     14  C   UNL     1      -2.122   1.537  22.272  0.00  0.00    +0.022 A 
ATOM     15  C   UNL     1      -0.470   2.188  24.459  0.00  0.00    +0.259 A 
ATOM     16  C   UNL     1      -4.085   0.110  26.007  0.00  0.00    +0.247 C 
ATOM     17  C   UNL     1       0.066   1.385  23.305  0.00  0.00    +0.047 A 
ATOM     18  C   UNL     1      -0.750   1.110  22.277  0.00  0.00    +0.015 A 
ENDROOT
BRANCH  16  19
ATOM      1  F   UNL     1      -3.541  -4.437  22.800  0.00  0.00    -0.205 F 
ATOM     19  C   UNL     1      -3.943  -1.083  25.167  0.00  0.00    +0.037 A 
ATOM     21  C   UNL     1      -4.577  -1.137  23.927  0.00  0.00    +0.016 A 
ATOM     22  C   UNL     1      -3.174  -2.156  25.610  0.00  0.00    +0.016 A 
ATOM     25  C   UNL     1      -4.441  -2.271  23.128  0.00  0.00    +0.039 A 
ATOM     26  C   UNL     1      -3.038  -3.290  24.810  0.00  0.00    +0.039 A 
ATOM     29  C   UNL     1      -3.671  -3.348  23.568  0.00  0.00    +0.123 A 
ENDBRANCH  16  19
BRANCH  17  20
ATOM     20  C   UNL     1       1.452   0.886  23.300  0.00  0.00    -0.012 A 
ATOM     23  C   UNL     1       2.508   1.764  23.050  0.00  0.00    +0.012 A 
ATOM     24  C   UNL     1       1.710  -0.463  23.545  0.00  0.00    +0.012 A 
ATOM     27  C   UNL     1       3.821   1.292  23.045  0.00  0.00    +0.046 A 
ATOM     28  C   UNL     1       3.022  -0.934  23.541  0.00  0.00    +0.046 A 
ATOM     30  C   UNL     1       4.078  -0.057  23.290  0.00  0.00    +0.120 A 
BRANCH  30   4
ATOM      4  O   UNL     1       5.359  -0.517  23.286  0.00  0.00    -0.495 OA
ATOM     31  C   UNL     1       5.592  -1.794  23.878  0.00  0.00    +0.277 C 
ENDBRANCH  30   4
ENDBRANCH  17  20
TORSDOF 3
ENDMDL
MODEL 3
REMARK VINA RESULT:       9.0      2.752      4.633
REMARK  Name = 11885119
REMARK  4 active torsions:
REMARK  status: ('A' for Active; 'I' for Inactive)
REMARK    1  A    between atoms: O_4  and  C_30
REMARK    2  A    between atoms: O_4  and  C_31
REMARK    3  A    between atoms: C_16  and  C_19
REMARK    4  A    between atoms: C_17  and  C_20
REMARK                            x       y       z     vdW  Elec       q    Type
REMARK                         _______ _______ _______ _____ _____    ______ ____
ROOT
ATOM      2  O   UNL     1      -0.014  -1.791  22.557  0.00  0.00    -0.267 OA
ATOM      3  O   UNL     1      -3.909   1.477  22.098  0.00  0.00    -0.270 OA
ATOM      5  N   UNL     1      -4.163   0.420  24.169  0.00  0.00    -0.297 N 
ATOM      6  N   UNL     1      -1.561  -1.369  24.250  0.00  0.00    -0.311 N 
ATOM      7  C   UNL     1      -4.022  -2.060  24.070  0.00  0.00    +0.027 C 
ATOM      8  C   UNL     1      -3.226  -0.870  26.072  0.00  0.00    +0.054 C 
ATOM      9  C   UNL     1      -3.973  -2.114  25.593  0.00  0.00    +0.018 C 
ATOM     10  C   UNL     1      -4.756  -0.791  23.601  0.00  0.00    +0.113 C 
ATOM     11  C   UNL     1      -2.589  -2.134  23.527  0.00  0.00    +0.130 C 
ATOM     12  C   UNL     1      -3.990   0.395  25.632  0.00  0.00    +0.117 C 
ATOM     13  C   UNL     1      -1.817  -0.831  25.513  0.00  0.00    +0.027 A 
ATOM     14  C   UNL     1      -0.830  -0.244  26.208  0.00  0.00    +0.022 A 
ATOM     15  C   UNL     1      -0.288  -1.299  23.653  0.00  0.00    +0.259 A 
ATOM     16  C   UNL     1      -3.765   1.455  23.320  0.00  0.00    +0.247 C 
ATOM     17  C   UNL     1       0.786  -0.593  24.436  0.00  0.00    +0.047 A 
ATOM     18  C   UNL     1       0.490  -0.120  25.655  0.00  0.00    +0.015 A 
ENDROOT
BRANCH  16  19
ATOM      1  F   UNL     1      -1.206   5.881  25.583  0.00  0.00    -0.205 F 
ATOM     19  C   UNL     1      -3.095   2.615  23.915  0.00  0.00    +0.037 A 
ATOM     21  C   UNL     1      -1.705   2.636  24.014  0.00  0.00    +0.016 A 
ATOM     22  C   UNL     1      -3.849   3.691  24.376  0.00  0.00    +0.016 A 
ATOM     25  C   UNL     1      -1.067   3.741  24.578  0.00  0.00    +0.039 A 
ATOM     26  C   UNL     1      -3.210   4.795  24.940  0.00  0.00    +0.039 A 
ATOM     29  C   UNL     1      -1.819   4.821  25.042  0.00  0.00    +0.123 A 
ENDBRANCH  16  19
BRANCH  17  20
ATOM     20  C   UNL     1       2.136  -0.403  23.878  0.00  0.00    -0.012 A 
ATOM     23  C   UNL     1       3.109  -1.388  24.053  0.00  0.00    +0.012 A 
ATOM     24  C   UNL     1       2.443   0.763  23.175  0.00  0.00    +0.012 A 
ATOM     27  C   UNL     1       4.387  -1.207  23.525  0.00  0.00    +0.046 A 
ATOM     28  C   UNL     1       3.721   0.942  22.647  0.00  0.00    +0.046 A 
ATOM     30  C   UNL     1       4.694  -0.042  22.822  0.00  0.00    +0.120 A 
BRANCH  30   4
ATOM      4  O   UNL     1       5.941   0.134  22.308  0.00  0.00    -0.495 OA
ATOM     31  C   UNL     1       7.037  -0.345  23.086  0.00  0.00    +0.277 C 
ENDBRANCH  30   4
ENDBRANCH  17  20
TORSDOF 3
ENDMDL
MODEL 4
REMARK VINA RESULT:       9.4      3.182      4.067
REMARK  Name = 11885119
REMARK  4 active torsions:
REMARK  status: ('A' for Active; 'I' for Inactive)
REMARK    1  A    between atoms: O_4  and  C_30
REMARK    2  A    between atoms: O_4  and  C_31
REMARK    3  A    between atoms: C_16  and  C_19
REMARK    4  A    between atoms: C_17  and  C_20
REMARK                            x       y       z     vdW  Elec       q    Type
REMARK                         _______ _______ _______ _____ _____    ______ ____
ROOT
ATOM      2  O   UNL     1      -1.947   3.958  27.337  0.00  0.00    -0.267 OA
ATOM      3  O   UNL     1      -5.421   0.534  25.829  0.00  0.00    -0.270 OA
ATOM      5  N   UNL     1      -4.547   1.501  23.886  0.00  0.00    -0.297 N 
ATOM      6  N   UNL     1      -2.340   3.402  25.106  0.00  0.00    -0.311 N 
ATOM      7  C   UNL     1      -4.527   3.987  23.906  0.00  0.00    +0.027 C 
ATOM      8  C   UNL     1      -2.761   2.760  22.708  0.00  0.00    +0.054 C 
ATOM      9  C   UNL     1      -3.671   3.986  22.644  0.00  0.00    +0.018 C 
ATOM     10  C   UNL     1      -5.374   2.704  23.981  0.00  0.00    +0.113 C 
ATOM     11  C   UNL     1      -3.609   4.146  25.124  0.00  0.00    +0.130 C 
ATOM     12  C   UNL     1      -3.619   1.479  22.743  0.00  0.00    +0.117 C 
ATOM     13  C   UNL     1      -1.869   2.806  23.934  0.00  0.00    +0.027 A 
ATOM     14  C   UNL     1      -0.653   2.239  23.907  0.00  0.00    +0.022 A 
ATOM     15  C   UNL     1      -1.582   3.413  26.293  0.00  0.00    +0.259 A 
ATOM     16  C   UNL     1      -4.646   0.518  24.873  0.00  0.00    +0.247 C 
ATOM     17  C   UNL     1      -0.243   2.728  26.245  0.00  0.00    +0.047 A 
ATOM     18  C   UNL     1       0.167   2.197  25.084  0.00  0.00    +0.015 A 
ENDROOT
BRANCH  16  19
ATOM      1  F   UNL     1      -1.192  -3.868  24.577  0.00  0.00    -0.205 F 
ATOM     19  C   UNL     1      -3.740  -0.632  24.794  0.00  0.00    +0.037 A 
ATOM     21  C   UNL     1      -2.453  -0.536  25.317  0.00  0.00    +0.016 A 
ATOM     22  C   UNL     1      -4.171  -1.815  24.198  0.00  0.00    +0.016 A 
ATOM     25  C   UNL     1      -1.591  -1.631  25.243  0.00  0.00    +0.039 A 
ATOM     26  C   UNL     1      -3.309  -2.909  24.125  0.00  0.00    +0.039 A 
ATOM     29  C   UNL     1      -2.019  -2.818  24.647  0.00  0.00    +0.123 A 
ENDBRANCH  16  19
BRANCH  17  20
ATOM     20  C   UNL     1       0.602   2.621  27.446  0.00  0.00    -0.012 A 
ATOM     23  C   UNL     1       0.067   2.114  28.632  0.00  0.00    +0.012 A 
ATOM     24  C   UNL     1       1.936   3.025  27.400  0.00  0.00    +0.012 A 
ATOM     27  C   UNL     1       0.867   2.013  29.770  0.00  0.00    +0.046 A 
ATOM     28  C   UNL     1       2.735   2.923  28.538  0.00  0.00    +0.046 A 
ATOM     30  C   UNL     1       2.202   2.418  29.723  0.00  0.00    +0.120 A 
BRANCH  30   4
ATOM      4  O   UNL     1       2.981   2.318  30.834  0.00  0.00    -0.495 OA
ATOM     31  C   UNL     1       2.431   1.626  31.954  0.00  0.00    +0.277 C 
ENDBRANCH  30   4
ENDBRANCH  17  20
TORSDOF 3
ENDMDL
