MODEL 1
REMARK VINA RESULT:      -2.5      0.000      0.000
REMARK  Name = 75367666
REMARK  4 active torsions:
REMARK  status: ('A' for Active; 'I' for Inactive)
REMARK    1  A    between atoms: O_5  and  C_10
REMARK    2  A    between atoms: O_5  and  C_16
REMARK    3  A    between atoms: N_8  and  C_19
REMARK    4  A    between atoms: C_20  and  C_23
REMARK                            x       y       z     vdW  Elec       q    Type
REMARK                         _______ _______ _______ _____ _____    ______ ____
ROOT
ATOM      4  O   UNL     1      -4.854   4.020  26.268  0.00  0.00    -0.375 OA
ATOM      6  O   UNL     1      -0.553   2.580  26.452  0.00  0.00    -0.252 OA
ATOM      7  N   UNL     1      -2.045   4.044  25.462  0.00  0.00    -0.280 N 
ATOM      8  N   UNL     1      -0.694   2.639  24.133  0.00  0.00    -0.268 N 
ATOM     10  C   UNL     1      -4.032   3.788  23.959  0.00  0.00    +0.216 C 
ATOM     11  C   UNL     1      -2.769   4.580  24.300  0.00  0.00    +0.156 C 
ATOM     12  C   UNL     1      -2.512   4.535  26.762  0.00  0.00    +0.137 C 
ATOM     13  C   UNL     1      -4.763   3.153  25.142  0.00  0.00    +0.206 C 
ATOM     14  C   UNL     1      -3.791   3.835  27.204  0.00  0.00    +0.179 C 
ATOM     15  C   UNL     1      -1.044   3.046  25.421  0.00  0.00    +0.307 C 
ATOM     28  H   UNL     1      -1.180   3.044  23.343  0.00  0.00    +0.156 HD
ENDROOT
BRANCH   8  19
ATOM      9  N   UNL     1       2.552   1.144  23.164  0.00  0.00    -0.261 NA
ATOM     19  C   UNL     1       0.269   1.666  23.765  0.00  0.00    +0.053 A 
ATOM     24  C   UNL     1      -0.078   0.326  23.640  0.00  0.00    +0.026 A 
ATOM     25  C   UNL     1       1.586   2.020  23.519  0.00  0.00    +0.134 A 
ATOM     26  C   UNL     1       0.888  -0.606  23.277  0.00  0.00    +0.021 A 
ATOM     27  C   UNL     1       2.177  -0.150  23.053  0.00  0.00    +0.111 A 
ENDBRANCH   8  19
BRANCH  10   5
ATOM      5  O   UNL     1      -3.699   2.764  23.024  0.00  0.00    -0.485 OA
BRANCH   5  16
ATOM     16  C   UNL     1      -3.606   1.491  23.516  0.00  0.00    +0.121 A 
ATOM     17  C   UNL     1      -3.837   1.248  24.870  0.00  0.00    +0.046 A 
ATOM     18  C   UNL     1      -3.280   0.435  22.665  0.00  0.00    +0.046 A 
ATOM     20  C   UNL     1      -3.416  -1.105  24.521  0.00  0.00    +0.055 A 
ATOM     21  C   UNL     1      -3.742  -0.049  25.372  0.00  0.00    +0.016 A 
ATOM     22  C   UNL     1      -3.185  -0.862  23.167  0.00  0.00    +0.016 A 
BRANCH  20  23
ATOM      1  F   UNL     1      -4.127  -3.387  24.421  0.00  0.00    -0.166 F 
ATOM      2  F   UNL     1      -3.642  -2.594  26.380  0.00  0.00    -0.166 F 
ATOM      3  F   UNL     1      -2.054  -3.005  24.955  0.00  0.00    -0.166 F 
ATOM     23  C   UNL     1      -3.314  -2.492  25.058  0.00  0.00    +0.417 C 
ENDBRANCH  20  23
ENDBRANCH   5  16
ENDBRANCH  10   5
TORSDOF 4
ENDMDL
MODEL 2
REMARK VINA RESULT:      -2.1      2.859      4.969
REMARK  Name = 75367666
REMARK  4 active torsions:
REMARK  status: ('A' for Active; 'I' for Inactive)
REMARK    1  A    between atoms: O_5  and  C_10
REMARK    2  A    between atoms: O_5  and  C_16
REMARK    3  A    between atoms: N_8  and  C_19
REMARK    4  A    between atoms: C_20  and  C_23
REMARK                            x       y       z     vdW  Elec       q    Type
REMARK                         _______ _______ _______ _____ _____    ______ ____
ROOT
ATOM      4  O   UNL     1      -1.838   5.295  24.582  0.00  0.00    -0.375 OA
ATOM      6  O   UNL     1      -4.274   1.719  23.208  0.00  0.00    -0.252 OA
ATOM      7  N   UNL     1      -3.799   3.161  24.954  0.00  0.00    -0.280 N 
ATOM      8  N   UNL     1      -3.664   0.826  25.265  0.00  0.00    -0.268 N 
ATOM     10  C   UNL     1      -1.785   3.607  26.374  0.00  0.00    +0.216 C 
ATOM     11  C   UNL     1      -3.305   3.451  26.308  0.00  0.00    +0.156 C 
ATOM     12  C   UNL     1      -4.045   4.341  24.119  0.00  0.00    +0.137 C 
ATOM     13  C   UNL     1      -1.119   4.194  25.129  0.00  0.00    +0.206 C 
ATOM     14  C   UNL     1      -2.751   4.911  23.552  0.00  0.00    +0.179 C 
ATOM     15  C   UNL     1      -3.945   1.873  24.387  0.00  0.00    +0.307 C 
ATOM     28  H   UNL     1      -3.357   1.045  26.205  0.00  0.00    +0.156 HD
ENDROOT
BRANCH   8  19
ATOM      9  N   UNL     1      -3.277  -2.826  25.731  0.00  0.00    -0.261 NA
ATOM     19  C   UNL     1      -3.719  -0.565  24.999  0.00  0.00    +0.053 A 
ATOM     24  C   UNL     1      -4.245  -1.046  23.806  0.00  0.00    +0.026 A 
ATOM     25  C   UNL     1      -3.253  -1.488  25.921  0.00  0.00    +0.134 A 
ATOM     26  C   UNL     1      -4.288  -2.416  23.573  0.00  0.00    +0.021 A 
ATOM     27  C   UNL     1      -3.795  -3.257  24.558  0.00  0.00    +0.111 A 
ENDBRANCH   8  19
BRANCH  10   5
ATOM      5  O   UNL     1      -1.199   2.336  26.650  0.00  0.00    -0.485 OA
BRANCH   5  16
ATOM     16  C   UNL     1      -0.463   1.770  25.646  0.00  0.00    +0.121 A 
ATOM     17  C   UNL     1       0.455   2.540  24.933  0.00  0.00    +0.046 A 
ATOM     18  C   UNL     1      -0.631   0.420  25.334  0.00  0.00    +0.046 A 
ATOM     20  C   UNL     1       1.036   0.613  23.596  0.00  0.00    +0.055 A 
ATOM     21  C   UNL     1       1.204   1.962  23.909  0.00  0.00    +0.016 A 
ATOM     22  C   UNL     1       0.118  -0.157  24.310  0.00  0.00    +0.016 A 
BRANCH  20  23
ATOM      1  F   UNL     1       2.799   0.823  21.992  0.00  0.00    -0.166 F 
ATOM      2  F   UNL     1       1.090  -0.386  21.424  0.00  0.00    -0.166 F 
ATOM      3  F   UNL     1       2.498  -1.129  22.903  0.00  0.00    -0.166 F 
ATOM     23  C   UNL     1       1.837  -0.005  22.502  0.00  0.00    +0.417 C 
ENDBRANCH  20  23
ENDBRANCH   5  16
ENDBRANCH  10   5
TORSDOF 4
ENDMDL
MODEL 3
REMARK VINA RESULT:      -2.0      3.705      5.336
REMARK  Name = 75367666
REMARK  4 active torsions:
REMARK  status: ('A' for Active; 'I' for Inactive)
REMARK    1  A    between atoms: O_5  and  C_10
REMARK    2  A    between atoms: O_5  and  C_16
REMARK    3  A    between atoms: N_8  and  C_19
REMARK    4  A    between atoms: C_20  and  C_23
REMARK                            x       y       z     vdW  Elec       q    Type
REMARK                         _______ _______ _______ _____ _____    ______ ____
ROOT
ATOM      4  O   UNL     1      -4.795  -2.680  24.277  0.00  0.00    -0.375 OA
ATOM      6  O   UNL     1      -0.261  -2.551  24.473  0.00  0.00    -0.252 OA
ATOM      7  N   UNL     1      -2.240  -1.584  25.178  0.00  0.00    -0.280 N 
ATOM      8  N   UNL     1      -0.559  -0.267  24.175  0.00  0.00    -0.268 N 
ATOM     10  C   UNL     1      -4.091  -0.332  24.047  0.00  0.00    +0.216 C 
ATOM     11  C   UNL     1      -3.180  -0.457  25.270  0.00  0.00    +0.156 C 
ATOM     12  C   UNL     1      -2.770  -2.870  25.640  0.00  0.00    +0.137 C 
ATOM     13  C   UNL     1      -4.467  -1.643  23.357  0.00  0.00    +0.206 C 
ATOM     14  C   UNL     1      -3.679  -3.513  24.600  0.00  0.00    +0.179 C 
ATOM     15  C   UNL     1      -0.950  -1.537  24.599  0.00  0.00    +0.307 C 
ATOM     28  H   UNL     1      -1.208   0.505  24.277  0.00  0.00    +0.156 HD
ENDROOT
BRANCH   8  19
ATOM      9  N   UNL     1       2.597   1.555  23.521  0.00  0.00    -0.261 NA
ATOM     19  C   UNL     1       0.665   0.103  23.563  0.00  0.00    +0.053 A 
ATOM     24  C   UNL     1       1.142  -0.577  22.448  0.00  0.00    +0.026 A 
ATOM     25  C   UNL     1       1.424   1.151  24.057  0.00  0.00    +0.134 A 
ATOM     26  C   UNL     1       2.347  -0.193  21.869  0.00  0.00    +0.021 A 
ATOM     27  C   UNL     1       3.029   0.870  22.438  0.00  0.00    +0.111 A 
ENDBRANCH   8  19
BRANCH  10   5
ATOM      5  O   UNL     1      -3.470   0.527  23.092  0.00  0.00    -0.485 OA
BRANCH   5  16
ATOM     16  C   UNL     1      -3.043   1.743  23.548  0.00  0.00    +0.121 A 
ATOM     17  C   UNL     1      -1.720   2.139  23.348  0.00  0.00    +0.046 A 
ATOM     18  C   UNL     1      -3.929   2.590  24.215  0.00  0.00    +0.046 A 
ATOM     20  C   UNL     1      -2.171   4.225  24.480  0.00  0.00    +0.055 A 
ATOM     21  C   UNL     1      -1.285   3.379  23.814  0.00  0.00    +0.016 A 
ATOM     22  C   UNL     1      -3.494   3.830  24.680  0.00  0.00    +0.016 A 
BRANCH  20  23
ATOM      1  F   UNL     1      -2.082   6.597  24.183  0.00  0.00    -0.166 F 
ATOM      2  F   UNL     1      -0.347   5.652  25.078  0.00  0.00    -0.166 F 
ATOM      3  F   UNL     1      -2.186   5.844  26.221  0.00  0.00    -0.166 F 
ATOM     23  C   UNL     1      -1.706   5.551  24.978  0.00  0.00    +0.417 C 
ENDBRANCH  20  23
ENDBRANCH   5  16
ENDBRANCH  10   5
TORSDOF 4
ENDMDL
MODEL 4
REMARK VINA RESULT:      -1.3      3.479      5.802
REMARK  Name = 75367666
REMARK  4 active torsions:
REMARK  status: ('A' for Active; 'I' for Inactive)
REMARK    1  A    between atoms: O_5  and  C_10
REMARK    2  A    between atoms: O_5  and  C_16
REMARK    3  A    between atoms: N_8  and  C_19
REMARK    4  A    between atoms: C_20  and  C_23
REMARK                            x       y       z     vdW  Elec       q    Type
REMARK                         _______ _______ _______ _____ _____    ______ ____
ROOT
ATOM      4  O   UNL     1      -1.037   5.074  24.458  0.00  0.00    -0.375 OA
ATOM      6  O   UNL     1      -3.910   1.689  25.408  0.00  0.00    -0.252 OA
ATOM      7  N   UNL     1      -1.798   2.567  25.755  0.00  0.00    -0.280 N 
ATOM      8  N   UNL     1      -2.058   0.339  25.024  0.00  0.00    -0.268 N 
ATOM     10  C   UNL     1       0.209   2.955  24.309  0.00  0.00    +0.216 C 
ATOM     11  C   UNL     1      -0.332   2.510  25.668  0.00  0.00    +0.156 C 
ATOM     12  C   UNL     1      -2.344   3.871  26.144  0.00  0.00    +0.137 C 
ATOM     13  C   UNL     1      -0.600   4.034  23.589  0.00  0.00    +0.206 C 
ATOM     14  C   UNL     1      -2.349   4.852  24.979  0.00  0.00    +0.179 C 
ATOM     15  C   UNL     1      -2.687   1.526  25.398  0.00  0.00    +0.307 C 
ATOM     28  H   UNL     1      -1.046   0.308  25.002  0.00  0.00    +0.156 HD
ENDROOT
BRANCH   8  19
ATOM      9  N   UNL     1      -2.487  -3.257  24.256  0.00  0.00    -0.261 NA
ATOM     19  C   UNL     1      -2.668  -0.874  24.618  0.00  0.00    +0.053 A 
ATOM     24  C   UNL     1      -3.993  -0.903  24.198  0.00  0.00    +0.026 A 
ATOM     25  C   UNL     1      -1.965  -2.067  24.629  0.00  0.00    +0.134 A 
ATOM     26  C   UNL     1      -4.566  -2.109  23.806  0.00  0.00    +0.021 A 
ATOM     27  C   UNL     1      -3.777  -3.247  23.853  0.00  0.00    +0.111 A 
ENDBRANCH   8  19
BRANCH  10   5
ATOM      5  O   UNL     1       0.316   1.817  23.455  0.00  0.00    -0.485 OA
BRANCH   5  16
ATOM     16  C   UNL     1       1.511   1.152  23.467  0.00  0.00    +0.121 A 
ATOM     17  C   UNL     1       2.698   1.846  23.234  0.00  0.00    +0.046 A 
ATOM     18  C   UNL     1       1.543  -0.221  23.712  0.00  0.00    +0.046 A 
ATOM     20  C   UNL     1       3.949  -0.205  23.491  0.00  0.00    +0.055 A 
ATOM     21  C   UNL     1       3.917   1.168  23.246  0.00  0.00    +0.016 A 
ATOM     22  C   UNL     1       2.762  -0.899  23.724  0.00  0.00    +0.016 A 
BRANCH  20  23
ATOM      1  F   UNL     1       5.127  -2.282  23.350  0.00  0.00    -0.166 F 
ATOM      2  F   UNL     1       5.957  -0.768  24.662  0.00  0.00    -0.166 F 
ATOM      3  F   UNL     1       6.089  -0.524  22.506  0.00  0.00    -0.166 F 
ATOM     23  C   UNL     1       5.252  -0.930  23.504  0.00  0.00    +0.417 C 
ENDBRANCH  20  23
ENDBRANCH   5  16
ENDBRANCH  10   5
TORSDOF 4
ENDMDL
MODEL 5
REMARK VINA RESULT:       0.2      3.245      4.823
REMARK  Name = 75367666
REMARK  4 active torsions:
REMARK  status: ('A' for Active; 'I' for Inactive)
REMARK    1  A    between atoms: O_5  and  C_10
REMARK    2  A    between atoms: O_5  and  C_16
REMARK    3  A    between atoms: N_8  and  C_19
REMARK    4  A    between atoms: C_20  and  C_23
REMARK                            x       y       z     vdW  Elec       q    Type
REMARK                         _______ _______ _______ _____ _____    ______ ____
ROOT
ATOM      4  O   UNL     1      -5.454   1.840  24.701  0.00  0.00    -0.375 OA
ATOM      6  O   UNL     1      -2.588   4.141  27.366  0.00  0.00    -0.252 OA
ATOM      7  N   UNL     1      -2.980   3.296  25.249  0.00  0.00    -0.280 N 
ATOM      8  N   UNL     1      -0.977   2.786  26.385  0.00  0.00    -0.268 N 
ATOM     10  C   UNL     1      -3.180   0.997  24.278  0.00  0.00    +0.216 C 
ATOM     11  C   UNL     1      -2.653   2.423  24.112  0.00  0.00    +0.156 C 
ATOM     12  C   UNL     1      -4.293   3.943  25.173  0.00  0.00    +0.137 C 
ATOM     13  C   UNL     1      -4.489   0.854  25.054  0.00  0.00    +0.206 C 
ATOM     14  C   UNL     1      -5.417   2.987  25.552  0.00  0.00    +0.179 C 
ATOM     15  C   UNL     1      -2.195   3.464  26.414  0.00  0.00    +0.307 C 
ATOM     28  H   UNL     1      -0.753   2.214  25.579  0.00  0.00    +0.156 HD
ENDROOT
BRANCH   8  19
ATOM      9  N   UNL     1       2.361   2.903  27.982  0.00  0.00    -0.261 NA
ATOM     19  C   UNL     1       0.022   2.757  27.390  0.00  0.00    +0.053 A 
ATOM     24  C   UNL     1      -0.312   2.565  28.726  0.00  0.00    +0.026 A 
ATOM     25  C   UNL     1       1.361   2.920  27.074  0.00  0.00    +0.134 A 
ATOM     26  C   UNL     1       0.689   2.543  29.691  0.00  0.00    +0.021 A 
ATOM     27  C   UNL     1       1.998   2.715  29.271  0.00  0.00    +0.111 A 
ENDBRANCH   8  19
BRANCH  10   5
ATOM      5  O   UNL     1      -2.180   0.203  24.915  0.00  0.00    -0.485 OA
BRANCH   5  16
ATOM     16  C   UNL     1      -0.935   0.216  24.350  0.00  0.00    +0.121 A 
ATOM     17  C   UNL     1      -0.311  -0.984  24.008  0.00  0.00    +0.046 A 
ATOM     18  C   UNL     1      -0.287   1.429  24.116  0.00  0.00    +0.046 A 
ATOM     20  C   UNL     1       1.607   0.243  23.198  0.00  0.00    +0.055 A 
ATOM     21  C   UNL     1       0.959  -0.971  23.432  0.00  0.00    +0.016 A 
ATOM     22  C   UNL     1       0.983   1.442  23.540  0.00  0.00    +0.016 A 
BRANCH  20  23
ATOM      1  F   UNL     1       3.687   1.379  22.876  0.00  0.00    -0.166 F 
ATOM      2  F   UNL     1       2.948   0.192  21.218  0.00  0.00    -0.166 F 
ATOM      3  F   UNL     1       3.736  -0.793  22.988  0.00  0.00    -0.166 F 
ATOM     23  C   UNL     1       2.964   0.257  22.582  0.00  0.00    +0.417 C 
ENDBRANCH  20  23
ENDBRANCH   5  16
ENDBRANCH  10   5
TORSDOF 4
ENDMDL
MODEL 6
REMARK VINA RESULT:       0.3      3.740      6.671
REMARK  Name = 75367666
REMARK  4 active torsions:
REMARK  status: ('A' for Active; 'I' for Inactive)
REMARK    1  A    between atoms: O_5  and  C_10
REMARK    2  A    between atoms: O_5  and  C_16
REMARK    3  A    between atoms: N_8  and  C_19
REMARK    4  A    between atoms: C_20  and  C_23
REMARK                            x       y       z     vdW  Elec       q    Type
REMARK                         _______ _______ _______ _____ _____    ______ ____
ROOT
ATOM      4  O   UNL     1      -2.302  -3.037  24.363  0.00  0.00    -0.375 OA
ATOM      6  O   UNL     1      -5.052   0.274  25.806  0.00  0.00    -0.252 OA
ATOM      7  N   UNL     1      -3.972  -0.668  23.990  0.00  0.00    -0.280 N 
ATOM      8  N   UNL     1      -3.718   1.627  24.470  0.00  0.00    -0.268 N 
ATOM     10  C   UNL     1      -1.578  -0.934  23.306  0.00  0.00    +0.216 C 
ATOM     11  C   UNL     1      -3.013  -0.624  22.877  0.00  0.00    +0.156 C 
ATOM     12  C   UNL     1      -4.517  -1.997  24.285  0.00  0.00    +0.137 C 
ATOM     13  C   UNL     1      -1.425  -1.920  24.465  0.00  0.00    +0.206 C 
ATOM     14  C   UNL     1      -3.529  -2.851  25.070  0.00  0.00    +0.179 C 
ATOM     15  C   UNL     1      -4.310   0.418  24.831  0.00  0.00    +0.307 C 
ATOM     28  H   UNL     1      -3.085   1.646  23.679  0.00  0.00    +0.156 HD
ENDROOT
BRANCH   8  19
ATOM      9  N   UNL     1      -5.314   4.639  25.915  0.00  0.00    -0.261 NA
ATOM     19  C   UNL     1      -3.859   2.885  25.107  0.00  0.00    +0.053 A 
ATOM     24  C   UNL     1      -2.748   3.595  25.546  0.00  0.00    +0.026 A 
ATOM     25  C   UNL     1      -5.109   3.446  25.315  0.00  0.00    +0.134 A 
ATOM     26  C   UNL     1      -2.917   4.827  26.170  0.00  0.00    +0.021 A 
ATOM     27  C   UNL     1      -4.209   5.300  26.328  0.00  0.00    +0.111 A 
ENDBRANCH   8  19
BRANCH  10   5
ATOM      5  O   UNL     1      -0.924   0.285  23.652  0.00  0.00    -0.485 OA
BRANCH   5  16
ATOM     16  C   UNL     1       0.435   0.317  23.496  0.00  0.00    +0.121 A 
ATOM     17  C   UNL     1       1.154   1.455  23.862  0.00  0.00    +0.046 A 
ATOM     18  C   UNL     1       1.103  -0.789  22.969  0.00  0.00    +0.046 A 
ATOM     20  C   UNL     1       3.206   0.381  23.175  0.00  0.00    +0.055 A 
ATOM     21  C   UNL     1       2.538   1.487  23.702  0.00  0.00    +0.016 A 
ATOM     22  C   UNL     1       2.488  -0.757  22.809  0.00  0.00    +0.016 A 
BRANCH  20  23
ATOM      1  F   UNL     1       5.088   0.377  21.698  0.00  0.00    -0.166 F 
ATOM      2  F   UNL     1       5.332  -0.627  23.605  0.00  0.00    -0.166 F 
ATOM      3  F   UNL     1       5.250   1.544  23.526  0.00  0.00    -0.166 F 
ATOM     23  C   UNL     1       4.687   0.416  23.004  0.00  0.00    +0.417 C 
ENDBRANCH  20  23
ENDBRANCH   5  16
ENDBRANCH  10   5
TORSDOF 4
ENDMDL
MODEL 7
REMARK VINA RESULT:       0.5      3.899      6.813
REMARK  Name = 75367666
REMARK  4 active torsions:
REMARK  status: ('A' for Active; 'I' for Inactive)
REMARK    1  A    between atoms: O_5  and  C_10
REMARK    2  A    between atoms: O_5  and  C_16
REMARK    3  A    between atoms: N_8  and  C_19
REMARK    4  A    between atoms: C_20  and  C_23
REMARK                            x       y       z     vdW  Elec       q    Type
REMARK                         _______ _______ _______ _____ _____    ______ ____
ROOT
ATOM      4  O   UNL     1      -1.552  -3.305  25.017  0.00  0.00    -0.375 OA
ATOM      6  O   UNL     1      -5.087  -0.592  24.153  0.00  0.00    -0.252 OA
ATOM      7  N   UNL     1      -2.828  -0.964  23.821  0.00  0.00    -0.280 N 
ATOM      8  N   UNL     1      -3.587   1.111  24.649  0.00  0.00    -0.268 N 
ATOM     10  C   UNL     1      -0.808  -0.974  25.300  0.00  0.00    +0.216 C 
ATOM     11  C   UNL     1      -1.413  -0.589  23.949  0.00  0.00    +0.156 C 
ATOM     12  C   UNL     1      -3.066  -2.334  23.356  0.00  0.00    +0.137 C 
ATOM     13  C   UNL     1      -1.369  -2.241  25.946  0.00  0.00    +0.206 C 
ATOM     14  C   UNL     1      -2.872  -3.351  24.473  0.00  0.00    +0.179 C 
ATOM     15  C   UNL     1      -3.931  -0.164  24.203  0.00  0.00    +0.307 C 
ATOM     28  H   UNL     1      -2.607   1.364  24.700  0.00  0.00    +0.156 HD
ENDROOT
BRANCH   8  19
ATOM      9  N   UNL     1      -6.398   2.783  26.383  0.00  0.00    -0.261 NA
ATOM     19  C   UNL     1      -4.457   2.137  25.095  0.00  0.00    +0.053 A 
ATOM     24  C   UNL     1      -4.258   3.460  24.718  0.00  0.00    +0.026 A 
ATOM     25  C   UNL     1      -5.532   1.854  25.922  0.00  0.00    +0.134 A 
ATOM     26  C   UNL     1      -5.127   4.445  25.173  0.00  0.00    +0.021 A 
ATOM     27  C   UNL     1      -6.173   4.058  25.995  0.00  0.00    +0.111 A 
ENDBRANCH   8  19
BRANCH  10   5
ATOM      5  O   UNL     1      -0.970   0.113  26.209  0.00  0.00    -0.485 OA
BRANCH   5  16
ATOM     16  C   UNL     1      -0.847   1.372  25.686  0.00  0.00    +0.121 A 
ATOM     17  C   UNL     1      -0.307   1.549  24.413  0.00  0.00    +0.046 A 
ATOM     18  C   UNL     1      -1.262   2.479  26.427  0.00  0.00    +0.046 A 
ATOM     20  C   UNL     1      -0.596   3.938  24.621  0.00  0.00    +0.055 A 
ATOM     21  C   UNL     1      -0.181   2.831  23.880  0.00  0.00    +0.016 A 
ATOM     22  C   UNL     1      -1.137   3.761  25.895  0.00  0.00    +0.016 A 
BRANCH  20  23
ATOM      1  F   UNL     1       0.217   6.175  24.862  0.00  0.00    -0.166 F 
ATOM      2  F   UNL     1      -1.659   5.920  23.805  0.00  0.00    -0.166 F 
ATOM      3  F   UNL     1       0.206   5.322  22.862  0.00  0.00    -0.166 F 
ATOM     23  C   UNL     1      -0.462   5.310  24.052  0.00  0.00    +0.417 C 
ENDBRANCH  20  23
ENDBRANCH   5  16
ENDBRANCH  10   5
TORSDOF 4
ENDMDL
