MODEL 1
REMARK VINA RESULT:      11.9      0.000      0.000
REMARK  Name = 26743266
REMARK  10 active torsions:
REMARK  status: ('A' for Active; 'I' for Inactive)
REMARK    1  A    between atoms: C_8  and  C_12
REMARK    2  A    between atoms: C_9  and  C_14
REMARK    3  A    between atoms: C_12  and  C_15
REMARK    4  A    between atoms: C_14  and  C_16
REMARK    5  A    between atoms: C_22  and  C_24
REMARK    6  A    between atoms: C_23  and  C_27
REMARK    7  A    between atoms: C_25  and  C_26
REMARK    8  A    between atoms: C_25  and  C_32
REMARK    9  A    between atoms: C_25  and  C_33
REMARK   10  A    between atoms: C_25  and  C_34
REMARK                            x       y       z     vdW  Elec       q    Type
REMARK                         _______ _______ _______ _____ _____    ______ ____
ROOT
ATOM      4  N   UNL     1      -7.020   3.192  25.499  0.00  0.00    -0.316 NA
ATOM      8  C   UNL     1      -4.215   3.036  24.599  0.00  0.00    +0.004 C 
ATOM      9  C   UNL     1      -5.207   1.858  24.452  0.00  0.00    +0.012 C 
ATOM     10  C   UNL     1      -5.006   4.353  24.664  0.00  0.00    +0.019 C 
ATOM     11  C   UNL     1      -6.314   1.911  25.519  0.00  0.00    +0.085 C 
ATOM     13  C   UNL     1      -6.113   4.317  25.718  0.00  0.00    +0.081 C 
ATOM     35  H   UNL     1      -7.738   3.192  26.224  0.00  0.00    +0.122 HD
ENDROOT
BRANCH   8  12
ATOM     12  C   UNL     1      -3.267   2.909  25.797  0.00  0.00    +0.100 C 
BRANCH  12  15
ATOM      1  O   UNL     1      -1.665   3.709  24.246  0.00  0.00    -0.276 OA
ATOM      3  O   UNL     1       1.936   2.177  30.227  0.00  0.00    -0.276 OA
ATOM      5  N   UNL     1      -0.924   3.373  26.422  0.00  0.00    -0.298 N 
ATOM      6  N   UNL     1       1.212   2.449  28.038  0.00  0.00    -0.299 N 
ATOM     15  C   UNL     1      -1.885   3.368  25.412  0.00  0.00    +0.216 C 
ATOM     17  C   UNL     1       0.445   3.803  26.128  0.00  0.00    +0.126 C 
ATOM     18  C   UNL     1      -1.171   3.046  27.833  0.00  0.00    +0.126 C 
ATOM     19  C   UNL     1       1.458   2.777  26.627  0.00  0.00    +0.126 C 
ATOM     20  C   UNL     1      -0.158   2.019  28.332  0.00  0.00    +0.126 C 
ATOM     23  C   UNL     1       2.171   2.457  29.049  0.00  0.00    +0.213 C 
ATOM     27  C   UNL     1       3.573   2.839  28.646  0.00  0.00    +0.109 C 
ENDBRANCH  12  15
ENDBRANCH   8  12
BRANCH   9  14
ATOM     14  C   UNL     1      -4.520   0.492  24.459  0.00  0.00    +0.064 C 
BRANCH  14  16
ATOM      2  O   UNL     1      -1.543   1.048  22.511  0.00  0.00    -0.354 OA
ATOM      7  N   UNL     1      -2.916   1.131  22.710  0.00  0.00    -0.083 NA
ATOM     16  C   UNL     1      -3.126   0.577  23.907  0.00  0.00    +0.085 A 
ATOM     21  C   UNL     1      -1.935   0.132  24.506  0.00  0.00    +0.076 A 
ATOM     22  C   UNL     1      -0.970   0.451  23.588  0.00  0.00    +0.167 A 
BRANCH  22  24
ATOM     24  C   UNL     1       0.454   0.295  23.526  0.00  0.00    +0.020 A 
ATOM     26  C   UNL     1       3.225  -0.010  23.405  0.00  0.00    -0.042 A 
ATOM     28  C   UNL     1       1.018  -0.980  23.576  0.00  0.00    +0.012 A 
ATOM     29  C   UNL     1       1.276   1.416  23.416  0.00  0.00    +0.012 A 
ATOM     30  C   UNL     1       2.403  -1.133  23.515  0.00  0.00    +0.005 A 
ATOM     31  C   UNL     1       2.661   1.264  23.355  0.00  0.00    +0.005 A 
BRANCH  26  25
ATOM     25  C   UNL     1       4.706  -0.174  23.341  0.00  0.00    -0.013 C 
ATOM     32  C   UNL     1       5.145  -1.567  23.887  0.00  0.00    +0.015 C 
ATOM     33  C   UNL     1       5.224  -0.057  21.874  0.00  0.00    +0.015 C 
ATOM     34  C   UNL     1       5.533   0.873  24.159  0.00  0.00    +0.015 C 
ENDBRANCH  26  25
ENDBRANCH  22  24
ENDBRANCH  14  16
ENDBRANCH   9  14
TORSDOF 6
ENDMDL
MODEL 2
REMARK VINA RESULT:      12.0      2.581      4.278
REMARK  Name = 26743266
REMARK  10 active torsions:
REMARK  status: ('A' for Active; 'I' for Inactive)
REMARK    1  A    between atoms: C_8  and  C_12
REMARK    2  A    between atoms: C_9  and  C_14
REMARK    3  A    between atoms: C_12  and  C_15
REMARK    4  A    between atoms: C_14  and  C_16
REMARK    5  A    between atoms: C_22  and  C_24
REMARK    6  A    between atoms: C_23  and  C_27
REMARK    7  A    between atoms: C_25  and  C_26
REMARK    8  A    between atoms: C_25  and  C_32
REMARK    9  A    between atoms: C_25  and  C_33
REMARK   10  A    between atoms: C_25  and  C_34
REMARK                            x       y       z     vdW  Elec       q    Type
REMARK                         _______ _______ _______ _____ _____    ______ ____
ROOT
ATOM      4  N   UNL     1      -2.370  -2.962  24.211  0.00  0.00    -0.316 NA
ATOM      8  C   UNL     1      -4.618  -1.052  24.119  0.00  0.00    +0.004 C 
ATOM      9  C   UNL     1      -3.315  -0.849  23.310  0.00  0.00    +0.012 C 
ATOM     10  C   UNL     1      -4.797  -2.551  24.413  0.00  0.00    +0.019 C 
ATOM     11  C   UNL     1      -2.116  -1.540  23.982  0.00  0.00    +0.085 C 
ATOM     13  C   UNL     1      -3.553  -3.176  25.043  0.00  0.00    +0.081 C 
ATOM     35  H   UNL     1      -1.559  -3.382  24.664  0.00  0.00    +0.122 HD
ENDROOT
BRANCH   8  12
ATOM     12  C   UNL     1      -4.684  -0.231  25.412  0.00  0.00    +0.100 C 
BRANCH  12  15
ATOM      1  O   UNL     1      -6.357   1.280  24.683  0.00  0.00    -0.276 OA
ATOM      3  O   UNL     1      -0.419   5.156  25.579  0.00  0.00    -0.276 OA
ATOM      5  N   UNL     1      -4.342   2.214  25.363  0.00  0.00    -0.298 N 
ATOM      6  N   UNL     1      -2.409   4.217  24.837  0.00  0.00    -0.299 N 
ATOM     15  C   UNL     1      -5.209   1.151  25.119  0.00  0.00    +0.216 C 
ATOM     17  C   UNL     1      -4.776   3.588  25.101  0.00  0.00    +0.126 C 
ATOM     18  C   UNL     1      -3.001   2.100  25.951  0.00  0.00    +0.126 C 
ATOM     19  C   UNL     1      -3.751   4.331  24.249  0.00  0.00    +0.126 C 
ATOM     20  C   UNL     1      -1.975   2.842  25.099  0.00  0.00    +0.126 C 
ATOM     23  C   UNL     1      -1.542   5.280  25.084  0.00  0.00    +0.213 C 
ATOM     27  C   UNL     1      -2.038   6.655  24.715  0.00  0.00    +0.109 C 
ENDBRANCH  12  15
ENDBRANCH   8  12
BRANCH   9  14
ATOM     14  C   UNL     1      -3.003   0.622  23.035  0.00  0.00    +0.064 C 
BRANCH  14  16
ATOM      2  O   UNL     1       0.322   1.996  22.907  0.00  0.00    -0.354 OA
ATOM      7  N   UNL     1      -1.060   2.115  22.841  0.00  0.00    -0.083 NA
ATOM     16  C   UNL     1      -1.524   0.878  23.040  0.00  0.00    +0.085 A 
ATOM     21  C   UNL     1      -0.490  -0.054  23.236  0.00  0.00    +0.076 A 
ATOM     22  C   UNL     1       0.650   0.699  23.143  0.00  0.00    +0.167 A 
BRANCH  22  24
ATOM     24  C   UNL     1       2.054   0.421  23.238  0.00  0.00    +0.020 A 
ATOM     26  C   UNL     1       4.784  -0.121  23.421  0.00  0.00    -0.042 A 
ATOM     28  C   UNL     1       2.489  -0.857  23.589  0.00  0.00    +0.012 A 
ATOM     29  C   UNL     1       2.984   1.427  22.978  0.00  0.00    +0.012 A 
ATOM     30  C   UNL     1       3.854  -1.128  23.681  0.00  0.00    +0.005 A 
ATOM     31  C   UNL     1       4.349   1.156  23.069  0.00  0.00    +0.005 A 
BRANCH  26  25
ATOM     25  C   UNL     1       6.244  -0.412  23.520  0.00  0.00    -0.013 C 
ATOM     32  C   UNL     1       7.060   0.883  23.821  0.00  0.00    +0.015 C 
ATOM     33  C   UNL     1       6.540  -1.432  24.662  0.00  0.00    +0.015 C 
ATOM     34  C   UNL     1       6.895  -1.025  22.235  0.00  0.00    +0.015 C 
ENDBRANCH  26  25
ENDBRANCH  22  24
ENDBRANCH  14  16
ENDBRANCH   9  14
TORSDOF 6
ENDMDL
MODEL 3
REMARK VINA RESULT:      12.7      2.624      4.006
REMARK  Name = 26743266
REMARK  10 active torsions:
REMARK  status: ('A' for Active; 'I' for Inactive)
REMARK    1  A    between atoms: C_8  and  C_12
REMARK    2  A    between atoms: C_9  and  C_14
REMARK    3  A    between atoms: C_12  and  C_15
REMARK    4  A    between atoms: C_14  and  C_16
REMARK    5  A    between atoms: C_22  and  C_24
REMARK    6  A    between atoms: C_23  and  C_27
REMARK    7  A    between atoms: C_25  and  C_26
REMARK    8  A    between atoms: C_25  and  C_32
REMARK    9  A    between atoms: C_25  and  C_33
REMARK   10  A    between atoms: C_25  and  C_34
REMARK                            x       y       z     vdW  Elec       q    Type
REMARK                         _______ _______ _______ _____ _____    ______ ____
ROOT
ATOM      4  N   UNL     1      -6.460   3.269  26.671  0.00  0.00    -0.316 NA
ATOM      8  C   UNL     1      -4.493   1.638  25.193  0.00  0.00    +0.004 C 
ATOM      9  C   UNL     1      -4.492   3.186  25.158  0.00  0.00    +0.012 C 
ATOM     10  C   UNL     1      -5.176   1.167  26.488  0.00  0.00    +0.019 C 
ATOM     11  C   UNL     1      -5.896   3.761  25.414  0.00  0.00    +0.085 C 
ATOM     13  C   UNL     1      -6.546   1.810  26.694  0.00  0.00    +0.081 C 
ATOM     35  H   UNL     1      -7.391   3.664  26.800  0.00  0.00    +0.122 HD
ENDROOT
BRANCH   8  12
ATOM     12  C   UNL     1      -5.142   0.987  23.966  0.00  0.00    +0.100 C 
BRANCH  12  15
ATOM      1  O   UNL     1      -6.072  -1.190  24.064  0.00  0.00    -0.276 OA
ATOM      3  O   UNL     1       0.912  -1.941  25.382  0.00  0.00    -0.276 OA
ATOM      5  N   UNL     1      -3.756  -1.047  24.157  0.00  0.00    -0.298 N 
ATOM      6  N   UNL     1      -1.405  -2.079  25.356  0.00  0.00    -0.299 N 
ATOM     15  C   UNL     1      -5.040  -0.513  24.065  0.00  0.00    +0.216 C 
ATOM     17  C   UNL     1      -3.571  -2.496  24.258  0.00  0.00    +0.126 C 
ATOM     18  C   UNL     1      -2.507  -0.277  24.086  0.00  0.00    +0.126 C 
ATOM     19  C   UNL     1      -2.655  -2.849  25.427  0.00  0.00    +0.126 C 
ATOM     20  C   UNL     1      -1.591  -0.628  25.254  0.00  0.00    +0.126 C 
ATOM     23  C   UNL     1      -0.121  -2.612  25.445  0.00  0.00    +0.213 C 
ATOM     27  C   UNL     1      -0.022  -4.106  25.625  0.00  0.00    +0.109 C 
ENDBRANCH  12  15
ENDBRANCH   8  12
BRANCH   9  14
ATOM     14  C   UNL     1      -3.905   3.755  23.867  0.00  0.00    +0.064 C 
BRANCH  14  16
ATOM      2  O   UNL     1      -1.526   1.676  22.141  0.00  0.00    -0.354 OA
ATOM      7  N   UNL     1      -2.769   2.286  22.257  0.00  0.00    -0.083 NA
ATOM     16  C   UNL     1      -2.716   2.961  23.409  0.00  0.00    +0.085 A 
ATOM     21  C   UNL     1      -1.477   2.816  24.056  0.00  0.00    +0.076 A 
ATOM     22  C   UNL     1      -0.765   1.999  23.218  0.00  0.00    +0.167 A 
BRANCH  22  24
ATOM     24  C   UNL     1       0.554   1.437  23.237  0.00  0.00    +0.020 A 
ATOM     26  C   UNL     1       3.121   0.345  23.277  0.00  0.00    -0.042 A 
ATOM     28  C   UNL     1       1.601   2.138  23.836  0.00  0.00    +0.012 A 
ATOM     29  C   UNL     1       0.791   0.190  22.659  0.00  0.00    +0.012 A 
ATOM     30  C   UNL     1       2.884   1.592  23.855  0.00  0.00    +0.005 A 
ATOM     31  C   UNL     1       2.074  -0.356  22.679  0.00  0.00    +0.005 A 
BRANCH  26  25
ATOM     25  C   UNL     1       4.493  -0.238  23.297  0.00  0.00    -0.013 C 
ATOM     32  C   UNL     1       4.465  -1.737  23.729  0.00  0.00    +0.015 C 
ATOM     33  C   UNL     1       5.158  -0.167  21.888  0.00  0.00    +0.015 C 
ATOM     34  C   UNL     1       5.503   0.457  24.269  0.00  0.00    +0.015 C 
ENDBRANCH  26  25
ENDBRANCH  22  24
ENDBRANCH  14  16
ENDBRANCH   9  14
TORSDOF 6
ENDMDL
MODEL 4
REMARK VINA RESULT:      13.7      2.666      4.627
REMARK  Name = 26743266
REMARK  10 active torsions:
REMARK  status: ('A' for Active; 'I' for Inactive)
REMARK    1  A    between atoms: C_8  and  C_12
REMARK    2  A    between atoms: C_9  and  C_14
REMARK    3  A    between atoms: C_12  and  C_15
REMARK    4  A    between atoms: C_14  and  C_16
REMARK    5  A    between atoms: C_22  and  C_24
REMARK    6  A    between atoms: C_23  and  C_27
REMARK    7  A    between atoms: C_25  and  C_26
REMARK    8  A    between atoms: C_25  and  C_32
REMARK    9  A    between atoms: C_25  and  C_33
REMARK   10  A    between atoms: C_25  and  C_34
REMARK                            x       y       z     vdW  Elec       q    Type
REMARK                         _______ _______ _______ _____ _____    ______ ____
ROOT
ATOM      4  N   UNL     1      -3.414   5.703  23.974  0.00  0.00    -0.316 NA
ATOM      8  C   UNL     1      -1.600   3.555  24.868  0.00  0.00    +0.004 C 
ATOM      9  C   UNL     1      -2.308   3.533  23.493  0.00  0.00    +0.012 C 
ATOM     10  C   UNL     1      -1.482   5.012  25.348  0.00  0.00    +0.019 C 
ATOM     11  C   UNL     1      -3.624   4.329  23.519  0.00  0.00    +0.085 C 
ATOM     13  C   UNL     1      -2.819   5.750  25.308  0.00  0.00    +0.081 C 
ATOM     35  H   UNL     1      -4.308   6.195  23.986  0.00  0.00    +0.122 HD
ENDROOT
BRANCH   8  12
ATOM     12  C   UNL     1      -2.275   2.683  25.933  0.00  0.00    +0.100 C 
BRANCH  12  15
ATOM      1  O   UNL     1      -0.387   1.320  26.365  0.00  0.00    -0.276 OA
ATOM      3  O   UNL     1      -5.374  -2.992  23.605  0.00  0.00    -0.276 OA
ATOM      5  N   UNL     1      -2.332   0.224  25.725  0.00  0.00    -0.298 N 
ATOM      6  N   UNL     1      -3.413  -1.892  24.180  0.00  0.00    -0.299 N 
ATOM     15  C   UNL     1      -1.574   1.353  26.030  0.00  0.00    +0.216 C 
ATOM     17  C   UNL     1      -1.723  -1.107  25.793  0.00  0.00    +0.126 C 
ATOM     18  C   UNL     1      -3.764   0.223  25.397  0.00  0.00    +0.126 C 
ATOM     19  C   UNL     1      -1.980  -1.891  24.509  0.00  0.00    +0.126 C 
ATOM     20  C   UNL     1      -4.021  -0.560  24.113  0.00  0.00    +0.126 C 
ATOM     23  C   UNL     1      -4.171  -3.020  23.877  0.00  0.00    +0.213 C 
ATOM     27  C   UNL     1      -3.450  -4.344  23.896  0.00  0.00    +0.109 C 
ENDBRANCH  12  15
ENDBRANCH   8  12
BRANCH   9  14
ATOM     14  C   UNL     1      -2.547   2.118  22.965  0.00  0.00    +0.064 C 
BRANCH  14  16
ATOM      2  O   UNL     1       0.060  -0.303  22.417  0.00  0.00    -0.354 OA
ATOM      7  N   UNL     1      -1.262   0.117  22.344  0.00  0.00    -0.083 NA
ATOM     16  C   UNL     1      -1.265   1.343  22.876  0.00  0.00    +0.085 A 
ATOM     21  C   UNL     1       0.015   1.746  23.296  0.00  0.00    +0.076 A 
ATOM     22  C   UNL     1       0.811   0.675  22.985  0.00  0.00    +0.167 A 
BRANCH  22  24
ATOM     24  C   UNL     1       2.208   0.383  23.127  0.00  0.00    +0.020 A 
ATOM     26  C   UNL     1       4.925  -0.188  23.402  0.00  0.00    -0.042 A 
ATOM     28  C   UNL     1       2.619  -0.905  23.472  0.00  0.00    +0.012 A 
ATOM     29  C   UNL     1       3.156   1.384  22.921  0.00  0.00    +0.012 A 
ATOM     30  C   UNL     1       3.977  -1.191  23.610  0.00  0.00    +0.005 A 
ATOM     31  C   UNL     1       4.514   1.099  23.058  0.00  0.00    +0.005 A 
BRANCH  26  25
ATOM     25  C   UNL     1       6.377  -0.493  23.551  0.00  0.00    -0.013 C 
ATOM     32  C   UNL     1       7.204   0.803  23.813  0.00  0.00    +0.015 C 
ATOM     33  C   UNL     1       6.631  -1.464  24.745  0.00  0.00    +0.015 C 
ATOM     34  C   UNL     1       7.050  -1.173  22.312  0.00  0.00    +0.015 C 
ENDBRANCH  26  25
ENDBRANCH  22  24
ENDBRANCH  14  16
ENDBRANCH   9  14
TORSDOF 6
ENDMDL
MODEL 5
REMARK VINA RESULT:      13.8      2.389      4.436
REMARK  Name = 26743266
REMARK  10 active torsions:
REMARK  status: ('A' for Active; 'I' for Inactive)
REMARK    1  A    between atoms: C_8  and  C_12
REMARK    2  A    between atoms: C_9  and  C_14
REMARK    3  A    between atoms: C_12  and  C_15
REMARK    4  A    between atoms: C_14  and  C_16
REMARK    5  A    between atoms: C_22  and  C_24
REMARK    6  A    between atoms: C_23  and  C_27
REMARK    7  A    between atoms: C_25  and  C_26
REMARK    8  A    between atoms: C_25  and  C_32
REMARK    9  A    between atoms: C_25  and  C_33
REMARK   10  A    between atoms: C_25  and  C_34
REMARK                            x       y       z     vdW  Elec       q    Type
REMARK                         _______ _______ _______ _____ _____    ______ ____
ROOT
ATOM      4  N   UNL     1      -7.012   3.981  26.017  0.00  0.00    -0.316 NA
ATOM      8  C   UNL     1      -4.335   2.978  25.289  0.00  0.00    +0.004 C 
ATOM      9  C   UNL     1      -4.560   4.022  26.409  0.00  0.00    +0.012 C 
ATOM     10  C   UNL     1      -5.621   2.157  25.103  0.00  0.00    +0.019 C 
ATOM     11  C   UNL     1      -5.840   4.842  26.170  0.00  0.00    +0.085 C 
ATOM     13  C   UNL     1      -6.855   3.038  24.912  0.00  0.00    +0.081 C 
ATOM     35  H   UNL     1      -7.837   4.559  25.853  0.00  0.00    +0.122 HD
ENDROOT
BRANCH   8  12
ATOM     12  C   UNL     1      -3.874   3.581  23.957  0.00  0.00    +0.100 C 
BRANCH  12  15
ATOM      1  O   UNL     1      -3.511   2.725  21.778  0.00  0.00    -0.276 OA
ATOM      3  O   UNL     1      -3.318  -2.895  26.191  0.00  0.00    -0.276 OA
ATOM      5  N   UNL     1      -3.234   1.234  23.538  0.00  0.00    -0.298 N 
ATOM      6  N   UNL     1      -3.660  -1.422  24.429  0.00  0.00    -0.299 N 
ATOM     15  C   UNL     1      -3.523   2.482  22.988  0.00  0.00    +0.216 C 
ATOM     17  C   UNL     1      -2.885   0.112  22.662  0.00  0.00    +0.126 C 
ATOM     18  C   UNL     1      -3.166   0.931  24.973  0.00  0.00    +0.126 C 
ATOM     19  C   UNL     1      -3.726  -1.118  22.993  0.00  0.00    +0.126 C 
ATOM     20  C   UNL     1      -4.008  -0.298  25.304  0.00  0.00    +0.126 C 
ATOM     23  C   UNL     1      -3.367  -2.668  24.979  0.00  0.00    +0.213 C 
ATOM     27  C   UNL     1      -3.096  -3.788  24.006  0.00  0.00    +0.109 C 
ENDBRANCH  12  15
ENDBRANCH   8  12
BRANCH   9  14
ATOM     14  C   UNL     1      -3.361   4.947  26.617  0.00  0.00    +0.064 C 
BRANCH  14  16
ATOM      2  O   UNL     1      -0.536   4.642  24.405  0.00  0.00    -0.354 OA
ATOM      7  N   UNL     1      -1.564   5.368  24.993  0.00  0.00    -0.083 NA
ATOM     16  C   UNL     1      -2.180   4.502  25.804  0.00  0.00    +0.085 A 
ATOM     21  C   UNL     1      -1.590   3.227  25.769  0.00  0.00    +0.076 A 
ATOM     22  C   UNL     1      -0.561   3.368  24.875  0.00  0.00    +0.167 A 
BRANCH  22  24
ATOM     24  C   UNL     1       0.449   2.494  24.354  0.00  0.00    +0.020 A 
ATOM     26  C   UNL     1       2.413   0.792  23.339  0.00  0.00    -0.042 A 
ATOM     28  C   UNL     1       0.305   1.111  24.477  0.00  0.00    +0.012 A 
ATOM     29  C   UNL     1       1.574   3.024  23.724  0.00  0.00    +0.012 A 
ATOM     30  C   UNL     1       1.287   0.261  23.970  0.00  0.00    +0.005 A 
ATOM     31  C   UNL     1       2.556   2.174  23.216  0.00  0.00    +0.005 A 
BRANCH  26  25
ATOM     25  C   UNL     1       3.463  -0.118  22.798  0.00  0.00    -0.013 C 
ATOM     32  C   UNL     1       3.369  -0.230  21.245  0.00  0.00    +0.015 C 
ATOM     33  C   UNL     1       4.893   0.398  23.147  0.00  0.00    +0.015 C 
ATOM     34  C   UNL     1       3.412  -1.591  23.325  0.00  0.00    +0.015 C 
ENDBRANCH  26  25
ENDBRANCH  22  24
ENDBRANCH  14  16
ENDBRANCH   9  14
TORSDOF 6
ENDMDL
MODEL 6
REMARK VINA RESULT:      14.4      2.772      4.022
REMARK  Name = 26743266
REMARK  10 active torsions:
REMARK  status: ('A' for Active; 'I' for Inactive)
REMARK    1  A    between atoms: C_8  and  C_12
REMARK    2  A    between atoms: C_9  and  C_14
REMARK    3  A    between atoms: C_12  and  C_15
REMARK    4  A    between atoms: C_14  and  C_16
REMARK    5  A    between atoms: C_22  and  C_24
REMARK    6  A    between atoms: C_23  and  C_27
REMARK    7  A    between atoms: C_25  and  C_26
REMARK    8  A    between atoms: C_25  and  C_32
REMARK    9  A    between atoms: C_25  and  C_33
REMARK   10  A    between atoms: C_25  and  C_34
REMARK                            x       y       z     vdW  Elec       q    Type
REMARK                         _______ _______ _______ _____ _____    ______ ____
ROOT
ATOM      4  N   UNL     1      -3.368   5.970  25.899  0.00  0.00    -0.316 NA
ATOM      8  C   UNL     1      -3.855   3.063  26.028  0.00  0.00    +0.004 C 
ATOM      9  C   UNL     1      -3.153   3.740  24.827  0.00  0.00    +0.012 C 
ATOM     10  C   UNL     1      -3.674   3.943  27.276  0.00  0.00    +0.019 C 
ATOM     11  C   UNL     1      -3.587   5.208  24.670  0.00  0.00    +0.085 C 
ATOM     13  C   UNL     1      -4.088   5.393  27.033  0.00  0.00    +0.081 C 
ATOM     35  H   UNL     1      -3.675   6.933  25.759  0.00  0.00    +0.122 HD
ENDROOT
BRANCH   8  12
ATOM     12  C   UNL     1      -5.337   2.750  25.790  0.00  0.00    +0.100 C 
BRANCH  12  15
ATOM      1  O   UNL     1      -6.548   1.321  24.341  0.00  0.00    -0.276 OA
ATOM      3  O   UNL     1      -0.348  -1.976  25.673  0.00  0.00    -0.276 OA
ATOM      5  N   UNL     1      -4.345   0.728  24.778  0.00  0.00    -0.298 N 
ATOM      6  N   UNL     1      -2.569  -1.419  25.289  0.00  0.00    -0.299 N 
ATOM     15  C   UNL     1      -5.472   1.540  24.903  0.00  0.00    +0.216 C 
ATOM     17  C   UNL     1      -4.396  -0.469  23.936  0.00  0.00    +0.126 C 
ATOM     18  C   UNL     1      -3.030   1.000  25.372  0.00  0.00    +0.126 C 
ATOM     19  C   UNL     1      -3.885  -1.691  24.694  0.00  0.00    +0.126 C 
ATOM     20  C   UNL     1      -2.519  -0.221  26.131  0.00  0.00    +0.126 C 
ATOM     23  C   UNL     1      -1.442  -2.229  25.162  0.00  0.00    +0.213 C 
ATOM     27  C   UNL     1      -1.601  -3.483  24.340  0.00  0.00    +0.109 C 
ENDBRANCH  12  15
ENDBRANCH   8  12
BRANCH   9  14
ATOM     14  C   UNL     1      -3.344   2.981  23.514  0.00  0.00    +0.064 C 
BRANCH  14  16
ATOM      2  O   UNL     1      -0.883   0.777  22.082  0.00  0.00    -0.354 OA
ATOM      7  N   UNL     1      -2.155   1.332  22.132  0.00  0.00    -0.083 NA
ATOM     16  C   UNL     1      -2.120   2.186  23.159  0.00  0.00    +0.085 A 
ATOM     21  C   UNL     1      -0.864   2.213  23.788  0.00  0.00    +0.076 A 
ATOM     22  C   UNL     1      -0.122   1.310  23.073  0.00  0.00    +0.167 A 
BRANCH  22  24
ATOM     24  C   UNL     1       1.226   0.829  23.148  0.00  0.00    +0.020 A 
ATOM     26  C   UNL     1       3.851  -0.106  23.294  0.00  0.00    -0.042 A 
ATOM     28  C   UNL     1       2.292   1.728  23.085  0.00  0.00    +0.012 A 
ATOM     29  C   UNL     1       1.475  -0.537  23.283  0.00  0.00    +0.012 A 
ATOM     30  C   UNL     1       3.604   1.261  23.157  0.00  0.00    +0.005 A 
ATOM     31  C   UNL     1       2.786  -1.004  23.357  0.00  0.00    +0.005 A 
BRANCH  26  25
ATOM     25  C   UNL     1       5.254  -0.605  23.370  0.00  0.00    -0.013 C 
ATOM     32  C   UNL     1       6.103   0.243  24.367  0.00  0.00    +0.015 C 
ATOM     33  C   UNL     1       5.301  -2.087  23.854  0.00  0.00    +0.015 C 
ATOM     34  C   UNL     1       6.050  -0.582  22.023  0.00  0.00    +0.015 C 
ENDBRANCH  26  25
ENDBRANCH  22  24
ENDBRANCH  14  16
ENDBRANCH   9  14
TORSDOF 6
ENDMDL
