MODEL 1
REMARK VINA RESULT:      -1.0      0.000      0.000
REMARK  Name = 28959666
REMARK  10 active torsions:
REMARK  status: ('A' for Active; 'I' for Inactive)
REMARK    1  A    between atoms: O_2  and  C_23
REMARK    2  A    between atoms: O_5  and  C_29
REMARK    3  A    between atoms: O_5  and  C_30
REMARK    4  A    between atoms: N_6  and  C_14
REMARK    5  A    between atoms: C_9  and  C_11
REMARK    6  A    between atoms: C_10  and  C_17
REMARK    7  A    between atoms: C_11  and  C_14
REMARK    8  A    between atoms: C_16  and  C_22
REMARK    9  A    between atoms: C_17  and  C_23
REMARK   10  A    between atoms: C_21  and  C_24
REMARK                            x       y       z     vdW  Elec       q    Type
REMARK                         _______ _______ _______ _____ _____    ______ ____
ROOT
ATOM      1  O   UNL     1      -0.639   5.031  25.011  0.00  0.00    -0.270 OA
ATOM      7  N   UNL     1      -0.578   3.077  23.728  0.00  0.00    -0.297 N 
ATOM      9  C   UNL     1      -0.402   0.601  23.586  0.00  0.00    +0.011 C 
ATOM     10  C   UNL     1       1.066   0.772  23.121  0.00  0.00    +0.006 C 
ATOM     12  C   UNL     1      -1.218   1.855  23.218  0.00  0.00    +0.112 C 
ATOM     13  C   UNL     1       1.676   2.086  23.639  0.00  0.00    +0.023 C 
ATOM     15  C   UNL     1       0.798   3.281  23.280  0.00  0.00    +0.108 C 
ATOM     21  C   UNL     1      -1.172   4.010  24.579  0.00  0.00    +0.247 C 
ENDROOT
BRANCH  21  24
ATOM     24  C   UNL     1      -2.555   3.771  25.008  0.00  0.00    +0.037 A 
ATOM     25  C   UNL     1      -2.940   4.067  26.316  0.00  0.00    +0.016 A 
ATOM     26  C   UNL     1      -3.484   3.247  24.109  0.00  0.00    +0.016 A 
ATOM     27  C   UNL     1      -4.253   3.838  26.725  0.00  0.00    +0.046 A 
ATOM     28  C   UNL     1      -4.797   3.018  24.518  0.00  0.00    +0.046 A 
ATOM     29  C   UNL     1      -5.182   3.314  25.826  0.00  0.00    +0.120 A 
BRANCH  29   5
ATOM      5  O   UNL     1      -6.465   3.090  26.225  0.00  0.00    -0.495 OA
ATOM     30  C   UNL     1      -6.779   1.779  26.693  0.00  0.00    +0.277 C 
ENDBRANCH  29   5
ENDBRANCH  21  24
BRANCH   9  11
ATOM     11  C   UNL     1      -0.549   0.290  25.080  0.00  0.00    +0.021 C 
BRANCH  11  14
ATOM     14  C   UNL     1      -2.015   0.134  25.462  0.00  0.00    +0.085 C 
BRANCH  14   6
ATOM      6  N   UNL     1      -2.659  -0.821  24.571  0.00  0.00    -0.291 NA
ATOM     16  C   UNL     1      -2.587  -2.203  25.057  0.00  0.00    +0.143 C 
ATOM     18  C   UNL     1      -4.080  -0.523  24.376  0.00  0.00    +0.085 C 
ATOM     19  C   UNL     1      -3.853  -2.888  24.543  0.00  0.00    +0.029 C 
ATOM     20  C   UNL     1      -4.588  -1.811  23.759  0.00  0.00    +0.017 C 
BRANCH  16  22
ATOM      3  O   UNL     1      -1.328  -3.232  23.311  0.00  0.00    -0.274 OA
ATOM      8  N   UNL     1      -0.294  -2.871  25.335  0.00  0.00    -0.328 N 
ATOM     22  C   UNL     1      -1.358  -2.812  24.466  0.00  0.00    +0.228 C 
ATOM     31  H   UNL     1      -0.342  -2.521  26.286  0.00  0.00    +0.145 HD
ATOM     32  H   UNL     1       0.593  -3.269  25.044  0.00  0.00    +0.145 HD
ENDBRANCH  16  22
ENDBRANCH  14   6
ENDBRANCH  11  14
ENDBRANCH   9  11
BRANCH  10  17
ATOM     17  C   UNL     1       1.956  -0.417  23.490  0.00  0.00    +0.124 C 
BRANCH  17  23
ATOM      4  O   UNL     1       3.768   0.565  22.188  0.00  0.00    -0.251 OA
ATOM     23  C   UNL     1       3.379  -0.199  23.058  0.00  0.00    +0.305 C 
BRANCH  23   2
ATOM      2  O   UNL     1       4.205  -0.989  23.792  0.00  0.00    -0.481 OA
ATOM     33  H   UNL     1       5.048  -0.536  24.007  0.00  0.00    +0.295 HD
ENDBRANCH  23   2
ENDBRANCH  17  23
ENDBRANCH  10  17
TORSDOF 9
ENDMDL
MODEL 2
REMARK VINA RESULT:      -0.4      1.560      4.557
REMARK  Name = 28959666
REMARK  10 active torsions:
REMARK  status: ('A' for Active; 'I' for Inactive)
REMARK    1  A    between atoms: O_2  and  C_23
REMARK    2  A    between atoms: O_5  and  C_29
REMARK    3  A    between atoms: O_5  and  C_30
REMARK    4  A    between atoms: N_6  and  C_14
REMARK    5  A    between atoms: C_9  and  C_11
REMARK    6  A    between atoms: C_10  and  C_17
REMARK    7  A    between atoms: C_11  and  C_14
REMARK    8  A    between atoms: C_16  and  C_22
REMARK    9  A    between atoms: C_17  and  C_23
REMARK   10  A    between atoms: C_21  and  C_24
REMARK                            x       y       z     vdW  Elec       q    Type
REMARK                         _______ _______ _______ _____ _____    ______ ____
ROOT
ATOM      1  O   UNL     1      -4.671  -1.875  24.202  0.00  0.00    -0.270 OA
ATOM      7  N   UNL     1      -2.548  -1.041  24.717  0.00  0.00    -0.297 N 
ATOM      9  C   UNL     1      -0.600   0.390  24.135  0.00  0.00    +0.011 C 
ATOM     10  C   UNL     1       0.169  -0.892  23.726  0.00  0.00    +0.006 C 
ATOM     12  C   UNL     1      -1.674   0.045  25.184  0.00  0.00    +0.112 C 
ATOM     13  C   UNL     1      -0.789  -2.014  23.292  0.00  0.00    +0.023 C 
ATOM     15  C   UNL     1      -1.853  -2.275  24.354  0.00  0.00    +0.108 C 
ATOM     21  C   UNL     1      -3.937  -0.971  24.597  0.00  0.00    +0.247 C 
ENDROOT
BRANCH  21  24
ATOM     24  C   UNL     1      -4.599   0.284  24.970  0.00  0.00    +0.037 A 
ATOM     25  C   UNL     1      -4.474   1.408  24.153  0.00  0.00    +0.016 A 
ATOM     26  C   UNL     1      -5.353   0.355  26.141  0.00  0.00    +0.016 A 
ATOM     27  C   UNL     1      -5.101   2.602  24.507  0.00  0.00    +0.046 A 
ATOM     28  C   UNL     1      -5.981   1.548  26.496  0.00  0.00    +0.046 A 
ATOM     29  C   UNL     1      -5.855   2.672  25.679  0.00  0.00    +0.120 A 
BRANCH  29   5
ATOM      5  O   UNL     1      -6.468   3.837  26.026  0.00  0.00    -0.495 OA
ATOM     30  C   UNL     1      -6.040   5.021  25.354  0.00  0.00    +0.277 C 
ENDBRANCH  29   5
ENDBRANCH  21  24
BRANCH   9  11
ATOM     11  C   UNL     1      -1.230   1.139  22.955  0.00  0.00    +0.021 C 
BRANCH  11  14
ATOM     14  C   UNL     1      -0.852   2.614  22.983  0.00  0.00    +0.085 C 
BRANCH  14   6
ATOM      6  N   UNL     1      -1.551   3.284  24.071  0.00  0.00    -0.291 NA
ATOM     16  C   UNL     1      -0.648   3.981  24.994  0.00  0.00    +0.143 C 
ATOM     18  C   UNL     1      -2.502   4.285  23.583  0.00  0.00    +0.085 C 
ATOM     19  C   UNL     1      -1.441   5.178  25.520  0.00  0.00    +0.029 C 
ATOM     20  C   UNL     1      -2.800   5.073  24.844  0.00  0.00    +0.017 C 
BRANCH  16  22
ATOM      3  O   UNL     1      -1.076   2.817  27.032  0.00  0.00    -0.274 OA
ATOM      8  N   UNL     1       0.914   2.423  25.947  0.00  0.00    -0.328 N 
ATOM     22  C   UNL     1      -0.314   3.023  26.090  0.00  0.00    +0.228 C 
ATOM     31  H   UNL     1       1.529   2.610  25.162  0.00  0.00    +0.145 HD
ATOM     32  H   UNL     1       1.249   1.755  26.634  0.00  0.00    +0.145 HD
ENDBRANCH  16  22
ENDBRANCH  14   6
ENDBRANCH  11  14
ENDBRANCH   9  11
BRANCH  10  17
ATOM     17  C   UNL     1       1.228  -0.642  22.651  0.00  0.00    +0.124 C 
BRANCH  17  23
ATOM      4  O   UNL     1       2.393   1.337  23.469  0.00  0.00    -0.251 OA
ATOM     23  C   UNL     1       2.389   0.148  23.189  0.00  0.00    +0.305 C 
BRANCH  23   2
ATOM      2  O   UNL     1       3.468  -0.664  23.330  0.00  0.00    -0.481 OA
ATOM     33  H   UNL     1       3.256  -1.595  23.105  0.00  0.00    +0.295 HD
ENDBRANCH  23   2
ENDBRANCH  17  23
ENDBRANCH  10  17
TORSDOF 9
ENDMDL
MODEL 3
REMARK VINA RESULT:      -0.1      1.899      7.213
REMARK  Name = 28959666
REMARK  10 active torsions:
REMARK  status: ('A' for Active; 'I' for Inactive)
REMARK    1  A    between atoms: O_2  and  C_23
REMARK    2  A    between atoms: O_5  and  C_29
REMARK    3  A    between atoms: O_5  and  C_30
REMARK    4  A    between atoms: N_6  and  C_14
REMARK    5  A    between atoms: C_9  and  C_11
REMARK    6  A    between atoms: C_10  and  C_17
REMARK    7  A    between atoms: C_11  and  C_14
REMARK    8  A    between atoms: C_16  and  C_22
REMARK    9  A    between atoms: C_17  and  C_23
REMARK   10  A    between atoms: C_21  and  C_24
REMARK                            x       y       z     vdW  Elec       q    Type
REMARK                         _______ _______ _______ _____ _____    ______ ____
ROOT
ATOM      1  O   UNL     1      -1.176  -1.080  26.638  0.00  0.00    -0.270 OA
ATOM      7  N   UNL     1      -2.806  -0.701  25.004  0.00  0.00    -0.297 N 
ATOM      9  C   UNL     1      -4.100   0.874  23.581  0.00  0.00    +0.011 C 
ATOM     10  C   UNL     1      -5.312   0.671  24.527  0.00  0.00    +0.006 C 
ATOM     12  C   UNL     1      -3.187  -0.365  23.625  0.00  0.00    +0.112 C 
ATOM     13  C   UNL     1      -4.864   0.275  25.944  0.00  0.00    +0.023 C 
ATOM     15  C   UNL     1      -3.929  -0.930  25.912  0.00  0.00    +0.108 C 
ATOM     21  C   UNL     1      -1.499  -0.804  25.483  0.00  0.00    +0.247 C 
ENDROOT
BRANCH  21  24
ATOM     24  C   UNL     1      -0.399  -0.567  24.543  0.00  0.00    +0.037 A 
ATOM     25  C   UNL     1      -0.431   0.543  23.698  0.00  0.00    +0.016 A 
ATOM     26  C   UNL     1       0.679  -1.451  24.492  0.00  0.00    +0.016 A 
ATOM     27  C   UNL     1       0.614   0.768  22.802  0.00  0.00    +0.046 A 
ATOM     28  C   UNL     1       1.724  -1.226  23.596  0.00  0.00    +0.046 A 
ATOM     29  C   UNL     1       1.692  -0.117  22.751  0.00  0.00    +0.120 A 
BRANCH  29   5
ATOM      5  O   UNL     1       2.712   0.103  21.877  0.00  0.00    -0.495 OA
ATOM     30  C   UNL     1       3.883   0.736  22.392  0.00  0.00    +0.277 C 
ENDBRANCH  29   5
ENDBRANCH  21  24
BRANCH   9  11
ATOM     11  C   UNL     1      -3.289   2.142  23.874  0.00  0.00    +0.021 C 
BRANCH  11  14
ATOM     14  C   UNL     1      -3.201   2.398  25.372  0.00  0.00    +0.085 C 
BRANCH  14   6
ATOM      6  N   UNL     1      -2.307   3.518  25.632  0.00  0.00    -0.291 NA
ATOM     16  C   UNL     1      -0.933   3.276  25.182  0.00  0.00    +0.143 C 
ATOM     18  C   UNL     1      -2.753   4.746  24.970  0.00  0.00    +0.085 C 
ATOM     19  C   UNL     1      -0.380   4.647  24.792  0.00  0.00    +0.029 C 
ATOM     20  C   UNL     1      -1.518   5.619  25.067  0.00  0.00    +0.017 C 
BRANCH  16  22
ATOM      3  O   UNL     1      -0.662   2.665  27.472  0.00  0.00    -0.274 OA
ATOM      8  N   UNL     1       1.064   2.227  26.014  0.00  0.00    -0.328 N 
ATOM     22  C   UNL     1      -0.187   2.695  26.339  0.00  0.00    +0.228 C 
ATOM     31  H   UNL     1       1.437   2.266  25.071  0.00  0.00    +0.145 HD
ATOM     32  H   UNL     1       1.663   1.814  26.721  0.00  0.00    +0.145 HD
ENDBRANCH  16  22
ENDBRANCH  14   6
ENDBRANCH  11  14
ENDBRANCH   9  11
BRANCH  10  17
ATOM     17  C   UNL     1      -6.247   1.881  24.575  0.00  0.00    +0.124 C 
BRANCH  17  23
ATOM      4  O   UNL     1      -6.489   1.899  27.000  0.00  0.00    -0.251 OA
ATOM     23  C   UNL     1      -6.295   2.489  25.949  0.00  0.00    +0.305 C 
BRANCH  23   2
ATOM      2  O   UNL     1      -6.085   3.828  25.863  0.00  0.00    -0.481 OA
ATOM     33  H   UNL     1      -6.925   4.323  25.748  0.00  0.00    +0.295 HD
ENDBRANCH  23   2
ENDBRANCH  17  23
ENDBRANCH  10  17
TORSDOF 9
ENDMDL
MODEL 4
REMARK VINA RESULT:      -0.1      1.666      4.760
REMARK  Name = 28959666
REMARK  10 active torsions:
REMARK  status: ('A' for Active; 'I' for Inactive)
REMARK    1  A    between atoms: O_2  and  C_23
REMARK    2  A    between atoms: O_5  and  C_29
REMARK    3  A    between atoms: O_5  and  C_30
REMARK    4  A    between atoms: N_6  and  C_14
REMARK    5  A    between atoms: C_9  and  C_11
REMARK    6  A    between atoms: C_10  and  C_17
REMARK    7  A    between atoms: C_11  and  C_14
REMARK    8  A    between atoms: C_16  and  C_22
REMARK    9  A    between atoms: C_17  and  C_23
REMARK   10  A    between atoms: C_21  and  C_24
REMARK                            x       y       z     vdW  Elec       q    Type
REMARK                         _______ _______ _______ _____ _____    ______ ____
ROOT
ATOM      1  O   UNL     1      -1.959  -2.720  23.926  0.00  0.00    -0.270 OA
ATOM      7  N   UNL     1      -0.573  -0.966  24.615  0.00  0.00    -0.297 N 
ATOM      9  C   UNL     1       0.448   1.260  24.194  0.00  0.00    +0.011 C 
ATOM     10  C   UNL     1       1.780   0.542  23.858  0.00  0.00    +0.006 C 
ATOM     12  C   UNL     1      -0.390   0.391  25.149  0.00  0.00    +0.112 C 
ATOM     13  C   UNL     1       1.539  -0.889  23.348  0.00  0.00    +0.023 C 
ATOM     15  C   UNL     1       0.667  -1.681  24.318  0.00  0.00    +0.108 C 
ATOM     21  C   UNL     1      -1.801  -1.587  24.378  0.00  0.00    +0.247 C 
ENDROOT
BRANCH  21  24
ATOM     24  C   UNL     1      -3.024  -0.838  24.687  0.00  0.00    +0.037 A 
ATOM     25  C   UNL     1      -3.866  -0.422  23.656  0.00  0.00    +0.016 A 
ATOM     26  C   UNL     1      -3.344  -0.541  26.012  0.00  0.00    +0.016 A 
ATOM     27  C   UNL     1      -5.028   0.292  23.949  0.00  0.00    +0.046 A 
ATOM     28  C   UNL     1      -4.505   0.173  26.306  0.00  0.00    +0.046 A 
ATOM     29  C   UNL     1      -5.348   0.589  25.275  0.00  0.00    +0.120 A 
BRANCH  29   5
ATOM      5  O   UNL     1      -6.482   1.286  25.561  0.00  0.00    -0.495 OA
ATOM     30  C   UNL     1      -6.686   1.662  26.923  0.00  0.00    +0.277 C 
ENDBRANCH  29   5
ENDBRANCH  21  24
BRANCH   9  11
ATOM     11  C   UNL     1      -0.379   1.646  22.961  0.00  0.00    +0.021 C 
BRANCH  11  14
ATOM     14  C   UNL     1      -1.820   1.948  23.347  0.00  0.00    +0.085 C 
BRANCH  14   6
ATOM      6  N   UNL     1      -1.925   3.312  23.845  0.00  0.00    -0.291 NA
ATOM     16  C   UNL     1      -2.778   3.429  25.032  0.00  0.00    +0.143 C 
ATOM     18  C   UNL     1      -0.621   3.868  24.213  0.00  0.00    +0.085 C 
ATOM     19  C   UNL     1      -2.201   4.592  25.841  0.00  0.00    +0.029 C 
ATOM     20  C   UNL     1      -1.017   5.086  25.024  0.00  0.00    +0.017 C 
BRANCH  16  22
ATOM      3  O   UNL     1      -4.455   3.711  23.359  0.00  0.00    -0.274 OA
ATOM      8  N   UNL     1      -5.041   4.045  25.559  0.00  0.00    -0.328 N 
ATOM     22  C   UNL     1      -4.160   3.731  24.552  0.00  0.00    +0.228 C 
ATOM     31  H   UNL     1      -4.775   4.059  26.538  0.00  0.00    +0.145 HD
ATOM     32  H   UNL     1      -6.008   4.271  25.351  0.00  0.00    +0.145 HD
ENDBRANCH  16  22
ENDBRANCH  14   6
ENDBRANCH  11  14
ENDBRANCH   9  11
BRANCH  10  17
ATOM     17  C   UNL     1       2.653   1.324  22.875  0.00  0.00    +0.124 C 
BRANCH  17  23
ATOM      4  O   UNL     1       4.835   0.721  23.781  0.00  0.00    -0.251 OA
ATOM     23  C   UNL     1       4.059   0.793  22.839  0.00  0.00    +0.305 C 
BRANCH  23   2
ATOM      2  O   UNL     1       4.363   0.387  21.579  0.00  0.00    -0.481 OA
ATOM     33  H   UNL     1       3.592   0.461  20.976  0.00  0.00    +0.295 HD
ENDBRANCH  23   2
ENDBRANCH  17  23
ENDBRANCH  10  17
TORSDOF 9
ENDMDL
MODEL 5
REMARK VINA RESULT:      -0.0      1.605      7.562
REMARK  Name = 28959666
REMARK  10 active torsions:
REMARK  status: ('A' for Active; 'I' for Inactive)
REMARK    1  A    between atoms: O_2  and  C_23
REMARK    2  A    between atoms: O_5  and  C_29
REMARK    3  A    between atoms: O_5  and  C_30
REMARK    4  A    between atoms: N_6  and  C_14
REMARK    5  A    between atoms: C_9  and  C_11
REMARK    6  A    between atoms: C_10  and  C_17
REMARK    7  A    between atoms: C_11  and  C_14
REMARK    8  A    between atoms: C_16  and  C_22
REMARK    9  A    between atoms: C_17  and  C_23
REMARK   10  A    between atoms: C_21  and  C_24
REMARK                            x       y       z     vdW  Elec       q    Type
REMARK                         _______ _______ _______ _____ _____    ______ ____
ROOT
ATOM      1  O   UNL     1      -1.082  -2.952  23.817  0.00  0.00    -0.270 OA
ATOM      7  N   UNL     1      -2.411  -1.044  23.563  0.00  0.00    -0.297 N 
ATOM      9  C   UNL     1      -3.252   1.124  24.441  0.00  0.00    +0.011 C 
ATOM     10  C   UNL     1      -4.591   0.423  24.780  0.00  0.00    +0.006 C 
ATOM     12  C   UNL     1      -2.555   0.392  23.279  0.00  0.00    +0.112 C 
ATOM     13  C   UNL     1      -4.396  -1.084  25.021  0.00  0.00    +0.023 C 
ATOM     15  C   UNL     1      -3.663  -1.740  23.855  0.00  0.00    +0.108 C 
ATOM     21  C   UNL     1      -1.208  -1.752  23.576  0.00  0.00    +0.247 C 
ENDROOT
BRANCH  21  24
ATOM     24  C   UNL     1       0.028  -1.020  23.278  0.00  0.00    +0.037 A 
ATOM     25  C   UNL     1       0.562  -1.049  21.990  0.00  0.00    +0.016 A 
ATOM     26  C   UNL     1       0.669  -0.295  24.283  0.00  0.00    +0.016 A 
ATOM     27  C   UNL     1       1.738  -0.355  21.706  0.00  0.00    +0.046 A 
ATOM     28  C   UNL     1       1.845   0.398  24.000  0.00  0.00    +0.046 A 
ATOM     29  C   UNL     1       2.380   0.369  22.712  0.00  0.00    +0.120 A 
BRANCH  29   5
ATOM      5  O   UNL     1       3.528   1.047  22.436  0.00  0.00    -0.495 OA
ATOM     30  C   UNL     1       4.728   0.563  23.037  0.00  0.00    +0.277 C 
ENDBRANCH  29   5
ENDBRANCH  21  24
BRANCH   9  11
ATOM     11  C   UNL     1      -2.298   1.256  25.635  0.00  0.00    +0.021 C 
BRANCH  11  14
ATOM     14  C   UNL     1      -0.980   1.889  25.212  0.00  0.00    +0.085 C 
BRANCH  14   6
ATOM      6  N   UNL     1      -1.228   3.183  24.592  0.00  0.00    -0.291 NA
ATOM     16  C   UNL     1      -1.539   4.238  25.564  0.00  0.00    +0.143 C 
ATOM     18  C   UNL     1      -0.078   3.656  23.819  0.00  0.00    +0.085 C 
ATOM     19  C   UNL     1      -1.012   5.534  24.948  0.00  0.00    +0.029 C 
ATOM     20  C   UNL     1      -0.421   5.117  23.609  0.00  0.00    +0.017 C 
BRANCH  16  22
ATOM      3  O   UNL     1      -3.570   4.224  26.817  0.00  0.00    -0.274 OA
ATOM      8  N   UNL     1      -3.704   4.336  24.522  0.00  0.00    -0.328 N 
ATOM     22  C   UNL     1      -3.025   4.270  25.716  0.00  0.00    +0.228 C 
ATOM     31  H   UNL     1      -3.234   4.370  23.624  0.00  0.00    +0.145 HD
ATOM     32  H   UNL     1      -4.718   4.360  24.503  0.00  0.00    +0.145 HD
ENDBRANCH  16  22
ENDBRANCH  14   6
ENDBRANCH  11  14
ENDBRANCH   9  11
BRANCH  10  17
ATOM     17  C   UNL     1      -5.326   1.066  25.958  0.00  0.00    +0.124 C 
BRANCH  17  23
ATOM      4  O   UNL     1      -7.084   2.032  24.573  0.00  0.00    -0.251 OA
ATOM     23  C   UNL     1      -6.292   2.123  25.498  0.00  0.00    +0.305 C 
BRANCH  23   2
ATOM      2  O   UNL     1      -6.163   3.229  26.276  0.00  0.00    -0.481 OA
ATOM     33  H   UNL     1      -6.679   3.152  27.107  0.00  0.00    +0.295 HD
ENDBRANCH  23   2
ENDBRANCH  17  23
ENDBRANCH  10  17
TORSDOF 9
ENDMDL
MODEL 6
REMARK VINA RESULT:       0.5      1.560      4.692
REMARK  Name = 28959666
REMARK  10 active torsions:
REMARK  status: ('A' for Active; 'I' for Inactive)
REMARK    1  A    between atoms: O_2  and  C_23
REMARK    2  A    between atoms: O_5  and  C_29
REMARK    3  A    between atoms: O_5  and  C_30
REMARK    4  A    between atoms: N_6  and  C_14
REMARK    5  A    between atoms: C_9  and  C_11
REMARK    6  A    between atoms: C_10  and  C_17
REMARK    7  A    between atoms: C_11  and  C_14
REMARK    8  A    between atoms: C_16  and  C_22
REMARK    9  A    between atoms: C_17  and  C_23
REMARK   10  A    between atoms: C_21  and  C_24
REMARK                            x       y       z     vdW  Elec       q    Type
REMARK                         _______ _______ _______ _____ _____    ______ ____
ROOT
ATOM      1  O   UNL     1      -4.326  -1.947  23.726  0.00  0.00    -0.270 OA
ATOM      7  N   UNL     1      -2.252  -1.127  24.431  0.00  0.00    -0.297 N 
ATOM      9  C   UNL     1      -0.333   0.421  24.119  0.00  0.00    +0.011 C 
ATOM     10  C   UNL     1       0.494  -0.774  23.581  0.00  0.00    +0.006 C 
ATOM     12  C   UNL     1      -1.433  -0.087  25.069  0.00  0.00    +0.112 C 
ATOM     13  C   UNL     1      -0.410  -1.856  22.966  0.00  0.00    +0.023 C 
ATOM     15  C   UNL     1      -1.503  -2.283  23.941  0.00  0.00    +0.108 C 
ATOM     21  C   UNL     1      -3.637  -1.082  24.264  0.00  0.00    +0.247 C 
ENDROOT
BRANCH  21  24
ATOM     24  C   UNL     1      -4.355   0.095  24.768  0.00  0.00    +0.037 A 
ATOM     25  C   UNL     1      -4.964   0.056  26.022  0.00  0.00    +0.016 A 
ATOM     26  C   UNL     1      -4.430   1.252  23.992  0.00  0.00    +0.016 A 
ATOM     27  C   UNL     1      -5.647   1.172  26.501  0.00  0.00    +0.046 A 
ATOM     28  C   UNL     1      -5.114   2.369  24.470  0.00  0.00    +0.046 A 
ATOM     29  C   UNL     1      -5.723   2.330  25.725  0.00  0.00    +0.120 A 
BRANCH  29   5
ATOM      5  O   UNL     1      -6.390   3.420  26.192  0.00  0.00    -0.495 OA
ATOM     30  C   UNL     1      -6.036   4.686  25.635  0.00  0.00    +0.277 C 
ENDBRANCH  29   5
ENDBRANCH  21  24
BRANCH   9  11
ATOM     11  C   UNL     1      -0.943   1.300  23.021  0.00  0.00    +0.021 C 
BRANCH  11  14
ATOM     14  C   UNL     1      -0.348   2.701  23.052  0.00  0.00    +0.085 C 
BRANCH  14   6
ATOM      6  N   UNL     1      -0.366   3.217  24.414  0.00  0.00    -0.291 NA
ATOM     16  C   UNL     1      -1.718   3.324  24.973  0.00  0.00    +0.143 C 
ATOM     18  C   UNL     1       0.399   2.374  25.334  0.00  0.00    +0.085 C 
ATOM     19  C   UNL     1      -1.561   3.098  26.477  0.00  0.00    +0.029 C 
ATOM     20  C   UNL     1      -0.070   2.878  26.685  0.00  0.00    +0.017 C 
BRANCH  16  22
ATOM      3  O   UNL     1      -3.285   4.909  24.120  0.00  0.00    -0.274 OA
ATOM      8  N   UNL     1      -1.339   5.696  25.063  0.00  0.00    -0.328 N 
ATOM     22  C   UNL     1      -2.208   4.704  24.676  0.00  0.00    +0.228 C 
ATOM     31  H   UNL     1      -0.453   5.504  25.517  0.00  0.00    +0.145 HD
ATOM     32  H   UNL     1      -1.565   6.674  24.909  0.00  0.00    +0.145 HD
ENDBRANCH  16  22
ENDBRANCH  14   6
ENDBRANCH  11  14
ENDBRANCH   9  11
BRANCH  10  17
ATOM     17  C   UNL     1       1.583  -0.355  22.591  0.00  0.00    +0.124 C 
BRANCH  17  23
ATOM      4  O   UNL     1       3.647  -1.174  23.596  0.00  0.00    -0.251 OA
ATOM     23  C   UNL     1       2.926  -0.248  23.258  0.00  0.00    +0.305 C 
BRANCH  23   2
ATOM      2  O   UNL     1       3.243   1.060  23.439  0.00  0.00    -0.481 OA
ATOM     33  H   UNL     1       2.442   1.625  23.499  0.00  0.00    +0.295 HD
ENDBRANCH  23   2
ENDBRANCH  17  23
ENDBRANCH  10  17
TORSDOF 9
ENDMDL
MODEL 7
REMARK VINA RESULT:       0.5      1.145      1.749
REMARK  Name = 28959666
REMARK  10 active torsions:
REMARK  status: ('A' for Active; 'I' for Inactive)
REMARK    1  A    between atoms: O_2  and  C_23
REMARK    2  A    between atoms: O_5  and  C_29
REMARK    3  A    between atoms: O_5  and  C_30
REMARK    4  A    between atoms: N_6  and  C_14
REMARK    5  A    between atoms: C_9  and  C_11
REMARK    6  A    between atoms: C_10  and  C_17
REMARK    7  A    between atoms: C_11  and  C_14
REMARK    8  A    between atoms: C_16  and  C_22
REMARK    9  A    between atoms: C_17  and  C_23
REMARK   10  A    between atoms: C_21  and  C_24
REMARK                            x       y       z     vdW  Elec       q    Type
REMARK                         _______ _______ _______ _____ _____    ______ ____
ROOT
ATOM      1  O   UNL     1      -0.835   5.310  24.963  0.00  0.00    -0.270 OA
ATOM      7  N   UNL     1      -0.639   3.345  23.708  0.00  0.00    -0.297 N 
ATOM      9  C   UNL     1      -0.252   0.892  23.600  0.00  0.00    +0.011 C 
ATOM     10  C   UNL     1       1.182   1.181  23.089  0.00  0.00    +0.006 C 
ATOM     12  C   UNL     1      -1.184   2.064  23.237  0.00  0.00    +0.112 C 
ATOM     13  C   UNL     1       1.689   2.552  23.568  0.00  0.00    +0.023 C 
ATOM     15  C   UNL     1       0.701   3.660  23.217  0.00  0.00    +0.108 C 
ATOM     21  C   UNL     1      -1.289   4.239  24.562  0.00  0.00    +0.247 C 
ENDROOT
BRANCH  21  24
ATOM     24  C   UNL     1      -2.632   3.889  25.036  0.00  0.00    +0.037 A 
ATOM     25  C   UNL     1      -2.974   4.088  26.373  0.00  0.00    +0.016 A 
ATOM     26  C   UNL     1      -3.568   3.355  24.149  0.00  0.00    +0.016 A 
ATOM     27  C   UNL     1      -4.250   3.754  26.825  0.00  0.00    +0.046 A 
ATOM     28  C   UNL     1      -4.844   3.020  24.600  0.00  0.00    +0.046 A 
ATOM     29  C   UNL     1      -5.186   3.219  25.938  0.00  0.00    +0.120 A 
BRANCH  29   5
ATOM      5  O   UNL     1      -6.432   2.892  26.378  0.00  0.00    -0.495 OA
ATOM     30  C   UNL     1      -6.650   1.534  26.759  0.00  0.00    +0.277 C 
ENDBRANCH  29   5
ENDBRANCH  21  24
BRANCH   9  11
ATOM     11  C   UNL     1      -0.329   0.597  25.103  0.00  0.00    +0.021 C 
BRANCH  11  14
ATOM     14  C   UNL     1      -1.767   0.346  25.534  0.00  0.00    +0.085 C 
BRANCH  14   6
ATOM      6  N   UNL     1      -2.081  -1.071  25.415  0.00  0.00    -0.291 NA
ATOM     16  C   UNL     1      -2.611  -1.436  24.097  0.00  0.00    +0.143 C 
ATOM     18  C   UNL     1      -0.908  -1.918  25.640  0.00  0.00    +0.085 C 
ATOM     19  C   UNL     1      -2.160  -2.876  23.855  0.00  0.00    +0.029 C 
ATOM     20  C   UNL     1      -1.379  -3.256  25.106  0.00  0.00    +0.017 C 
BRANCH  16  22
ATOM      3  O   UNL     1      -4.664  -0.328  24.597  0.00  0.00    -0.274 OA
ATOM      8  N   UNL     1      -4.755  -2.473  23.768  0.00  0.00    -0.328 N 
ATOM     22  C   UNL     1      -4.099  -1.337  24.180  0.00  0.00    +0.228 C 
ATOM     31  H   UNL     1      -4.268  -3.296  23.430  0.00  0.00    +0.145 HD
ATOM     32  H   UNL     1      -5.768  -2.522  23.783  0.00  0.00    +0.145 HD
ENDBRANCH  16  22
ENDBRANCH  14   6
ENDBRANCH  11  14
ENDBRANCH   9  11
BRANCH  10  17
ATOM     17  C   UNL     1       2.182   0.081  23.450  0.00  0.00    +0.124 C 
BRANCH  17  23
ATOM      4  O   UNL     1       3.808   0.479  21.677  0.00  0.00    -0.251 OA
ATOM     23  C   UNL     1       3.539   0.351  22.862  0.00  0.00    +0.305 C 
BRANCH  23   2
ATOM      2  O   UNL     1       4.459   0.439  23.858  0.00  0.00    -0.481 OA
ATOM     33  H   UNL     1       4.041   0.399  24.745  0.00  0.00    +0.295 HD
ENDBRANCH  23   2
ENDBRANCH  17  23
ENDBRANCH  10  17
TORSDOF 9
ENDMDL
MODEL 8
REMARK VINA RESULT:       0.7      1.753      6.327
REMARK  Name = 28959666
REMARK  10 active torsions:
REMARK  status: ('A' for Active; 'I' for Inactive)
REMARK    1  A    between atoms: O_2  and  C_23
REMARK    2  A    between atoms: O_5  and  C_29
REMARK    3  A    between atoms: O_5  and  C_30
REMARK    4  A    between atoms: N_6  and  C_14
REMARK    5  A    between atoms: C_9  and  C_11
REMARK    6  A    between atoms: C_10  and  C_17
REMARK    7  A    between atoms: C_11  and  C_14
REMARK    8  A    between atoms: C_16  and  C_22
REMARK    9  A    between atoms: C_17  and  C_23
REMARK   10  A    between atoms: C_21  and  C_24
REMARK                            x       y       z     vdW  Elec       q    Type
REMARK                         _______ _______ _______ _____ _____    ______ ____
ROOT
ATOM      1  O   UNL     1      -2.173   0.833  21.475  0.00  0.00    -0.270 OA
ATOM      7  N   UNL     1      -1.981   2.554  23.048  0.00  0.00    -0.297 N 
ATOM      9  C   UNL     1      -1.939   3.308  25.416  0.00  0.00    +0.011 C 
ATOM     10  C   UNL     1      -3.380   3.846  25.229  0.00  0.00    +0.006 C 
ATOM     12  C   UNL     1      -1.207   3.287  24.061  0.00  0.00    +0.112 C 
ATOM     13  C   UNL     1      -4.132   3.080  24.128  0.00  0.00    +0.023 C 
ATOM     15  C   UNL     1      -3.335   3.059  22.827  0.00  0.00    +0.108 C 
ATOM     21  C   UNL     1      -1.528   1.453  22.320  0.00  0.00    +0.247 C 
ENDROOT
BRANCH  21  24
ATOM     24  C   UNL     1      -0.163   0.974  22.569  0.00  0.00    +0.037 A 
ATOM     25  C   UNL     1       0.629   1.599  23.532  0.00  0.00    +0.016 A 
ATOM     26  C   UNL     1       0.343  -0.104  21.843  0.00  0.00    +0.016 A 
ATOM     27  C   UNL     1       1.927   1.146  23.769  0.00  0.00    +0.046 A 
ATOM     28  C   UNL     1       1.640  -0.557  22.079  0.00  0.00    +0.046 A 
ATOM     29  C   UNL     1       2.432   0.068  23.042  0.00  0.00    +0.120 A 
BRANCH  29   5
ATOM      5  O   UNL     1       3.699  -0.375  23.272  0.00  0.00    -0.495 OA
ATOM     30  C   UNL     1       4.755   0.574  23.123  0.00  0.00    +0.277 C 
ENDBRANCH  29   5
ENDBRANCH  21  24
BRANCH   9  11
ATOM     11  C   UNL     1      -1.871   1.928  26.079  0.00  0.00    +0.021 C 
BRANCH  11  14
ATOM     14  C   UNL     1      -2.811   0.947  25.392  0.00  0.00    +0.085 C 
BRANCH  14   6
ATOM      6  N   UNL     1      -2.292  -0.408  25.516  0.00  0.00    -0.291 NA
ATOM     16  C   UNL     1      -2.433  -1.194  24.286  0.00  0.00    +0.143 C 
ATOM     18  C   UNL     1      -0.869  -0.425  25.860  0.00  0.00    +0.085 C 
ATOM     19  C   UNL     1      -1.252  -2.166  24.280  0.00  0.00    +0.029 C 
ATOM     20  C   UNL     1      -0.492  -1.863  25.564  0.00  0.00    +0.017 C 
BRANCH  16  22
ATOM      3  O   UNL     1      -4.782  -1.438  23.943  0.00  0.00    -0.274 OA
ATOM      8  N   UNL     1      -3.649  -3.143  24.994  0.00  0.00    -0.328 N 
ATOM     22  C   UNL     1      -3.736  -1.919  24.374  0.00  0.00    +0.228 C 
ATOM     31  H   UNL     1      -2.776  -3.520  25.346  0.00  0.00    +0.145 HD
ATOM     32  H   UNL     1      -4.473  -3.724  25.114  0.00  0.00    +0.145 HD
ENDBRANCH  16  22
ENDBRANCH  14   6
ENDBRANCH  11  14
ENDBRANCH   9  11
BRANCH  10  17
ATOM     17  C   UNL     1      -4.190   3.857  26.526  0.00  0.00    +0.124 C 
BRANCH  17  23
ATOM      4  O   UNL     1      -6.004   2.228  26.538  0.00  0.00    -0.251 OA
ATOM     23  C   UNL     1      -5.591   3.355  26.310  0.00  0.00    +0.305 C 
BRANCH  23   2
ATOM      2  O   UNL     1      -6.363   4.355  25.811  0.00  0.00    -0.481 OA
ATOM     33  H   UNL     1      -6.322   4.394  24.831  0.00  0.00    +0.295 HD
ENDBRANCH  23   2
ENDBRANCH  17  23
ENDBRANCH  10  17
TORSDOF 9
ENDMDL
MODEL 9
REMARK VINA RESULT:       0.9      1.420      5.938
REMARK  Name = 28959666
REMARK  10 active torsions:
REMARK  status: ('A' for Active; 'I' for Inactive)
REMARK    1  A    between atoms: O_2  and  C_23
REMARK    2  A    between atoms: O_5  and  C_29
REMARK    3  A    between atoms: O_5  and  C_30
REMARK    4  A    between atoms: N_6  and  C_14
REMARK    5  A    between atoms: C_9  and  C_11
REMARK    6  A    between atoms: C_10  and  C_17
REMARK    7  A    between atoms: C_11  and  C_14
REMARK    8  A    between atoms: C_16  and  C_22
REMARK    9  A    between atoms: C_17  and  C_23
REMARK   10  A    between atoms: C_21  and  C_24
REMARK                            x       y       z     vdW  Elec       q    Type
REMARK                         _______ _______ _______ _____ _____    ______ ____
ROOT
ATOM      1  O   UNL     1       0.353   4.481  22.890  0.00  0.00    -0.270 OA
ATOM      7  N   UNL     1      -0.589   3.731  24.895  0.00  0.00    -0.297 N 
ATOM      9  C   UNL     1      -2.267   2.347  26.098  0.00  0.00    +0.011 C 
ATOM     10  C   UNL     1      -3.074   3.640  26.380  0.00  0.00    +0.006 C 
ATOM     12  C   UNL     1      -0.776   2.688  25.914  0.00  0.00    +0.112 C 
ATOM     13  C   UNL     1      -2.808   4.716  25.314  0.00  0.00    +0.023 C 
ATOM     15  C   UNL     1      -1.313   4.975  25.150  0.00  0.00    +0.108 C 
ATOM     21  C   UNL     1       0.197   3.613  23.748  0.00  0.00    +0.247 C 
ENDROOT
BRANCH  21  24
ATOM     24  C   UNL     1       0.909   2.349  23.525  0.00  0.00    +0.037 A 
ATOM     25  C   UNL     1       0.206   1.145  23.523  0.00  0.00    +0.016 A 
ATOM     26  C   UNL     1       2.288   2.352  23.318  0.00  0.00    +0.016 A 
ATOM     27  C   UNL     1       0.882  -0.057  23.314  0.00  0.00    +0.046 A 
ATOM     28  C   UNL     1       2.964   1.151  23.109  0.00  0.00    +0.046 A 
ATOM     29  C   UNL     1       2.262  -0.054  23.107  0.00  0.00    +0.120 A 
BRANCH  29   5
ATOM      5  O   UNL     1       2.922  -1.227  22.903  0.00  0.00    -0.495 OA
ATOM     30  C   UNL     1       4.121  -1.434  23.648  0.00  0.00    +0.277 C 
ENDBRANCH  29   5
ENDBRANCH  21  24
BRANCH   9  11
ATOM     11  C   UNL     1      -2.780   1.542  24.898  0.00  0.00    +0.021 C 
BRANCH  11  14
ATOM     14  C   UNL     1      -3.711   0.425  25.351  0.00  0.00    +0.085 C 
BRANCH  14   6
ATOM      6  N   UNL     1      -3.412  -0.797  24.617  0.00  0.00    -0.291 NA
ATOM     16  C   UNL     1      -2.903  -1.874  25.472  0.00  0.00    +0.143 C 
ATOM     18  C   UNL     1      -4.591  -1.332  23.932  0.00  0.00    +0.085 C 
ATOM     19  C   UNL     1      -3.371  -3.175  24.820  0.00  0.00    +0.029 C 
ATOM     20  C   UNL     1      -4.139  -2.736  23.582  0.00  0.00    +0.017 C 
BRANCH  16  22
ATOM      3  O   UNL     1      -0.713  -2.418  24.697  0.00  0.00    -0.274 OA
ATOM      8  N   UNL     1      -0.917  -0.903  26.417  0.00  0.00    -0.328 N 
ATOM     22  C   UNL     1      -1.413  -1.768  25.471  0.00  0.00    +0.228 C 
ATOM     31  H   UNL     1      -1.513  -0.378  27.048  0.00  0.00    +0.145 HD
ATOM     32  H   UNL     1       0.083  -0.753  26.510  0.00  0.00    +0.145 HD
ENDBRANCH  16  22
ENDBRANCH  14   6
ENDBRANCH  11  14
ENDBRANCH   9  11
BRANCH  10  17
ATOM     17  C   UNL     1      -4.575   3.390  26.531  0.00  0.00    +0.124 C 
BRANCH  17  23
ATOM      4  O   UNL     1      -5.109   3.405  24.152  0.00  0.00    -0.251 OA
ATOM     23  C   UNL     1      -5.330   3.785  25.292  0.00  0.00    +0.305 C 
BRANCH  23   2
ATOM      2  O   UNL     1      -6.326   4.649  25.619  0.00  0.00    -0.481 OA
ATOM     33  H   UNL     1      -7.012   4.221  26.175  0.00  0.00    +0.295 HD
ENDBRANCH  23   2
ENDBRANCH  17  23
ENDBRANCH  10  17
TORSDOF 9
ENDMDL
MODEL 10
REMARK VINA RESULT:       1.3      1.319      5.910
REMARK  Name = 28959666
REMARK  10 active torsions:
REMARK  status: ('A' for Active; 'I' for Inactive)
REMARK    1  A    between atoms: O_2  and  C_23
REMARK    2  A    between atoms: O_5  and  C_29
REMARK    3  A    between atoms: O_5  and  C_30
REMARK    4  A    between atoms: N_6  and  C_14
REMARK    5  A    between atoms: C_9  and  C_11
REMARK    6  A    between atoms: C_10  and  C_17
REMARK    7  A    between atoms: C_11  and  C_14
REMARK    8  A    between atoms: C_16  and  C_22
REMARK    9  A    between atoms: C_17  and  C_23
REMARK   10  A    between atoms: C_21  and  C_24
REMARK                            x       y       z     vdW  Elec       q    Type
REMARK                         _______ _______ _______ _____ _____    ______ ____
ROOT
ATOM      1  O   UNL     1      -0.124   4.832  23.716  0.00  0.00    -0.270 OA
ATOM      7  N   UNL     1      -1.595   3.667  25.112  0.00  0.00    -0.297 N 
ATOM      9  C   UNL     1      -3.576   2.193  25.398  0.00  0.00    +0.011 C 
ATOM     10  C   UNL     1      -4.391   3.438  25.832  0.00  0.00    +0.006 C 
ATOM     12  C   UNL     1      -2.082   2.412  25.702  0.00  0.00    +0.112 C 
ATOM     13  C   UNL     1      -3.815   4.730  25.228  0.00  0.00    +0.023 C 
ATOM     15  C   UNL     1      -2.325   4.864  25.528  0.00  0.00    +0.108 C 
ATOM     21  C   UNL     1      -0.532   3.785  24.216  0.00  0.00    +0.247 C 
ENDROOT
BRANCH  21  24
ATOM     24  C   UNL     1       0.177   2.562  23.821  0.00  0.00    +0.037 A 
ATOM     25  C   UNL     1       1.487   2.347  24.247  0.00  0.00    +0.016 A 
ATOM     26  C   UNL     1      -0.460   1.614  23.019  0.00  0.00    +0.016 A 
ATOM     27  C   UNL     1       2.162   1.186  23.871  0.00  0.00    +0.046 A 
ATOM     28  C   UNL     1       0.214   0.454  22.642  0.00  0.00    +0.046 A 
ATOM     29  C   UNL     1       1.525   0.239  23.068  0.00  0.00    +0.120 A 
BRANCH  29   5
ATOM      5  O   UNL     1       2.183  -0.895  22.700  0.00  0.00    -0.495 OA
ATOM     30  C   UNL     1       3.527  -1.043  23.158  0.00  0.00    +0.277 C 
ENDBRANCH  29   5
ENDBRANCH  21  24
BRANCH   9  11
ATOM     11  C   UNL     1      -3.768   1.805  23.927  0.00  0.00    +0.021 C 
BRANCH  11  14
ATOM     14  C   UNL     1      -2.656   0.877  23.460  0.00  0.00    +0.085 C 
BRANCH  14   6
ATOM      6  N   UNL     1      -3.020  -0.508  23.727  0.00  0.00    -0.291 NA
ATOM     16  C   UNL     1      -2.608  -0.966  25.058  0.00  0.00    +0.143 C 
ATOM     18  C   UNL     1      -4.465  -0.725  23.641  0.00  0.00    +0.085 C 
ATOM     19  C   UNL     1      -3.648  -2.004  25.477  0.00  0.00    +0.029 C 
ATOM     20  C   UNL     1      -4.618  -2.079  24.307  0.00  0.00    +0.017 C 
BRANCH  16  22
ATOM      3  O   UNL     1      -1.025  -2.470  24.097  0.00  0.00    -0.274 OA
ATOM      8  N   UNL     1      -0.315  -1.067  25.777  0.00  0.00    -0.328 N 
ATOM     22  C   UNL     1      -1.253  -1.579  24.912  0.00  0.00    +0.228 C 
ATOM     31  H   UNL     1      -0.527  -0.332  26.444  0.00  0.00    +0.145 HD
ATOM     32  H   UNL     1       0.640  -1.410  25.770  0.00  0.00    +0.145 HD
ENDBRANCH  16  22
ENDBRANCH  14   6
ENDBRANCH  11  14
ENDBRANCH   9  11
BRANCH  10  17
ATOM     17  C   UNL     1      -5.884   3.317  25.522  0.00  0.00    +0.124 C 
BRANCH  17  23
ATOM      4  O   UNL     1      -6.431   1.633  27.198  0.00  0.00    -0.251 OA
ATOM     23  C   UNL     1      -6.455   2.027  26.042  0.00  0.00    +0.305 C 
BRANCH  23   2
ATOM      2  O   UNL     1      -7.024   1.335  25.020  0.00  0.00    -0.481 OA
ATOM     33  H   UNL     1      -6.977   1.829  24.174  0.00  0.00    +0.295 HD
ENDBRANCH  23   2
ENDBRANCH  17  23
ENDBRANCH  10  17
TORSDOF 9
ENDMDL
