MODEL 1
REMARK VINA RESULT:      24.1      0.000      0.000
REMARK  Name = 7135507
REMARK  2 active torsions:
REMARK  status: ('A' for Active; 'I' for Inactive)
REMARK    1  A    between atoms: C_10  and  C_17
REMARK    2  A    between atoms: C_26  and  C_28
REMARK                            x       y       z     vdW  Elec       q    Type
REMARK                         _______ _______ _______ _____ _____    ______ ____
ROOT
ATOM      1  O   UNL     1      -4.909   4.738  23.331  0.00  0.00    -0.275 OA
ATOM      2  O   UNL     1      -2.979   1.306  23.071  0.00  0.00    -0.273 OA
ATOM      3  O   UNL     1       1.142   1.924  26.323  0.00  0.00    -0.270 OA
ATOM      6  N   UNL     1      -3.250   3.818  24.673  0.00  0.00    -0.298 N 
ATOM      7  N   UNL     1      -0.642   2.589  25.008  0.00  0.00    -0.283 N 
ATOM      9  N   UNL     1      -0.864   0.474  22.952  0.00  0.00    -0.283 N 
ATOM     11  C   UNL     1      -1.188   2.808  23.677  0.00  0.00    +0.180 C 
ATOM     12  C   UNL     1      -2.219   3.944  23.640  0.00  0.00    +0.139 C 
ATOM     13  C   UNL     1      -2.836   3.236  25.953  0.00  0.00    +0.127 C 
ATOM     14  C   UNL     1      -1.324   3.238  26.130  0.00  0.00    +0.128 C 
ATOM     17  C   UNL     1      -4.550   4.246  24.403  0.00  0.00    +0.219 C 
ATOM     20  C   UNL     1      -1.769   1.472  23.242  0.00  0.00    +0.239 C 
ATOM     21  C   UNL     1       0.575   1.951  25.229  0.00  0.00    +0.249 C 
ATOM     22  C   UNL     1       1.226   1.231  24.102  0.00  0.00    +0.059 A 
ATOM     23  C   UNL     1       0.535   0.483  23.136  0.00  0.00    +0.046 A 
ATOM     24  C   UNL     1       2.632   1.173  24.141  0.00  0.00    +0.023 A 
ATOM     25  C   UNL     1       1.263  -0.361  22.279  0.00  0.00    +0.024 A 
ATOM     26  C   UNL     1       3.340   0.368  23.251  0.00  0.00    -0.017 A 
ATOM     27  C   UNL     1       2.656  -0.409  22.328  0.00  0.00    +0.010 A 
ATOM     36  H   UNL     1      -1.244  -0.330  22.456  0.00  0.00    +0.155 HD
ENDROOT
BRANCH  26  28
ATOM      4  O   UNL     1       7.697  -1.465  21.968  0.00  0.00    -0.453 OA
ATOM      5  O   UNL     1       8.885   0.094  23.369  0.00  0.00    -0.453 OA
ATOM     28  C   UNL     1       4.786   0.325  23.305  0.00  0.00    -0.014 A 
ATOM     29  C   UNL     1       5.480  -0.620  22.545  0.00  0.00    +0.058 A 
ATOM     30  C   UNL     1       5.480   1.235  24.122  0.00  0.00    +0.012 A 
ATOM     31  C   UNL     1       6.858  -0.622  22.630  0.00  0.00    +0.167 A 
ATOM     32  C   UNL     1       7.537   0.268  23.430  0.00  0.00    +0.166 A 
ATOM     33  C   UNL     1       6.875   1.211  24.190  0.00  0.00    +0.050 A 
ATOM     34  C   UNL     1       8.979  -1.005  22.441  0.00  0.00    +0.466 C 
ENDBRANCH  26  28
BRANCH  17  10
ATOM      8  N   UNL     1      -6.508   1.318  25.640  0.00  0.00    -0.316 NA
ATOM     10  C   UNL     1      -5.546   4.086  25.518  0.00  0.00    +0.078 C 
ATOM     15  C   UNL     1      -5.041   3.085  26.559  0.00  0.00    +0.028 C 
ATOM     16  C   UNL     1      -6.911   3.665  24.972  0.00  0.00    +0.028 C 
ATOM     18  C   UNL     1      -5.149   1.638  26.073  0.00  0.00    +0.081 C 
ATOM     19  C   UNL     1      -6.940   2.194  24.553  0.00  0.00    +0.081 C 
ATOM     35  H   UNL     1      -6.543   0.348  25.327  0.00  0.00    +0.122 HD
ENDBRANCH  17  10
TORSDOF 2
ENDMDL
