MODEL 1
REMARK VINA RESULT:      -2.6      0.000      0.000
REMARK  Name = 7050094
REMARK  11 active torsions:
REMARK  status: ('A' for Active; 'I' for Inactive)
REMARK    1  A    between atoms: O_2  and  C_11
REMARK    2  A    between atoms: O_3  and  C_12
REMARK    3  A    between atoms: N_7  and  C_13
REMARK    4  A    between atoms: N_8  and  C_17
REMARK    5  A    between atoms: N_9  and  C_25
REMARK    6  A    between atoms: C_15  and  C_18
REMARK    7  A    between atoms: C_17  and  C_19
REMARK    8  A    between atoms: C_17  and  C_24
REMARK    9  A    between atoms: C_19  and  C_20
REMARK   10  A    between atoms: C_20  and  C_21
REMARK   11  A    between atoms: C_20  and  C_22
REMARK                            x       y       z     vdW  Elec       q    Type
REMARK                         _______ _______ _______ _____ _____    ______ ____
ROOT
ATOM     11  C   UNL     1      -2.651  -2.425  24.765  0.00  0.00    +0.167 C 
ATOM     12  C   UNL     1      -4.131  -2.029  24.717  0.00  0.00    +0.149 C 
ATOM     13  C   UNL     1      -1.841  -1.721  23.659  0.00  0.00    +0.129 C 
ATOM     14  C   UNL     1      -4.326  -0.505  24.801  0.00  0.00    +0.074 C 
ATOM     15  C   UNL     1      -3.292   0.272  24.035  0.00  0.00    +0.015 C 
ATOM     16  C   UNL     1      -2.179  -0.263  23.511  0.00  0.00    +0.006 C 
ENDROOT
BRANCH  13   7
ATOM      5  O   UNL     1       0.191   0.125  22.843  0.00  0.00    -0.252 OA
ATOM      7  N   UNL     1      -0.420  -1.851  23.875  0.00  0.00    -0.290 N 
ATOM      9  N   UNL     1       1.805  -1.290  23.791  0.00  0.00    -0.269 N 
ATOM     23  C   UNL     1       0.510  -0.899  23.442  0.00  0.00    +0.304 C 
ATOM     31  H   UNL     1      -0.071  -2.696  24.316  0.00  0.00    +0.151 HD
ATOM     35  H   UNL     1       1.896  -2.172  24.289  0.00  0.00    +0.156 HD
BRANCH   9  25
ATOM      1  F   UNL     1       6.577  -0.956  24.203  0.00  0.00    -0.205 F 
ATOM     25  C   UNL     1       3.017  -0.608  23.536  0.00  0.00    +0.037 A 
ATOM     26  C   UNL     1       4.223  -1.129  24.005  0.00  0.00    +0.061 A 
ATOM     27  C   UNL     1       3.007   0.586  22.813  0.00  0.00    +0.023 A 
ATOM     28  C   UNL     1       5.419  -0.455  23.753  0.00  0.00    +0.125 A 
ATOM     29  C   UNL     1       4.203   1.259  22.561  0.00  0.00    +0.005 A 
ATOM     30  C   UNL     1       5.408   0.738  23.031  0.00  0.00    +0.038 A 
ENDBRANCH   9  25
ENDBRANCH  13   7
BRANCH  15  18
ATOM      4  O   UNL     1      -3.258   2.228  22.748  0.00  0.00    -0.271 OA
ATOM      8  N   UNL     1      -4.035   2.334  24.944  0.00  0.00    -0.300 N 
ATOM     18  C   UNL     1      -3.520   1.704  23.826  0.00  0.00    +0.241 C 
ATOM     32  H   UNL     1      -4.278   1.779  25.761  0.00  0.00    +0.150 HD
BRANCH   8  17
ATOM     17  C   UNL     1      -4.339   3.742  24.981  0.00  0.00    +0.159 C 
BRANCH  17  24
ATOM      6  O   UNL     1      -6.302   4.936  25.774  0.00  0.00    -0.274 OA
ATOM     10  N   UNL     1      -6.051   2.727  26.354  0.00  0.00    -0.328 N 
ATOM     24  C   UNL     1      -5.648   3.896  25.742  0.00  0.00    +0.231 C 
ATOM     36  H   UNL     1      -6.916   2.689  26.884  0.00  0.00    +0.145 HD
ATOM     37  H   UNL     1      -5.513   1.870  26.300  0.00  0.00    +0.145 HD
ENDBRANCH  17  24
BRANCH  17  19
ATOM     19  C   UNL     1      -3.231   4.558  25.657  0.00  0.00    +0.034 C 
BRANCH  19  20
ATOM     20  C   UNL     1      -1.810   4.290  25.123  0.00  0.00    -0.015 C 
ATOM     21  C   UNL     1      -1.070   3.343  26.072  0.00  0.00    +0.007 C 
ATOM     22  C   UNL     1      -1.001   5.576  24.946  0.00  0.00    +0.007 C 
ENDBRANCH  19  20
ENDBRANCH  17  19
ENDBRANCH   8  17
ENDBRANCH  15  18
BRANCH  11   2
ATOM      2  O   UNL     1      -2.122  -2.070  26.045  0.00  0.00    -0.387 OA
ATOM     33  H   UNL     1      -1.528  -2.786  26.325  0.00  0.00    +0.210 HD
ENDBRANCH  11   2
BRANCH  12   3
ATOM      3  O   UNL     1      -4.736  -2.535  23.529  0.00  0.00    -0.389 OA
ATOM     34  H   UNL     1      -5.507  -3.063  23.793  0.00  0.00    +0.210 HD
ENDBRANCH  12   3
TORSDOF 9
ENDMDL
MODEL 2
REMARK VINA RESULT:      -0.1     18.114     19.856
REMARK  Name = 7050094
REMARK  11 active torsions:
REMARK  status: ('A' for Active; 'I' for Inactive)
REMARK    1  A    between atoms: O_2  and  C_11
REMARK    2  A    between atoms: O_3  and  C_12
REMARK    3  A    between atoms: N_7  and  C_13
REMARK    4  A    between atoms: N_8  and  C_17
REMARK    5  A    between atoms: N_9  and  C_25
REMARK    6  A    between atoms: C_15  and  C_18
REMARK    7  A    between atoms: C_17  and  C_19
REMARK    8  A    between atoms: C_17  and  C_24
REMARK    9  A    between atoms: C_19  and  C_20
REMARK   10  A    between atoms: C_20  and  C_21
REMARK   11  A    between atoms: C_20  and  C_22
REMARK                            x       y       z     vdW  Elec       q    Type
REMARK                         _______ _______ _______ _____ _____    ______ ____
ROOT
ATOM     11  C   UNL     1      15.286  -9.256  26.279  0.00  0.00    +0.167 C 
ATOM     12  C   UNL     1      16.138  -8.326  25.407  0.00  0.00    +0.149 C 
ATOM     13  C   UNL     1      15.889  -9.418  27.688  0.00  0.00    +0.129 C 
ATOM     14  C   UNL     1      16.345  -6.948  26.060  0.00  0.00    +0.074 C 
ATOM     15  C   UNL     1      16.552  -7.018  27.546  0.00  0.00    +0.015 C 
ATOM     16  C   UNL     1      16.360  -8.120  28.286  0.00  0.00    +0.006 C 
ENDROOT
BRANCH  13   7
ATOM      5  O   UNL     1      13.900  -8.098  29.271  0.00  0.00    -0.252 OA
ATOM      7  N   UNL     1      14.958 -10.040  28.597  0.00  0.00    -0.290 N 
ATOM      9  N   UNL     1      13.251 -10.184  30.127  0.00  0.00    -0.269 N 
ATOM     23  C   UNL     1      14.012  -9.320  29.336  0.00  0.00    +0.304 C 
ATOM     31  H   UNL     1      15.022 -11.042  28.749  0.00  0.00    +0.151 HD
ATOM     35  H   UNL     1      13.473 -11.175  30.064  0.00  0.00    +0.156 HD
BRANCH   9  25
ATOM      1  F   UNL     1       8.743 -10.781  31.669  0.00  0.00    -0.205 F 
ATOM     25  C   UNL     1      12.200  -9.853  31.013  0.00  0.00    +0.037 A 
ATOM     26  C   UNL     1      10.965 -10.493  30.902  0.00  0.00    +0.061 A 
ATOM     27  C   UNL     1      12.397  -8.886  31.999  0.00  0.00    +0.023 A 
ATOM     28  C   UNL     1       9.929 -10.166  31.776  0.00  0.00    +0.125 A 
ATOM     29  C   UNL     1      11.361  -8.558  32.873  0.00  0.00    +0.005 A 
ATOM     30  C   UNL     1      10.127  -9.199  32.761  0.00  0.00    +0.038 A 
ENDBRANCH   9  25
ENDBRANCH  13   7
BRANCH  15  18
ATOM      4  O   UNL     1      17.373  -4.826  27.599  0.00  0.00    -0.271 OA
ATOM      8  N   UNL     1      16.993  -5.938  29.613  0.00  0.00    -0.300 N 
ATOM     18  C   UNL     1      17.015  -5.811  28.236  0.00  0.00    +0.241 C 
ATOM     32  H   UNL     1      16.608  -6.782  30.029  0.00  0.00    +0.150 HD
BRANCH   8  17
ATOM     17  C   UNL     1      17.405  -4.884  30.504  0.00  0.00    +0.159 C 
BRANCH  17  24
ATOM      6  O   UNL     1      15.334  -3.619  30.367  0.00  0.00    -0.274 OA
ATOM     10  N   UNL     1      17.286  -2.603  29.710  0.00  0.00    -0.328 N 
ATOM     24  C   UNL     1      16.548  -3.667  30.184  0.00  0.00    +0.231 C 
ATOM     36  H   UNL     1      16.838  -1.725  29.471  0.00  0.00    +0.145 HD
ATOM     37  H   UNL     1      18.292  -2.649  29.585  0.00  0.00    +0.145 HD
ENDBRANCH  17  24
BRANCH  17  19
ATOM     19  C   UNL     1      17.245  -5.274  31.979  0.00  0.00    +0.034 C 
BRANCH  19  20
ATOM     20  C   UNL     1      16.292  -6.459  32.236  0.00  0.00    -0.015 C 
ATOM     21  C   UNL     1      16.895  -7.741  31.655  0.00  0.00    +0.007 C 
ATOM     22  C   UNL     1      14.902  -6.228  31.641  0.00  0.00    +0.007 C 
ENDBRANCH  19  20
ENDBRANCH  17  19
ENDBRANCH   8  17
ENDBRANCH  15  18
BRANCH  11   2
ATOM      2  O   UNL     1      13.969  -8.710  26.382  0.00  0.00    -0.387 OA
ATOM     33  H   UNL     1      13.963  -8.102  27.140  0.00  0.00    +0.210 HD
ENDBRANCH  11   2
BRANCH  12   3
ATOM      3  O   UNL     1      17.399  -8.931  25.130  0.00  0.00    -0.389 OA
ATOM     34  H   UNL     1      17.823  -9.131  25.981  0.00  0.00    +0.210 HD
ENDBRANCH  12   3
TORSDOF 9
ENDMDL
MODEL 3
REMARK VINA RESULT:       0.2      1.337      2.307
REMARK  Name = 7050094
REMARK  11 active torsions:
REMARK  status: ('A' for Active; 'I' for Inactive)
REMARK    1  A    between atoms: O_2  and  C_11
REMARK    2  A    between atoms: O_3  and  C_12
REMARK    3  A    between atoms: N_7  and  C_13
REMARK    4  A    between atoms: N_8  and  C_17
REMARK    5  A    between atoms: N_9  and  C_25
REMARK    6  A    between atoms: C_15  and  C_18
REMARK    7  A    between atoms: C_17  and  C_19
REMARK    8  A    between atoms: C_17  and  C_24
REMARK    9  A    between atoms: C_19  and  C_20
REMARK   10  A    between atoms: C_20  and  C_21
REMARK   11  A    between atoms: C_20  and  C_22
REMARK                            x       y       z     vdW  Elec       q    Type
REMARK                         _______ _______ _______ _____ _____    ______ ____
ROOT
ATOM     11  C   UNL     1      -2.382  -2.123  24.481  0.00  0.00    +0.167 C 
ATOM     12  C   UNL     1      -3.761  -1.622  24.925  0.00  0.00    +0.149 C 
ATOM     13  C   UNL     1      -1.791  -1.239  23.366  0.00  0.00    +0.129 C 
ATOM     14  C   UNL     1      -3.725  -0.151  25.374  0.00  0.00    +0.074 C 
ATOM     15  C   UNL     1      -2.824   0.708  24.532  0.00  0.00    +0.015 C 
ATOM     16  C   UNL     1      -1.959   0.234  23.623  0.00  0.00    +0.006 C 
ENDROOT
BRANCH  13   7
ATOM      5  O   UNL     1       0.403   0.540  23.844  0.00  0.00    -0.252 OA
ATOM      7  N   UNL     1      -0.391  -1.517  23.151  0.00  0.00    -0.290 N 
ATOM      9  N   UNL     1       1.873  -1.136  23.111  0.00  0.00    -0.269 N 
ATOM     23  C   UNL     1       0.623  -0.588  23.412  0.00  0.00    +0.304 C 
ATOM     31  H   UNL     1      -0.130  -2.410  22.743  0.00  0.00    +0.151 HD
ATOM     35  H   UNL     1       1.880  -2.090  22.759  0.00  0.00    +0.156 HD
BRANCH   9  25
ATOM      1  F   UNL     1       6.397  -1.187  24.718  0.00  0.00    -0.205 F 
ATOM     25  C   UNL     1       3.141  -0.523  23.234  0.00  0.00    +0.037 A 
ATOM     26  C   UNL     1       4.164  -1.170  23.929  0.00  0.00    +0.061 A 
ATOM     27  C   UNL     1       3.372   0.727  22.659  0.00  0.00    +0.023 A 
ATOM     28  C   UNL     1       5.415  -0.566  24.050  0.00  0.00    +0.125 A 
ATOM     29  C   UNL     1       4.623   1.331  22.780  0.00  0.00    +0.005 A 
ATOM     30  C   UNL     1       5.645   0.684  23.476  0.00  0.00    +0.038 A 
ENDBRANCH   9  25
ENDBRANCH  13   7
BRANCH  15  18
ATOM      4  O   UNL     1      -3.279   2.875  23.771  0.00  0.00    -0.271 OA
ATOM      8  N   UNL     1      -2.524   2.582  25.958  0.00  0.00    -0.300 N 
ATOM     18  C   UNL     1      -2.907   2.162  24.696  0.00  0.00    +0.241 C 
ATOM     32  H   UNL     1      -2.300   1.888  26.666  0.00  0.00    +0.150 HD
BRANCH   8  17
ATOM     17  C   UNL     1      -2.519   3.966  26.355  0.00  0.00    +0.159 C 
BRANCH  17  24
ATOM      6  O   UNL     1      -2.151   5.834  24.844  0.00  0.00    -0.274 OA
ATOM     10  N   UNL     1      -0.638   4.106  24.843  0.00  0.00    -0.328 N 
ATOM     24  C   UNL     1      -1.787   4.740  25.268  0.00  0.00    +0.231 C 
ATOM     36  H   UNL     1      -0.048   4.523  24.130  0.00  0.00    +0.145 HD
ATOM     37  H   UNL     1      -0.336   3.213  25.218  0.00  0.00    +0.145 HD
ENDBRANCH  17  24
BRANCH  17  19
ATOM     19  C   UNL     1      -3.937   4.523  26.541  0.00  0.00    +0.034 C 
BRANCH  19  20
ATOM     20  C   UNL     1      -5.013   3.860  25.658  0.00  0.00    -0.015 C 
ATOM     21  C   UNL     1      -6.063   4.899  25.256  0.00  0.00    +0.007 C 
ATOM     22  C   UNL     1      -5.696   2.683  26.357  0.00  0.00    +0.007 C 
ENDBRANCH  19  20
ENDBRANCH  17  19
ENDBRANCH   8  17
ENDBRANCH  15  18
BRANCH  11   2
ATOM      2  O   UNL     1      -1.506  -2.119  25.611  0.00  0.00    -0.387 OA
ATOM     33  H   UNL     1      -1.886  -2.715  26.278  0.00  0.00    +0.210 HD
ENDBRANCH  11   2
BRANCH  12   3
ATOM      3  O   UNL     1      -4.707  -1.789  23.870  0.00  0.00    -0.389 OA
ATOM     34  H   UNL     1      -4.213  -1.820  23.034  0.00  0.00    +0.210 HD
ENDBRANCH  12   3
TORSDOF 9
ENDMDL
