MODEL 1
REMARK VINA RESULT:      11.4      0.000      0.000
REMARK  Name = 45360511
REMARK  12 active torsions:
REMARK  status: ('A' for Active; 'I' for Inactive)
REMARK    1  A    between atoms: O_5  and  C_24
REMARK    2  A    between atoms: N_8  and  C_17
REMARK    3  A    between atoms: N_9  and  C_26
REMARK    4  A    between atoms: N_10  and  C_35
REMARK    5  A    between atoms: N_10  and  C_38
REMARK    6  A    between atoms: N_10  and  C_39
REMARK    7  A    between atoms: C_11  and  C_15
REMARK    8  A    between atoms: C_12  and  C_18
REMARK    9  A    between atoms: C_15  and  C_17
REMARK   10  A    between atoms: C_18  and  C_24
REMARK   11  A    between atoms: C_21  and  C_25
REMARK   12  A    between atoms: C_31  and  C_37
REMARK                            x       y       z     vdW  Elec       q    Type
REMARK                         _______ _______ _______ _____ _____    ______ ____
ROOT
ATOM      4  O   UNL     1      -6.637   1.217  26.478  0.00  0.00    -0.270 OA
ATOM      7  N   UNL     1      -5.324   2.575  25.098  0.00  0.00    -0.297 N 
ATOM     11  C   UNL     1      -3.188   3.765  24.657  0.00  0.00    +0.011 C 
ATOM     12  C   UNL     1      -3.895   5.092  25.034  0.00  0.00    +0.006 C 
ATOM     13  C   UNL     1      -4.222   2.747  24.142  0.00  0.00    +0.112 C 
ATOM     14  C   UNL     1      -5.069   4.854  25.997  0.00  0.00    +0.023 C 
ATOM     16  C   UNL     1      -6.032   3.805  25.448  0.00  0.00    +0.108 C 
ATOM     21  C   UNL     1      -5.719   1.364  25.673  0.00  0.00    +0.247 C 
ENDROOT
BRANCH  21  25
ATOM     25  C   UNL     1      -4.986   0.151  25.298  0.00  0.00    +0.037 A 
ATOM     27  C   UNL     1      -4.241  -0.538  26.256  0.00  0.00    +0.015 A 
ATOM     28  C   UNL     1      -5.033  -0.314  23.984  0.00  0.00    +0.015 A 
ATOM     32  C   UNL     1      -3.544  -1.691  25.899  0.00  0.00    +0.024 A 
ATOM     33  C   UNL     1      -4.334  -1.468  23.627  0.00  0.00    +0.024 A 
ATOM     35  C   UNL     1      -3.590  -2.155  24.584  0.00  0.00    +0.029 A 
BRANCH  35  10
ATOM     10  N   UNL     1      -2.884  -3.323  24.223  0.00  0.00    -0.336 N 
ATOM     38  C   UNL     1      -1.445  -3.388  24.381  0.00  0.00    +0.129 C 
ATOM     39  C   UNL     1      -3.588  -4.468  23.681  0.00  0.00    +0.129 C 
ENDBRANCH  35  10
ENDBRANCH  21  25
BRANCH  11  15
ATOM     15  C   UNL     1      -2.363   3.155  25.798  0.00  0.00    +0.020 C 
BRANCH  15  17
ATOM     17  C   UNL     1      -2.208   1.651  25.612  0.00  0.00    +0.085 C 
BRANCH  17   8
ATOM      8  N   UNL     1      -1.201   1.378  24.589  0.00  0.00    -0.299 NA
ATOM      9  N   UNL     1       1.400   0.740  23.596  0.00  0.00    -0.327 N 
ATOM     19  C   UNL     1      -0.118   2.367  24.654  0.00  0.00    +0.103 C 
ATOM     20  C   UNL     1      -0.653   0.026  24.755  0.00  0.00    +0.103 C 
ATOM     22  C   UNL     1       0.914   2.124  23.550  0.00  0.00    +0.120 C 
ATOM     23  C   UNL     1       0.363  -0.295  23.656  0.00  0.00    +0.120 C 
BRANCH   9  26
ATOM     26  C   UNL     1       2.630   0.455  22.993  0.00  0.00    +0.030 A 
ATOM     29  C   UNL     1       3.787   0.383  23.769  0.00  0.00    +0.035 A 
ATOM     30  C   UNL     1       2.700   0.244  21.616  0.00  0.00    +0.023 A 
ATOM     31  C   UNL     1       5.014   0.099  23.169  0.00  0.00    +0.057 A 
ATOM     34  C   UNL     1       3.927  -0.040  21.015  0.00  0.00    +0.002 A 
ATOM     36  C   UNL     1       5.084  -0.112  21.792  0.00  0.00    +0.012 A 
BRANCH  31  37
ATOM      1  F   UNL     1       7.375  -0.268  23.281  0.00  0.00    -0.166 F 
ATOM      2  F   UNL     1       6.174  -0.943  24.963  0.00  0.00    -0.166 F 
ATOM      3  F   UNL     1       6.538   1.180  24.661  0.00  0.00    -0.166 F 
ATOM     37  C   UNL     1       6.249   0.021  23.999  0.00  0.00    +0.417 C 
ENDBRANCH  31  37
ENDBRANCH   9  26
ENDBRANCH  17   8
ENDBRANCH  15  17
ENDBRANCH  11  15
BRANCH  12  18
ATOM     18  C   UNL     1      -2.939   6.143  25.598  0.00  0.00    +0.124 C 
BRANCH  18  24
ATOM      6  O   UNL     1      -0.572   5.898  25.070  0.00  0.00    -0.251 OA
ATOM     24  C   UNL     1      -1.695   6.270  24.763  0.00  0.00    +0.305 C 
BRANCH  24   5
ATOM      5  O   UNL     1      -1.995   6.870  23.583  0.00  0.00    -0.481 OA
ATOM     40  H   UNL     1      -2.793   6.480  23.167  0.00  0.00    +0.295 HD
ENDBRANCH  24   5
ENDBRANCH  18  24
ENDBRANCH  12  18
TORSDOF 10
ENDMDL
MODEL 2
REMARK VINA RESULT:      13.1      2.549      5.058
REMARK  Name = 45360511
REMARK  12 active torsions:
REMARK  status: ('A' for Active; 'I' for Inactive)
REMARK    1  A    between atoms: O_5  and  C_24
REMARK    2  A    between atoms: N_8  and  C_17
REMARK    3  A    between atoms: N_9  and  C_26
REMARK    4  A    between atoms: N_10  and  C_35
REMARK    5  A    between atoms: N_10  and  C_38
REMARK    6  A    between atoms: N_10  and  C_39
REMARK    7  A    between atoms: C_11  and  C_15
REMARK    8  A    between atoms: C_12  and  C_18
REMARK    9  A    between atoms: C_15  and  C_17
REMARK   10  A    between atoms: C_18  and  C_24
REMARK   11  A    between atoms: C_21  and  C_25
REMARK   12  A    between atoms: C_31  and  C_37
REMARK                            x       y       z     vdW  Elec       q    Type
REMARK                         _______ _______ _______ _____ _____    ______ ____
ROOT
ATOM      4  O   UNL     1       0.512   3.204  24.103  0.00  0.00    -0.270 OA
ATOM      7  N   UNL     1      -1.666   3.410  24.932  0.00  0.00    -0.297 N 
ATOM     11  C   UNL     1      -3.748   2.360  25.790  0.00  0.00    +0.011 C 
ATOM     12  C   UNL     1      -4.407   2.637  24.415  0.00  0.00    +0.006 C 
ATOM     13  C   UNL     1      -2.622   3.379  26.047  0.00  0.00    +0.112 C 
ATOM     14  C   UNL     1      -3.362   2.708  23.290  0.00  0.00    +0.023 C 
ATOM     16  C   UNL     1      -2.254   3.701  23.626  0.00  0.00    +0.108 C 
ATOM     21  C   UNL     1      -0.290   3.184  25.035  0.00  0.00    +0.247 C 
ENDROOT
BRANCH  21  25
ATOM     25  C   UNL     1       0.263   2.894  26.361  0.00  0.00    +0.037 A 
ATOM     27  C   UNL     1       1.526   3.376  26.710  0.00  0.00    +0.015 A 
ATOM     28  C   UNL     1      -0.472   2.138  27.274  0.00  0.00    +0.015 A 
ATOM     32  C   UNL     1       2.052   3.100  27.972  0.00  0.00    +0.024 A 
ATOM     33  C   UNL     1       0.055   1.862  28.536  0.00  0.00    +0.024 A 
ATOM     35  C   UNL     1       1.317   2.343  28.884  0.00  0.00    +0.029 A 
BRANCH  35  10
ATOM     10  N   UNL     1       1.850   2.064  30.161  0.00  0.00    -0.336 N 
ATOM     38  C   UNL     1       3.200   1.555  30.297  0.00  0.00    +0.129 C 
ATOM     39  C   UNL     1       1.051   2.276  31.352  0.00  0.00    +0.129 C 
ENDBRANCH  35  10
ENDBRANCH  21  25
BRANCH  11  15
ATOM     15  C   UNL     1      -3.217   0.929  25.948  0.00  0.00    +0.020 C 
BRANCH  15  17
ATOM     17  C   UNL     1      -3.483   0.110  24.693  0.00  0.00    +0.085 C 
BRANCH  17   8
ATOM      8  N   UNL     1      -2.217  -0.303  24.091  0.00  0.00    -0.299 NA
ATOM      9  N   UNL     1       0.514  -0.012  23.304  0.00  0.00    -0.327 N 
ATOM     19  C   UNL     1      -1.854   0.594  22.987  0.00  0.00    +0.103 C 
ATOM     20  C   UNL     1      -1.148  -0.314  25.097  0.00  0.00    +0.103 C 
ATOM     22  C   UNL     1      -0.559   0.138  22.312  0.00  0.00    +0.120 C 
ATOM     23  C   UNL     1       0.172  -0.799  24.493  0.00  0.00    +0.120 C 
BRANCH   9  26
ATOM     26  C   UNL     1       1.837   0.023  22.851  0.00  0.00    +0.030 A 
ATOM     29  C   UNL     1       2.889  -0.008  23.767  0.00  0.00    +0.035 A 
ATOM     30  C   UNL     1       2.106   0.089  21.484  0.00  0.00    +0.023 A 
ATOM     31  C   UNL     1       4.208   0.026  23.317  0.00  0.00    +0.057 A 
ATOM     34  C   UNL     1       3.425   0.123  21.033  0.00  0.00    +0.002 A 
ATOM     36  C   UNL     1       4.476   0.092  21.950  0.00  0.00    +0.012 A 
BRANCH  31  37
ATOM      1  F   UNL     1       5.229   0.937  25.278  0.00  0.00    -0.166 F 
ATOM      2  F   UNL     1       6.545   0.206  23.710  0.00  0.00    -0.166 F 
ATOM      3  F   UNL     1       5.446  -1.196  24.958  0.00  0.00    -0.166 F 
ATOM     37  C   UNL     1       5.331  -0.007  24.297  0.00  0.00    +0.417 C 
ENDBRANCH  31  37
ENDBRANCH   9  26
ENDBRANCH  17   8
ENDBRANCH  15  17
ENDBRANCH  11  15
BRANCH  12  18
ATOM     18  C   UNL     1      -5.509   1.637  24.065  0.00  0.00    +0.124 C 
BRANCH  18  24
ATOM      6  O   UNL     1      -6.562   1.600  26.263  0.00  0.00    -0.251 OA
ATOM     24  C   UNL     1      -6.646   1.696  25.047  0.00  0.00    +0.305 C 
BRANCH  24   5
ATOM      5  O   UNL     1      -7.816   1.875  24.384  0.00  0.00    -0.481 OA
ATOM     40  H   UNL     1      -7.936   2.806  24.100  0.00  0.00    +0.295 HD
ENDBRANCH  24   5
ENDBRANCH  18  24
ENDBRANCH  12  18
TORSDOF 10
ENDMDL
