MODEL 1
REMARK VINA RESULT:      -5.3      0.000      0.000
REMARK  Name = 25390483
REMARK  9 active torsions:
REMARK  status: ('A' for Active; 'I' for Inactive)
REMARK    1  A    between atoms: O_2  and  C_9
REMARK    2  A    between atoms: O_3  and  C_10
REMARK    3  A    between atoms: N_7  and  C_19
REMARK    4  A    between atoms: C_8  and  C_12
REMARK    5  A    between atoms: C_11  and  C_19
REMARK    6  A    between atoms: C_12  and  C_18
REMARK    7  A    between atoms: C_13  and  C_20
REMARK    8  A    between atoms: C_21  and  C_22
REMARK    9  A    between atoms: C_27  and  C_28
REMARK                            x       y       z     vdW  Elec       q    Type
REMARK                         _______ _______ _______ _____ _____    ______ ____
ROOT
ATOM      1  O   UNL     1      -8.263  -8.945  15.919  0.00  0.00    -0.366 OA
ATOM      8  C   UNL     1      -9.612  -8.621  15.508  0.00  0.00    +0.159 C 
ATOM      9  C   UNL     1     -10.468  -8.668  16.769  0.00  0.00    +0.175 C 
ATOM     10  C   UNL     1      -9.725  -9.680  17.617  0.00  0.00    +0.176 C 
ATOM     11  C   UNL     1      -8.278  -9.337  17.303  0.00  0.00    +0.167 C 
ENDROOT
BRANCH   9   2
ATOM      2  O   UNL     1     -10.424  -7.380  17.383  0.00  0.00    -0.387 OA
ATOM     29  H   UNL     1     -11.341  -7.119  17.577  0.00  0.00    +0.210 HD
ENDBRANCH   9   2
BRANCH  10   3
ATOM      3  O   UNL     1     -10.009  -9.571  18.995  0.00  0.00    -0.387 OA
ATOM     30  H   UNL     1      -9.766  -8.671  19.273  0.00  0.00    +0.210 HD
ENDBRANCH  10   3
BRANCH   8  12
ATOM     12  C   UNL     1     -10.037  -9.641  14.460  0.00  0.00    +0.130 C 
BRANCH  12  18
ATOM      4  O   UNL     1      -7.771  -9.991  13.862  0.00  0.00    -0.276 OA
ATOM      6  N   UNL     1      -9.293  -9.845  12.114  0.00  0.00    -0.301 N 
ATOM     13  C   UNL     1      -9.687  -8.746   9.458  0.00  0.00    -0.011 C 
ATOM     14  C   UNL     1     -10.714  -8.537  10.581  0.00  0.00    +0.022 C 
ATOM     15  C   UNL     1      -8.285  -8.948  10.052  0.00  0.00    +0.022 C 
ATOM     16  C   UNL     1     -10.658  -9.671  11.604  0.00  0.00    +0.108 C 
ATOM     17  C   UNL     1      -8.279 -10.075  11.083  0.00  0.00    +0.108 C 
ATOM     18  C   UNL     1      -8.927  -9.842  13.459  0.00  0.00    +0.218 C 
ATOM     20  C   UNL     1      -9.700  -7.570   8.485  0.00  0.00    +0.007 C 
ENDBRANCH  12  18
ENDBRANCH   8  12
BRANCH  11  19
ATOM     19  C   UNL     1      -7.324 -10.499  17.515  0.00  0.00    +0.138 C 
BRANCH  19   7
ATOM      5  O   UNL     1      -4.485 -10.714  17.884  0.00  0.00    -0.270 OA
ATOM      7  N   UNL     1      -6.329 -10.546  16.486  0.00  0.00    -0.309 N 
ATOM     21  C   UNL     1      -4.967 -10.652  16.756  0.00  0.00    +0.244 C 
ATOM     31  H   UNL     1      -6.662 -10.554  15.527  0.00  0.00    +0.149 HD
BRANCH  21  22
ATOM     22  C   UNL     1      -4.061 -10.662  15.579  0.00  0.00    +0.037 A 
ATOM     23  C   UNL     1      -4.590 -10.603  14.289  0.00  0.00    +0.013 A 
ATOM     24  C   UNL     1      -2.680 -10.730  15.763  0.00  0.00    +0.013 A 
ATOM     25  C   UNL     1      -3.739 -10.614  13.185  0.00  0.00    +0.004 A 
ATOM     26  C   UNL     1      -1.828 -10.740  14.659  0.00  0.00    +0.004 A 
ATOM     27  C   UNL     1      -2.358 -10.682  13.369  0.00  0.00    -0.050 A 
ATOM     28  C   UNL     1      -1.448 -10.694  12.188  0.00  0.00    +0.044 C 
ENDBRANCH  21  22
ENDBRANCH  19   7
ENDBRANCH  11  19
TORSDOF 7
ENDMDL
MODEL 2
REMARK VINA RESULT:      -4.0      1.600      2.305
REMARK  Name = 25390483
REMARK  9 active torsions:
REMARK  status: ('A' for Active; 'I' for Inactive)
REMARK    1  A    between atoms: O_2  and  C_9
REMARK    2  A    between atoms: O_3  and  C_10
REMARK    3  A    between atoms: N_7  and  C_19
REMARK    4  A    between atoms: C_8  and  C_12
REMARK    5  A    between atoms: C_11  and  C_19
REMARK    6  A    between atoms: C_12  and  C_18
REMARK    7  A    between atoms: C_13  and  C_20
REMARK    8  A    between atoms: C_21  and  C_22
REMARK    9  A    between atoms: C_27  and  C_28
REMARK                            x       y       z     vdW  Elec       q    Type
REMARK                         _______ _______ _______ _____ _____    ______ ____
ROOT
ATOM      1  O   UNL     1      -6.376  -9.325  16.047  0.00  0.00    -0.366 OA
ATOM      8  C   UNL     1      -7.813  -9.416  15.908  0.00  0.00    +0.159 C 
ATOM      9  C   UNL     1      -8.349  -9.850  17.267  0.00  0.00    +0.175 C 
ATOM     10  C   UNL     1      -7.186 -10.642  17.827  0.00  0.00    +0.176 C 
ATOM     11  C   UNL     1      -6.000  -9.825  17.343  0.00  0.00    +0.167 C 
ENDROOT
BRANCH   9   2
ATOM      2  O   UNL     1      -8.573  -8.677  18.050  0.00  0.00    -0.387 OA
ATOM     29  H   UNL     1      -7.717  -8.411  18.426  0.00  0.00    +0.210 HD
ENDBRANCH   9   2
BRANCH  10   3
ATOM      3  O   UNL     1      -7.213 -10.755  19.234  0.00  0.00    -0.387 OA
ATOM     30  H   UNL     1      -6.385 -10.374  19.573  0.00  0.00    +0.210 HD
ENDBRANCH  10   3
BRANCH   8  12
ATOM     12  C   UNL     1      -8.110 -10.419  14.801  0.00  0.00    +0.130 C 
BRANCH  12  18
ATOM      4  O   UNL     1      -6.003  -9.936  13.830  0.00  0.00    -0.276 OA
ATOM      6  N   UNL     1      -7.777 -10.238  12.361  0.00  0.00    -0.301 N 
ATOM     13  C   UNL     1      -8.984  -9.211   9.930  0.00  0.00    -0.011 C 
ATOM     14  C   UNL     1      -9.802  -9.426  11.213  0.00  0.00    +0.022 C 
ATOM     15  C   UNL     1      -7.512  -8.947  10.278  0.00  0.00    +0.022 C 
ATOM     16  C   UNL     1      -9.190 -10.520  12.086  0.00  0.00    +0.108 C 
ATOM     17  C   UNL     1      -6.947 -10.052  11.168  0.00  0.00    +0.108 C 
ATOM     18  C   UNL     1      -7.196 -10.176  13.627  0.00  0.00    +0.218 C 
ATOM     20  C   UNL     1      -9.561  -8.065   9.104  0.00  0.00    +0.007 C 
ENDBRANCH  12  18
ENDBRANCH   8  12
BRANCH  11  19
ATOM     19  C   UNL     1      -4.720 -10.633  17.227  0.00  0.00    +0.138 C 
BRANCH  19   7
ATOM      5  O   UNL     1      -1.885 -10.780  16.792  0.00  0.00    -0.270 OA
ATOM      7  N   UNL     1      -4.023 -10.329  16.012  0.00  0.00    -0.309 N 
ATOM     21  C   UNL     1      -2.640 -10.429  15.889  0.00  0.00    +0.244 C 
ATOM     31  H   UNL     1      -4.592 -10.083  15.208  0.00  0.00    +0.149 HD
BRANCH  21  22
ATOM     22  C   UNL     1      -2.068 -10.052  14.572  0.00  0.00    +0.037 A 
ATOM     23  C   UNL     1      -0.956  -9.211  14.507  0.00  0.00    +0.013 A 
ATOM     24  C   UNL     1      -2.641 -10.541  13.397  0.00  0.00    +0.013 A 
ATOM     25  C   UNL     1      -0.420  -8.857  13.269  0.00  0.00    +0.004 A 
ATOM     26  C   UNL     1      -2.105 -10.188  12.159  0.00  0.00    +0.004 A 
ATOM     27  C   UNL     1      -0.994  -9.345  12.095  0.00  0.00    -0.050 A 
ATOM     28  C   UNL     1      -0.420  -8.967  10.772  0.00  0.00    +0.044 C 
ENDBRANCH  21  22
ENDBRANCH  19   7
ENDBRANCH  11  19
TORSDOF 7
ENDMDL
MODEL 3
REMARK VINA RESULT:      -2.9     14.424     16.481
REMARK  Name = 25390483
REMARK  9 active torsions:
REMARK  status: ('A' for Active; 'I' for Inactive)
REMARK    1  A    between atoms: O_2  and  C_9
REMARK    2  A    between atoms: O_3  and  C_10
REMARK    3  A    between atoms: N_7  and  C_19
REMARK    4  A    between atoms: C_8  and  C_12
REMARK    5  A    between atoms: C_11  and  C_19
REMARK    6  A    between atoms: C_12  and  C_18
REMARK    7  A    between atoms: C_13  and  C_20
REMARK    8  A    between atoms: C_21  and  C_22
REMARK    9  A    between atoms: C_27  and  C_28
REMARK                            x       y       z     vdW  Elec       q    Type
REMARK                         _______ _______ _______ _____ _____    ______ ____
ROOT
ATOM      1  O   UNL     1      -2.602   3.007  23.807  0.00  0.00    -0.366 OA
ATOM      8  C   UNL     1      -3.073   3.640  25.019  0.00  0.00    +0.159 C 
ATOM      9  C   UNL     1      -1.831   3.985  25.834  0.00  0.00    +0.175 C 
ATOM     10  C   UNL     1      -0.854   2.916  25.387  0.00  0.00    +0.176 C 
ATOM     11  C   UNL     1      -1.181   2.804  23.907  0.00  0.00    +0.167 C 
ENDROOT
BRANCH   9   2
ATOM      2  O   UNL     1      -1.376   5.275  25.425  0.00  0.00    -0.387 OA
ATOM     29  H   UNL     1      -0.689   5.554  26.053  0.00  0.00    +0.210 HD
ENDBRANCH   9   2
BRANCH  10   3
ATOM      3  O   UNL     1       0.496   3.266  25.607  0.00  0.00    -0.387 OA
ATOM     30  H   UNL     1       0.951   3.225  24.749  0.00  0.00    +0.210 HD
ENDBRANCH  10   3
BRANCH   8  12
ATOM     12  C   UNL     1      -3.998   2.659  25.728  0.00  0.00    +0.130 C 
BRANCH  12  18
ATOM      4  O   UNL     1      -5.633   1.946  24.169  0.00  0.00    -0.276 OA
ATOM      6  N   UNL     1      -3.838   0.513  24.516  0.00  0.00    -0.301 N 
ATOM     13  C   UNL     1      -3.119  -2.279  24.840  0.00  0.00    -0.011 C 
ATOM     14  C   UNL     1      -2.659  -1.203  25.836  0.00  0.00    +0.022 C 
ATOM     15  C   UNL     1      -4.433  -1.853  24.168  0.00  0.00    +0.022 C 
ATOM     16  C   UNL     1      -2.571   0.170  25.171  0.00  0.00    +0.108 C 
ATOM     17  C   UNL     1      -4.307  -0.469  23.535  0.00  0.00    +0.108 C 
ATOM     18  C   UNL     1      -4.569   1.681  24.733  0.00  0.00    +0.218 C 
ATOM     20  C   UNL     1      -3.276  -3.629  25.534  0.00  0.00    +0.007 C 
ENDBRANCH  12  18
ENDBRANCH   8  12
BRANCH  11  19
ATOM     19  C   UNL     1      -0.814   1.458  23.310  0.00  0.00    +0.138 C 
BRANCH  19   7
ATOM      5  O   UNL     1       0.709  -0.531  21.906  0.00  0.00    -0.270 OA
ATOM      7  N   UNL     1       0.586   1.191  23.457  0.00  0.00    -0.309 N 
ATOM     21  C   UNL     1       1.247   0.203  22.732  0.00  0.00    +0.244 C 
ATOM     31  H   UNL     1       1.104   1.797  24.085  0.00  0.00    +0.149 HD
BRANCH  21  22
ATOM     22  C   UNL     1       2.694   0.032  23.019  0.00  0.00    +0.037 A 
ATOM     23  C   UNL     1       3.170  -1.179  23.522  0.00  0.00    +0.013 A 
ATOM     24  C   UNL     1       3.580   1.085  22.785  0.00  0.00    +0.013 A 
ATOM     25  C   UNL     1       4.529  -1.338  23.792  0.00  0.00    +0.004 A 
ATOM     26  C   UNL     1       4.939   0.926  23.055  0.00  0.00    +0.004 A 
ATOM     27  C   UNL     1       5.413  -0.285  23.559  0.00  0.00    -0.050 A 
ATOM     28  C   UNL     1       6.866  -0.455  23.848  0.00  0.00    +0.044 C 
ENDBRANCH  21  22
ENDBRANCH  19   7
ENDBRANCH  11  19
TORSDOF 7
ENDMDL
MODEL 4
REMARK VINA RESULT:      -2.0     14.175     16.147
REMARK  Name = 25390483
REMARK  9 active torsions:
REMARK  status: ('A' for Active; 'I' for Inactive)
REMARK    1  A    between atoms: O_2  and  C_9
REMARK    2  A    between atoms: O_3  and  C_10
REMARK    3  A    between atoms: N_7  and  C_19
REMARK    4  A    between atoms: C_8  and  C_12
REMARK    5  A    between atoms: C_11  and  C_19
REMARK    6  A    between atoms: C_12  and  C_18
REMARK    7  A    between atoms: C_13  and  C_20
REMARK    8  A    between atoms: C_21  and  C_22
REMARK    9  A    between atoms: C_27  and  C_28
REMARK                            x       y       z     vdW  Elec       q    Type
REMARK                         _______ _______ _______ _____ _____    ______ ____
ROOT
ATOM      1  O   UNL     1      -2.332  -0.071  25.730  0.00  0.00    -0.366 OA
ATOM      8  C   UNL     1      -3.546  -0.804  26.016  0.00  0.00    +0.159 C 
ATOM      9  C   UNL     1      -3.392  -2.167  25.350  0.00  0.00    +0.175 C 
ATOM     10  C   UNL     1      -2.478  -1.847  24.185  0.00  0.00    +0.176 C 
ATOM     11  C   UNL     1      -1.532  -0.834  24.810  0.00  0.00    +0.167 C 
ENDROOT
BRANCH   9   2
ATOM      2  O   UNL     1      -2.736  -3.038  26.271  0.00  0.00    -0.387 OA
ATOM     29  H   UNL     1      -2.003  -3.465  25.796  0.00  0.00    +0.210 HD
ENDBRANCH   9   2
BRANCH  10   3
ATOM      3  O   UNL     1      -1.792  -2.975  23.687  0.00  0.00    -0.387 OA
ATOM     30  H   UNL     1      -2.436  -3.699  23.612  0.00  0.00    +0.210 HD
ENDBRANCH  10   3
BRANCH   8  12
ATOM     12  C   UNL     1      -4.716   0.000  25.466  0.00  0.00    +0.130 C 
BRANCH  12  18
ATOM      4  O   UNL     1      -4.175   0.181  23.166  0.00  0.00    -0.276 OA
ATOM      6  N   UNL     1      -4.022   2.129  24.422  0.00  0.00    -0.301 N 
ATOM     13  C   UNL     1      -2.404   4.497  24.854  0.00  0.00    -0.011 C 
ATOM     14  C   UNL     1      -2.841   3.592  26.017  0.00  0.00    +0.022 C 
ATOM     15  C   UNL     1      -2.324   3.687  23.552  0.00  0.00    +0.022 C 
ATOM     16  C   UNL     1      -4.140   2.858  25.690  0.00  0.00    +0.108 C 
ATOM     17  C   UNL     1      -3.634   2.953  23.276  0.00  0.00    +0.108 C 
ATOM     18  C   UNL     1      -4.282   0.771  24.244  0.00  0.00    +0.218 C 
ATOM     20  C   UNL     1      -1.066   5.167  25.161  0.00  0.00    +0.007 C 
ENDBRANCH  12  18
ENDBRANCH   8  12
BRANCH  11  19
ATOM     19  C   UNL     1      -0.892   0.097  23.796  0.00  0.00    +0.138 C 
BRANCH  19   7
ATOM      5  O   UNL     1       0.964  -0.338  21.648  0.00  0.00    -0.270 OA
ATOM      7  N   UNL     1       0.538   0.064  23.893  0.00  0.00    -0.309 N 
ATOM     21  C   UNL     1       1.364  -0.154  22.794  0.00  0.00    +0.244 C 
ATOM     31  H   UNL     1       0.939   0.263  24.804  0.00  0.00    +0.149 HD
BRANCH  21  22
ATOM     22  C   UNL     1       2.824  -0.185  23.065  0.00  0.00    +0.037 A 
ATOM     23  C   UNL     1       3.610   0.935  22.794  0.00  0.00    +0.013 A 
ATOM     24  C   UNL     1       3.411  -1.336  23.593  0.00  0.00    +0.013 A 
ATOM     25  C   UNL     1       4.981   0.905  23.048  0.00  0.00    +0.004 A 
ATOM     26  C   UNL     1       4.782  -1.367  23.847  0.00  0.00    +0.004 A 
ATOM     27  C   UNL     1       5.567  -0.246  23.574  0.00  0.00    -0.050 A 
ATOM     28  C   UNL     1       7.033  -0.278  23.846  0.00  0.00    +0.044 C 
ENDBRANCH  21  22
ENDBRANCH  19   7
ENDBRANCH  11  19
TORSDOF 7
ENDMDL
