MODEL 1
REMARK VINA RESULT:      -1.5      0.000      0.000
REMARK  Name = 40776931
REMARK  7 active torsions:
REMARK  status: ('A' for Active; 'I' for Inactive)
REMARK    1  A    between atoms: N_4  and  C_15
REMARK    2  A    between atoms: N_7  and  C_23
REMARK    3  A    between atoms: C_9  and  C_16
REMARK    4  A    between atoms: C_10  and  C_15
REMARK    5  A    between atoms: C_18  and  C_21
REMARK    6  A    between atoms: C_19  and  C_22
REMARK    7  A    between atoms: C_23  and  C_28
REMARK                            x       y       z     vdW  Elec       q    Type
REMARK                         _______ _______ _______ _____ _____    ______ ____
ROOT
ATOM      3  N   UNL     1      16.142  -9.344  27.493  0.00  0.00    -0.297 NA
ATOM      8  C   UNL     1      14.728  -7.604  26.170  0.00  0.00    +0.002 C 
ATOM      9  C   UNL     1      16.228  -7.202  26.164  0.00  0.00    +0.055 C 
ATOM     10  C   UNL     1      14.974  -8.915  28.307  0.00  0.00    +0.074 C 
ATOM     11  C   UNL     1      14.242  -7.737  27.629  0.00  0.00    +0.024 C 
ATOM     12  C   UNL     1      14.638  -9.007  25.532  0.00  0.00    +0.019 C 
ATOM     13  C   UNL     1      16.970  -8.167  27.133  0.00  0.00    +0.094 C 
ATOM     14  C   UNL     1      15.628  -9.948  26.241  0.00  0.00    +0.085 C 
ENDROOT
BRANCH   9  16
ATOM      5  N   UNL     1      16.821  -4.982  25.328  0.00  0.00    -0.237 NA
ATOM      6  N   UNL     1      17.226  -3.120  26.804  0.00  0.00    -0.232 NA
ATOM     16  C   UNL     1      16.583  -5.744  26.416  0.00  0.00    +0.050 A 
ATOM     17  C   UNL     1      16.645  -5.273  27.711  0.00  0.00    +0.052 A 
ATOM     18  C   UNL     1      16.975  -3.939  27.846  0.00  0.00    +0.075 A 
ATOM     19  C   UNL     1      17.133  -3.698  25.591  0.00  0.00    +0.127 A 
ATOM     22  C   UNL     1      17.405  -2.824  24.414  0.00  0.00    +0.088 C 
BRANCH  18  21
ATOM      1  F   UNL     1      17.364  -1.566  32.873  0.00  0.00    -0.205 F 
ATOM     21  C   UNL     1      17.076  -3.325  29.148  0.00  0.00    +0.001 A 
ATOM     24  C   UNL     1      17.223  -1.941  29.258  0.00  0.00    +0.013 A 
ATOM     25  C   UNL     1      17.026  -4.113  30.297  0.00  0.00    +0.013 A 
ATOM     26  C   UNL     1      17.321  -1.348  30.516  0.00  0.00    +0.039 A 
ATOM     27  C   UNL     1      17.123  -3.519  31.556  0.00  0.00    +0.039 A 
ATOM     29  C   UNL     1      17.271  -2.137  31.665  0.00  0.00    +0.123 A 
ENDBRANCH  18  21
ENDBRANCH   9  16
BRANCH  10  15
ATOM     15  C   UNL     1      15.356  -8.593  29.752  0.00  0.00    +0.124 C 
BRANCH  15   4
ATOM      2  O   UNL     1      13.175  -7.272  31.078  0.00  0.00    -0.253 OA
ATOM      4  N   UNL     1      14.430  -9.182  30.669  0.00  0.00    -0.298 N 
ATOM      7  N   UNL     1      12.635  -9.274  32.122  0.00  0.00    -0.295 N 
ATOM     20  C   UNL     1      13.390  -8.467  31.275  0.00  0.00    +0.300 C 
ATOM     35  H   UNL     1      14.559 -10.155  30.928  0.00  0.00    +0.150 HD
ATOM     36  H   UNL     1      12.878 -10.257  32.199  0.00  0.00    +0.151 HD
BRANCH   7  23
ATOM     23  C   UNL     1      11.500  -8.789  32.873  0.00  0.00    +0.141 C 
BRANCH  23  28
ATOM     28  C   UNL     1      10.197  -9.161  32.226  0.00  0.00    -0.030 A 
ATOM     30  C   UNL     1       9.131  -8.262  32.240  0.00  0.00    +0.005 A 
ATOM     31  C   UNL     1      10.055 -10.405  31.612  0.00  0.00    +0.005 A 
ATOM     32  C   UNL     1       7.919  -8.608  31.639  0.00  0.00    +0.000 A 
ATOM     33  C   UNL     1       8.844 -10.750  31.010  0.00  0.00    +0.000 A 
ATOM     34  C   UNL     1       7.777  -9.852  31.024  0.00  0.00    +0.000 A 
ENDBRANCH  23  28
ENDBRANCH   7  23
ENDBRANCH  15   4
ENDBRANCH  10  15
TORSDOF 6
ENDMDL
