MODEL 1
REMARK VINA RESULT:      -3.8      0.000      0.000
REMARK  Name = 75536745
REMARK  5 active torsions:
REMARK  status: ('A' for Active; 'I' for Inactive)
REMARK    1  A    between atoms: O_2  and  C_10
REMARK    2  A    between atoms: N_5  and  C_8
REMARK    3  A    between atoms: N_5  and  C_9
REMARK    4  A    between atoms: N_6  and  C_17
REMARK    5  A    between atoms: C_13  and  C_17
REMARK                            x       y       z     vdW  Elec       q    Type
REMARK                         _______ _______ _______ _____ _____    ______ ____
ROOT
ATOM      1  O   UNL     1      -5.581   3.235  26.050  0.00  0.00    -0.371 OA
ATOM      9  C   UNL     1      -3.844   4.210  24.758  0.00  0.00    +0.111 C 
ATOM     10  C   UNL     1      -4.066   2.783  24.291  0.00  0.00    +0.164 C 
ATOM     13  C   UNL     1      -5.475   2.521  24.806  0.00  0.00    +0.165 C 
ATOM     16  C   UNL     1      -4.505   4.186  26.125  0.00  0.00    +0.181 C 
ENDROOT
BRANCH  10   2
ATOM      2  O   UNL     1      -3.984   2.649  22.886  0.00  0.00    -0.388 OA
ATOM     24  H   UNL     1      -3.555   3.443  22.527  0.00  0.00    +0.210 HD
ENDBRANCH  10   2
BRANCH   9   5
ATOM      5  N   UNL     1      -2.442   4.594  24.813  0.00  0.00    -0.306 NA
ATOM     23  H   UNL     1      -2.278   5.208  25.610  0.00  0.00    +0.123 HD
BRANCH   5   8
ATOM      8  C   UNL     1      -1.583   3.427  24.896  0.00  0.00    +0.054 C 
ATOM     11  C   UNL     1      -0.374   3.519  23.973  0.00  0.00    +0.019 C 
ATOM     12  C   UNL     1      -0.937   3.266  26.265  0.00  0.00    +0.019 C 
ATOM     14  C   UNL     1       0.583   2.467  24.528  0.00  0.00    +0.002 C 
ATOM     15  C   UNL     1       0.221   2.305  26.007  0.00  0.00    +0.002 C 
ENDBRANCH   5   8
ENDBRANCH   9   5
BRANCH  13  17
ATOM     17  C   UNL     1      -5.769   1.050  25.031  0.00  0.00    +0.140 C 
BRANCH  17   6
ATOM      3  O   UNL     1      -0.394  -2.448  25.292  0.00  0.00    -0.377 OA
ATOM      4  O   UNL     1      -4.967  -1.331  23.765  0.00  0.00    -0.253 OA
ATOM      6  N   UNL     1      -4.563   0.307  25.321  0.00  0.00    -0.297 N 
ATOM      7  N   UNL     1      -3.037  -1.478  25.045  0.00  0.00    -0.281 N 
ATOM     18  C   UNL     1      -4.238  -0.865  24.648  0.00  0.00    +0.302 C 
ATOM     19  C   UNL     1      -2.620  -2.721  24.393  0.00  0.00    +0.137 C 
ATOM     20  C   UNL     1      -2.194  -1.078  26.180  0.00  0.00    +0.137 C 
ATOM     21  C   UNL     1      -1.129  -2.707  24.094  0.00  0.00    +0.179 C 
ATOM     22  C   UNL     1      -0.716  -1.159  25.814  0.00  0.00    +0.179 C 
ATOM     25  H   UNL     1      -3.978   0.679  26.055  0.00  0.00    +0.150 HD
ENDBRANCH  17   6
ENDBRANCH  13  17
TORSDOF 5
ENDMDL
MODEL 2
REMARK VINA RESULT:      -3.8      1.954      4.283
REMARK  Name = 75536745
REMARK  5 active torsions:
REMARK  status: ('A' for Active; 'I' for Inactive)
REMARK    1  A    between atoms: O_2  and  C_10
REMARK    2  A    between atoms: N_5  and  C_8
REMARK    3  A    between atoms: N_5  and  C_9
REMARK    4  A    between atoms: N_6  and  C_17
REMARK    5  A    between atoms: C_13  and  C_17
REMARK                            x       y       z     vdW  Elec       q    Type
REMARK                         _______ _______ _______ _____ _____    ______ ____
ROOT
ATOM      1  O   UNL     1       0.077   3.887  23.729  0.00  0.00    -0.371 OA
ATOM      9  C   UNL     1      -1.317   4.306  25.605  0.00  0.00    +0.111 C 
ATOM     10  C   UNL     1      -0.929   2.839  25.595  0.00  0.00    +0.164 C 
ATOM     13  C   UNL     1       0.315   2.871  24.716  0.00  0.00    +0.165 C 
ATOM     16  C   UNL     1      -1.019   4.706  24.170  0.00  0.00    +0.181 C 
ENDROOT
BRANCH  10   2
ATOM      2  O   UNL     1      -0.649   2.339  26.888  0.00  0.00    -0.388 OA
ATOM     24  H   UNL     1       0.287   2.082  26.921  0.00  0.00    +0.210 HD
ENDBRANCH  10   2
BRANCH   9   5
ATOM      5  N   UNL     1      -2.702   4.541  25.983  0.00  0.00    -0.306 NA
ATOM     23  H   UNL     1      -3.055   5.378  25.521  0.00  0.00    +0.123 HD
BRANCH   5   8
ATOM      8  C   UNL     1      -3.534   3.398  25.653  0.00  0.00    +0.054 C 
ATOM     11  C   UNL     1      -4.914   3.470  26.296  0.00  0.00    +0.019 C 
ATOM     12  C   UNL     1      -3.869   3.322  24.169  0.00  0.00    +0.019 C 
ATOM     14  C   UNL     1      -5.739   2.470  25.489  0.00  0.00    +0.002 C 
ATOM     15  C   UNL     1      -5.065   2.375  24.118  0.00  0.00    +0.002 C 
ENDBRANCH   5   8
ENDBRANCH   9   5
BRANCH  13  17
ATOM     17  C   UNL     1       0.601   1.547  24.032  0.00  0.00    +0.140 C 
BRANCH  17   6
ATOM      3  O   UNL     1      -4.418  -2.444  24.318  0.00  0.00    -0.377 OA
ATOM      4  O   UNL     1       0.343  -1.164  24.742  0.00  0.00    -0.253 OA
ATOM      6  N   UNL     1      -0.598   0.750  23.897  0.00  0.00    -0.297 N 
ATOM      7  N   UNL     1      -1.878  -1.230  24.073  0.00  0.00    -0.281 N 
ATOM     18  C   UNL     1      -0.643  -0.587  24.272  0.00  0.00    +0.302 C 
ATOM     19  C   UNL     1      -2.013  -2.643  24.435  0.00  0.00    +0.137 C 
ATOM     20  C   UNL     1      -3.048  -0.667  23.385  0.00  0.00    +0.137 C 
ATOM     21  C   UNL     1      -3.338  -2.902  25.134  0.00  0.00    +0.179 C 
ATOM     22  C   UNL     1      -4.335  -1.033  24.115  0.00  0.00    +0.179 C 
ATOM     25  H   UNL     1      -1.398   1.218  23.496  0.00  0.00    +0.150 HD
ENDBRANCH  17   6
ENDBRANCH  13  17
TORSDOF 5
ENDMDL
MODEL 3
REMARK VINA RESULT:      -3.6      1.805      5.889
REMARK  Name = 75536745
REMARK  5 active torsions:
REMARK  status: ('A' for Active; 'I' for Inactive)
REMARK    1  A    between atoms: O_2  and  C_10
REMARK    2  A    between atoms: N_5  and  C_8
REMARK    3  A    between atoms: N_5  and  C_9
REMARK    4  A    between atoms: N_6  and  C_17
REMARK    5  A    between atoms: C_13  and  C_17
REMARK                            x       y       z     vdW  Elec       q    Type
REMARK                         _______ _______ _______ _____ _____    ______ ____
ROOT
ATOM      1  O   UNL     1      -0.251   1.283  25.866  0.00  0.00    -0.371 OA
ATOM      9  C   UNL     1      -0.157  -0.954  25.074  0.00  0.00    +0.111 C 
ATOM     10  C   UNL     1      -0.162  -0.008  23.886  0.00  0.00    +0.164 C 
ATOM     13  C   UNL     1       0.304   1.286  24.540  0.00  0.00    +0.165 C 
ATOM     16  C   UNL     1      -0.683  -0.053  26.178  0.00  0.00    +0.181 C 
ENDROOT
BRANCH  10   2
ATOM      2  O   UNL     1       0.712  -0.423  22.854  0.00  0.00    -0.388 OA
ATOM     24  H   UNL     1       1.624  -0.228  23.129  0.00  0.00    +0.210 HD
ENDBRANCH  10   2
BRANCH   9   5
ATOM      5  N   UNL     1      -0.971  -2.142  24.876  0.00  0.00    -0.306 NA
ATOM     23  H   UNL     1      -1.135  -2.608  25.768  0.00  0.00    +0.123 HD
BRANCH   5   8
ATOM      8  C   UNL     1      -2.237  -1.810  24.246  0.00  0.00    +0.054 C 
ATOM     11  C   UNL     1      -3.095  -3.037  23.966  0.00  0.00    +0.019 C 
ATOM     12  C   UNL     1      -3.141  -0.975  25.143  0.00  0.00    +0.019 C 
ATOM     14  C   UNL     1      -4.490  -2.458  23.747  0.00  0.00    +0.002 C 
ATOM     15  C   UNL     1      -4.520  -1.128  24.506  0.00  0.00    +0.002 C 
ENDBRANCH   5   8
ENDBRANCH   9   5
BRANCH  13  17
ATOM     17  C   UNL     1      -0.146   2.530  23.798  0.00  0.00    +0.140 C 
BRANCH  17   6
ATOM      3  O   UNL     1      -6.160   3.554  25.792  0.00  0.00    -0.377 OA
ATOM      4  O   UNL     1      -2.638   1.506  22.985  0.00  0.00    -0.253 OA
ATOM      6  N   UNL     1      -1.438   2.987  24.262  0.00  0.00    -0.297 N 
ATOM      7  N   UNL     1      -3.800   2.981  24.348  0.00  0.00    -0.281 N 
ATOM     18  C   UNL     1      -2.626   2.426  23.809  0.00  0.00    +0.302 C 
ATOM     19  C   UNL     1      -5.099   2.454  23.921  0.00  0.00    +0.137 C 
ATOM     20  C   UNL     1      -3.882   4.168  25.210  0.00  0.00    +0.137 C 
ATOM     21  C   UNL     1      -6.042   2.307  25.104  0.00  0.00    +0.179 C 
ATOM     22  C   UNL     1      -4.900   3.958  26.326  0.00  0.00    +0.179 C 
ATOM     25  H   UNL     1      -1.427   3.751  24.922  0.00  0.00    +0.150 HD
ENDBRANCH  17   6
ENDBRANCH  13  17
TORSDOF 5
ENDMDL
MODEL 4
REMARK VINA RESULT:      -2.6      1.817      4.930
REMARK  Name = 75536745
REMARK  5 active torsions:
REMARK  status: ('A' for Active; 'I' for Inactive)
REMARK    1  A    between atoms: O_2  and  C_10
REMARK    2  A    between atoms: N_5  and  C_8
REMARK    3  A    between atoms: N_5  and  C_9
REMARK    4  A    between atoms: N_6  and  C_17
REMARK    5  A    between atoms: C_13  and  C_17
REMARK                            x       y       z     vdW  Elec       q    Type
REMARK                         _______ _______ _______ _____ _____    ______ ____
ROOT
ATOM      1  O   UNL     1      -0.406  -1.009  22.945  0.00  0.00    -0.371 OA
ATOM      9  C   UNL     1       0.574   0.389  24.596  0.00  0.00    +0.111 C 
ATOM     10  C   UNL     1      -0.804  -0.039  25.065  0.00  0.00    +0.164 C 
ATOM     13  C   UNL     1      -1.034  -1.278  24.210  0.00  0.00    +0.165 C 
ATOM     16  C   UNL     1       0.485   0.108  23.106  0.00  0.00    +0.181 C 
ENDROOT
BRANCH  10   2
ATOM      2  O   UNL     1      -0.843  -0.338  26.448  0.00  0.00    -0.388 OA
ATOM     24  H   UNL     1      -1.133   0.458  26.924  0.00  0.00    +0.210 HD
ENDBRANCH  10   2
BRANCH   9   5
ATOM      5  N   UNL     1       0.887   1.778  24.894  0.00  0.00    -0.306 NA
ATOM     23  H   UNL     1       1.595   2.124  24.249  0.00  0.00    +0.123 HD
BRANCH   5   8
ATOM      8  C   UNL     1      -0.303   2.607  24.823  0.00  0.00    +0.054 C 
ATOM     11  C   UNL     1      -0.896   2.904  26.195  0.00  0.00    +0.019 C 
ATOM     12  C   UNL     1      -0.018   4.002  24.281  0.00  0.00    +0.019 C 
ATOM     14  C   UNL     1      -1.807   4.103  25.941  0.00  0.00    +0.002 C 
ATOM     15  C   UNL     1      -1.241   4.810  24.707  0.00  0.00    +0.002 C 
ENDBRANCH   5   8
ENDBRANCH   9   5
BRANCH  13  17
ATOM     17  C   UNL     1      -2.502  -1.598  23.997  0.00  0.00    +0.140 C 
BRANCH  17   6
ATOM      3  O   UNL     1      -5.926   3.658  25.357  0.00  0.00    -0.377 OA
ATOM      4  O   UNL     1      -4.236  -0.931  26.110  0.00  0.00    -0.253 OA
ATOM      6  N   UNL     1      -3.320  -0.407  24.073  0.00  0.00    -0.297 N 
ATOM      7  N   UNL     1      -4.891   1.043  25.082  0.00  0.00    -0.281 N 
ATOM     18  C   UNL     1      -4.153  -0.152  25.156  0.00  0.00    +0.302 C 
ATOM     19  C   UNL     1      -5.799   1.389  26.177  0.00  0.00    +0.137 C 
ATOM     20  C   UNL     1      -4.967   1.945  23.924  0.00  0.00    +0.137 C 
ATOM     21  C   UNL     1      -5.697   2.866  26.524  0.00  0.00    +0.179 C 
ATOM     22  C   UNL     1      -4.927   3.403  24.369  0.00  0.00    +0.179 C 
ATOM     25  H   UNL     1      -3.265   0.220  23.283  0.00  0.00    +0.150 HD
ENDBRANCH  17   6
ENDBRANCH  13  17
TORSDOF 5
ENDMDL
MODEL 5
REMARK VINA RESULT:      -2.4      2.042      4.120
REMARK  Name = 75536745
REMARK  5 active torsions:
REMARK  status: ('A' for Active; 'I' for Inactive)
REMARK    1  A    between atoms: O_2  and  C_10
REMARK    2  A    between atoms: N_5  and  C_8
REMARK    3  A    between atoms: N_5  and  C_9
REMARK    4  A    between atoms: N_6  and  C_17
REMARK    5  A    between atoms: C_13  and  C_17
REMARK                            x       y       z     vdW  Elec       q    Type
REMARK                         _______ _______ _______ _____ _____    ______ ____
ROOT
ATOM      1  O   UNL     1      -0.962   2.314  23.091  0.00  0.00    -0.371 OA
ATOM      9  C   UNL     1      -2.571   3.965  23.662  0.00  0.00    +0.111 C 
ATOM     10  C   UNL     1      -1.728   3.654  24.884  0.00  0.00    +0.164 C 
ATOM     13  C   UNL     1      -0.492   3.040  24.239  0.00  0.00    +0.165 C 
ATOM     16  C   UNL     1      -2.299   2.751  22.791  0.00  0.00    +0.181 C 
ENDROOT
BRANCH  10   2
ATOM      2  O   UNL     1      -1.411   4.808  25.638  0.00  0.00    -0.388 OA
ATOM     24  H   UNL     1      -0.803   5.357  25.116  0.00  0.00    +0.210 HD
ENDBRANCH  10   2
BRANCH   9   5
ATOM      5  N   UNL     1      -3.984   4.145  23.958  0.00  0.00    -0.306 NA
ATOM     23  H   UNL     1      -4.533   4.082  23.102  0.00  0.00    +0.123 HD
BRANCH   5   8
ATOM      8  C   UNL     1      -4.445   3.162  24.922  0.00  0.00    +0.054 C 
ATOM     11  C   UNL     1      -5.618   3.661  25.757  0.00  0.00    +0.019 C 
ATOM     12  C   UNL     1      -5.019   1.915  24.263  0.00  0.00    +0.019 C 
ATOM     14  C   UNL     1      -6.211   2.382  26.343  0.00  0.00    +0.002 C 
ATOM     15  C   UNL     1      -5.826   1.257  25.379  0.00  0.00    +0.002 C 
ENDBRANCH   5   8
ENDBRANCH   9   5
BRANCH  13  17
ATOM     17  C   UNL     1       0.267   2.105  25.163  0.00  0.00    +0.140 C 
BRANCH  17   6
ATOM      3  O   UNL     1      -2.930  -3.435  24.628  0.00  0.00    -0.377 OA
ATOM      4  O   UNL     1      -2.282   1.270  26.016  0.00  0.00    -0.253 OA
ATOM      6  N   UNL     1      -0.247   0.755  25.089  0.00  0.00    -0.297 N 
ATOM      7  N   UNL     1      -1.875  -0.930  25.402  0.00  0.00    -0.281 N 
ATOM     18  C   UNL     1      -1.521   0.424  25.534  0.00  0.00    +0.302 C 
ATOM     19  C   UNL     1      -3.198  -1.369  25.852  0.00  0.00    +0.137 C 
ATOM     20  C   UNL     1      -0.985  -2.022  24.984  0.00  0.00    +0.137 C 
ATOM     21  C   UNL     1      -3.818  -2.339  24.858  0.00  0.00    +0.179 C 
ATOM     22  C   UNL     1      -1.708  -2.982  24.046  0.00  0.00    +0.179 C 
ATOM     25  H   UNL     1       0.382   0.061  24.712  0.00  0.00    +0.150 HD
ENDBRANCH  17   6
ENDBRANCH  13  17
TORSDOF 5
ENDMDL
MODEL 6
REMARK VINA RESULT:      -2.3      2.042      5.290
REMARK  Name = 75536745
REMARK  5 active torsions:
REMARK  status: ('A' for Active; 'I' for Inactive)
REMARK    1  A    between atoms: O_2  and  C_10
REMARK    2  A    between atoms: N_5  and  C_8
REMARK    3  A    between atoms: N_5  and  C_9
REMARK    4  A    between atoms: N_6  and  C_17
REMARK    5  A    between atoms: C_13  and  C_17
REMARK                            x       y       z     vdW  Elec       q    Type
REMARK                         _______ _______ _______ _____ _____    ______ ____
ROOT
ATOM      1  O   UNL     1      -0.537   2.840  26.565  0.00  0.00    -0.371 OA
ATOM      9  C   UNL     1       0.206   1.380  24.845  0.00  0.00    +0.111 C 
ATOM     10  C   UNL     1      -0.416   2.612  24.214  0.00  0.00    +0.164 C 
ATOM     13  C   UNL     1      -0.334   3.605  25.366  0.00  0.00    +0.165 C 
ATOM     16  C   UNL     1      -0.358   1.447  26.254  0.00  0.00    +0.181 C 
ENDROOT
BRANCH  10   2
ATOM      2  O   UNL     1       0.296   3.062  23.078  0.00  0.00    -0.388 OA
ATOM     24  H   UNL     1      -0.001   2.549  22.308  0.00  0.00    +0.210 HD
ENDBRANCH  10   2
BRANCH   9   5
ATOM      5  N   UNL     1      -0.128   0.142  24.159  0.00  0.00    -0.306 NA
ATOM     23  H   UNL     1       0.663  -0.500  24.189  0.00  0.00    +0.123 HD
BRANCH   5   8
ATOM      8  C   UNL     1      -1.299  -0.482  24.749  0.00  0.00    +0.054 C 
ATOM     11  C   UNL     1      -2.589  -0.111  24.027  0.00  0.00    +0.019 C 
ATOM     12  C   UNL     1      -1.282  -2.000  24.628  0.00  0.00    +0.019 C 
ATOM     14  C   UNL     1      -3.578  -1.179  24.487  0.00  0.00    +0.002 C 
ATOM     15  C   UNL     1      -2.736  -2.397  24.875  0.00  0.00    +0.002 C 
ENDBRANCH   5   8
ENDBRANCH   9   5
BRANCH  13  17
ATOM     17  C   UNL     1      -1.369   4.712  25.281  0.00  0.00    +0.140 C 
BRANCH  17   6
ATOM      3  O   UNL     1      -6.989   1.666  25.860  0.00  0.00    -0.377 OA
ATOM      4  O   UNL     1      -2.939   3.224  23.481  0.00  0.00    -0.253 OA
ATOM      6  N   UNL     1      -2.701   4.212  25.538  0.00  0.00    -0.297 N 
ATOM      7  N   UNL     1      -4.698   3.071  24.988  0.00  0.00    -0.281 N 
ATOM     18  C   UNL     1      -3.412   3.483  24.593  0.00  0.00    +0.302 C 
ATOM     19  C   UNL     1      -5.520   2.303  24.050  0.00  0.00    +0.137 C 
ATOM     20  C   UNL     1      -5.391   3.461  26.223  0.00  0.00    +0.137 C 
ATOM     21  C   UNL     1      -6.231   1.161  24.759  0.00  0.00    +0.179 C 
ATOM     22  C   UNL     1      -6.132   2.274  26.827  0.00  0.00    +0.179 C 
ATOM     25  H   UNL     1      -3.093   4.439  26.441  0.00  0.00    +0.150 HD
ENDBRANCH  17   6
ENDBRANCH  13  17
TORSDOF 5
ENDMDL
MODEL 7
REMARK VINA RESULT:      -2.2      1.718      5.117
REMARK  Name = 75536745
REMARK  5 active torsions:
REMARK  status: ('A' for Active; 'I' for Inactive)
REMARK    1  A    between atoms: O_2  and  C_10
REMARK    2  A    between atoms: N_5  and  C_8
REMARK    3  A    between atoms: N_5  and  C_9
REMARK    4  A    between atoms: N_6  and  C_17
REMARK    5  A    between atoms: C_13  and  C_17
REMARK                            x       y       z     vdW  Elec       q    Type
REMARK                         _______ _______ _______ _____ _____    ______ ____
ROOT
ATOM      1  O   UNL     1      -2.693  -2.832  23.676  0.00  0.00    -0.371 OA
ATOM      9  C   UNL     1      -1.160  -1.936  25.253  0.00  0.00    +0.111 C 
ATOM     10  C   UNL     1      -2.496  -1.234  25.409  0.00  0.00    +0.164 C 
ATOM     13  C   UNL     1      -3.434  -2.240  24.757  0.00  0.00    +0.165 C 
ATOM     16  C   UNL     1      -1.297  -2.541  23.867  0.00  0.00    +0.181 C 
ENDROOT
BRANCH  10   2
ATOM      2  O   UNL     1      -2.834  -0.997  26.762  0.00  0.00    -0.388 OA
ATOM     24  H   UNL     1      -3.012  -0.048  26.871  0.00  0.00    +0.210 HD
ENDBRANCH  10   2
BRANCH   9   5
ATOM      5  N   UNL     1      -0.015  -1.046  25.372  0.00  0.00    -0.306 NA
ATOM     23  H   UNL     1       0.769  -1.409  24.832  0.00  0.00    +0.123 HD
BRANCH   5   8
ATOM      8  C   UNL     1      -0.349   0.296  24.930  0.00  0.00    +0.054 C 
ATOM     11  C   UNL     1      -0.368   1.304  26.072  0.00  0.00    +0.019 C 
ATOM     12  C   UNL     1       0.695   0.884  23.991  0.00  0.00    +0.019 C 
ATOM     14  C   UNL     1      -0.284   2.653  25.362  0.00  0.00    +0.002 C 
ATOM     15  C   UNL     1       0.403   2.382  24.020  0.00  0.00    +0.002 C 
ENDBRANCH   5   8
ENDBRANCH   9   5
BRANCH  13  17
ATOM     17  C   UNL     1      -4.709  -1.615  24.223  0.00  0.00    +0.140 C 
BRANCH  17   6
ATOM      3  O   UNL     1      -3.833   4.741  24.393  0.00  0.00    -0.377 OA
ATOM      4  O   UNL     1      -5.444   0.374  26.072  0.00  0.00    -0.253 OA
ATOM      6  N   UNL     1      -4.560  -0.189  24.031  0.00  0.00    -0.297 N 
ATOM      7  N   UNL     1      -4.748   2.081  24.663  0.00  0.00    -0.281 N 
ATOM     18  C   UNL     1      -4.950   0.730  24.998  0.00  0.00    +0.302 C 
ATOM     19  C   UNL     1      -5.137   3.119  25.620  0.00  0.00    +0.137 C 
ATOM     20  C   UNL     1      -4.311   2.595  23.357  0.00  0.00    +0.137 C 
ATOM     21  C   UNL     1      -4.082   4.212  25.696  0.00  0.00    +0.179 C 
ATOM     22  C   UNL     1      -3.310   3.732  23.529  0.00  0.00    +0.179 C 
ATOM     25  H   UNL     1      -4.173   0.101  23.145  0.00  0.00    +0.150 HD
ENDBRANCH  17   6
ENDBRANCH  13  17
TORSDOF 5
ENDMDL
MODEL 8
REMARK VINA RESULT:      -2.1      2.016      2.802
REMARK  Name = 75536745
REMARK  5 active torsions:
REMARK  status: ('A' for Active; 'I' for Inactive)
REMARK    1  A    between atoms: O_2  and  C_10
REMARK    2  A    between atoms: N_5  and  C_8
REMARK    3  A    between atoms: N_5  and  C_9
REMARK    4  A    between atoms: N_6  and  C_17
REMARK    5  A    between atoms: C_13  and  C_17
REMARK                            x       y       z     vdW  Elec       q    Type
REMARK                         _______ _______ _______ _____ _____    ______ ____
ROOT
ATOM      1  O   UNL     1      -5.601   0.897  26.179  0.00  0.00    -0.371 OA
ATOM      9  C   UNL     1      -5.245   2.894  24.943  0.00  0.00    +0.111 C 
ATOM     10  C   UNL     1      -4.203   1.868  24.537  0.00  0.00    +0.164 C 
ATOM     13  C   UNL     1      -4.874   0.575  24.981  0.00  0.00    +0.165 C 
ATOM     16  C   UNL     1      -5.724   2.327  26.269  0.00  0.00    +0.181 C 
ENDROOT
BRANCH  10   2
ATOM      2  O   UNL     1      -3.941   1.876  23.147  0.00  0.00    -0.388 OA
ATOM     24  H   UNL     1      -4.199   2.744  22.792  0.00  0.00    +0.210 HD
ENDBRANCH  10   2
BRANCH   9   5
ATOM      5  N   UNL     1      -4.719   4.245  25.061  0.00  0.00    -0.306 NA
ATOM     23  H   UNL     1      -4.908   4.615  25.992  0.00  0.00    +0.123 HD
BRANCH   5   8
ATOM      8  C   UNL     1      -3.293   4.275  24.791  0.00  0.00    +0.054 C 
ATOM     11  C   UNL     1      -2.729   5.691  24.768  0.00  0.00    +0.019 C 
ATOM     12  C   UNL     1      -2.471   3.614  25.889  0.00  0.00    +0.019 C 
ATOM     14  C   UNL     1      -1.225   5.481  24.926  0.00  0.00    +0.002 C 
ATOM     15  C   UNL     1      -1.059   4.142  25.650  0.00  0.00    +0.002 C 
ENDBRANCH   5   8
ENDBRANCH   9   5
BRANCH  13  17
ATOM     17  C   UNL     1      -3.892  -0.546  25.262  0.00  0.00    +0.140 C 
BRANCH  17   6
ATOM      3  O   UNL     1       2.071   0.826  23.324  0.00  0.00    -0.377 OA
ATOM      4  O   UNL     1      -1.922  -2.037  23.914  0.00  0.00    -0.253 OA
ATOM      6  N   UNL     1      -2.528  -0.126  25.031  0.00  0.00    -0.297 N 
ATOM      7  N   UNL     1      -0.324  -0.381  24.215  0.00  0.00    -0.281 N 
ATOM     18  C   UNL     1      -1.613  -0.924  24.354  0.00  0.00    +0.302 C 
ATOM     19  C   UNL     1       0.706  -1.158  23.520  0.00  0.00    +0.137 C 
ATOM     20  C   UNL     1       0.167   0.857  24.835  0.00  0.00    +0.137 C 
ATOM     21  C   UNL     1       1.523  -0.272  22.592  0.00  0.00    +0.179 C 
ATOM     22  C   UNL     1       1.032   1.647  23.858  0.00  0.00    +0.179 C 
ATOM     25  H   UNL     1      -2.272   0.775  25.408  0.00  0.00    +0.150 HD
ENDBRANCH  17   6
ENDBRANCH  13  17
TORSDOF 5
ENDMDL
MODEL 9
REMARK VINA RESULT:      -2.0      3.359      5.364
REMARK  Name = 75536745
REMARK  5 active torsions:
REMARK  status: ('A' for Active; 'I' for Inactive)
REMARK    1  A    between atoms: O_2  and  C_10
REMARK    2  A    between atoms: N_5  and  C_8
REMARK    3  A    between atoms: N_5  and  C_9
REMARK    4  A    between atoms: N_6  and  C_17
REMARK    5  A    between atoms: C_13  and  C_17
REMARK                            x       y       z     vdW  Elec       q    Type
REMARK                         _______ _______ _______ _____ _____    ______ ____
ROOT
ATOM      1  O   UNL     1      -0.242   0.626  25.278  0.00  0.00    -0.371 OA
ATOM      9  C   UNL     1      -2.304   1.613  24.634  0.00  0.00    +0.111 C 
ATOM     10  C   UNL     1      -2.290   0.162  24.190  0.00  0.00    +0.164 C 
ATOM     13  C   UNL     1      -1.218  -0.415  25.105  0.00  0.00    +0.165 C 
ATOM     16  C   UNL     1      -0.824   1.873  24.859  0.00  0.00    +0.181 C 
ENDROOT
BRANCH  10   2
ATOM      2  O   UNL     1      -3.539  -0.477  24.372  0.00  0.00    -0.388 OA
ATOM     24  H   UNL     1      -3.972  -0.087  25.150  0.00  0.00    +0.210 HD
ENDBRANCH  10   2
BRANCH   9   5
ATOM      5  N   UNL     1      -2.896   2.515  23.659  0.00  0.00    -0.306 NA
ATOM     23  H   UNL     1      -3.019   2.037  22.767  0.00  0.00    +0.123 HD
BRANCH   5   8
ATOM      8  C   UNL     1      -4.169   3.030  24.129  0.00  0.00    +0.054 C 
ATOM     11  C   UNL     1      -5.118   1.928  24.584  0.00  0.00    +0.019 C 
ATOM     12  C   UNL     1      -4.033   3.882  25.384  0.00  0.00    +0.019 C 
ATOM     14  C   UNL     1      -6.153   2.669  25.427  0.00  0.00    +0.002 C 
ATOM     15  C   UNL     1      -5.453   3.929  25.944  0.00  0.00    +0.002 C 
ENDBRANCH   5   8
ENDBRANCH   9   5
BRANCH  13  17
ATOM     17  C   UNL     1      -0.551  -1.656  24.542  0.00  0.00    +0.140 C 
BRANCH  17   6
ATOM      3  O   UNL     1       5.352   0.334  22.998  0.00  0.00    -0.377 OA
ATOM      4  O   UNL     1       0.454  -0.090  22.432  0.00  0.00    -0.253 OA
ATOM      6  N   UNL     1       0.847  -1.424  24.258  0.00  0.00    -0.297 N 
ATOM      7  N   UNL     1       2.655  -0.508  23.039  0.00  0.00    -0.281 N 
ATOM     18  C   UNL     1       1.262  -0.635  23.191  0.00  0.00    +0.302 C 
ATOM     19  C   UNL     1       3.181   0.300  21.937  0.00  0.00    +0.137 C 
ATOM     20  C   UNL     1       3.680  -1.238  23.798  0.00  0.00    +0.137 C 
ATOM     21  C   UNL     1       4.349   1.158  22.400  0.00  0.00    +0.179 C 
ATOM     22  C   UNL     1       4.843  -0.320  24.160  0.00  0.00    +0.179 C 
ATOM     25  H   UNL     1       1.507  -1.884  24.868  0.00  0.00    +0.150 HD
ENDBRANCH  17   6
ENDBRANCH  13  17
TORSDOF 5
ENDMDL
MODEL 10
REMARK VINA RESULT:      -1.9      1.589      2.107
REMARK  Name = 75536745
REMARK  5 active torsions:
REMARK  status: ('A' for Active; 'I' for Inactive)
REMARK    1  A    between atoms: O_2  and  C_10
REMARK    2  A    between atoms: N_5  and  C_8
REMARK    3  A    between atoms: N_5  and  C_9
REMARK    4  A    between atoms: N_6  and  C_17
REMARK    5  A    between atoms: C_13  and  C_17
REMARK                            x       y       z     vdW  Elec       q    Type
REMARK                         _______ _______ _______ _____ _____    ______ ____
ROOT
ATOM      1  O   UNL     1      -4.685   3.844  26.315  0.00  0.00    -0.371 OA
ATOM      9  C   UNL     1      -2.741   4.167  24.991  0.00  0.00    +0.111 C 
ATOM     10  C   UNL     1      -3.661   3.186  24.287  0.00  0.00    +0.164 C 
ATOM     13  C   UNL     1      -4.993   3.504  24.953  0.00  0.00    +0.165 C 
ATOM     16  C   UNL     1      -3.277   4.117  26.411  0.00  0.00    +0.181 C 
ENDROOT
BRANCH  10   2
ATOM      2  O   UNL     1      -3.708   3.388  22.888  0.00  0.00    -0.388 OA
ATOM     24  H   UNL     1      -2.811   3.274  22.532  0.00  0.00    +0.210 HD
ENDBRANCH  10   2
BRANCH   9   5
ATOM      5  N   UNL     1      -1.333   3.812  24.903  0.00  0.00    -0.306 NA
ATOM     23  H   UNL     1      -0.876   3.966  25.801  0.00  0.00    +0.123 HD
BRANCH   5   8
ATOM      8  C   UNL     1      -1.167   2.431  24.487  0.00  0.00    +0.054 C 
ATOM     11  C   UNL     1       0.111   2.206  23.688  0.00  0.00    +0.019 C 
ATOM     12  C   UNL     1      -0.991   1.479  25.662  0.00  0.00    +0.019 C 
ATOM     14  C   UNL     1       0.312   0.694  23.750  0.00  0.00    +0.002 C 
ATOM     15  C   UNL     1      -0.398   0.225  25.023  0.00  0.00    +0.002 C 
ENDBRANCH   5   8
ENDBRANCH   9   5
BRANCH  13  17
ATOM     17  C   UNL     1      -5.973   2.346  24.920  0.00  0.00    +0.140 C 
BRANCH  17   6
ATOM      3  O   UNL     1      -3.311  -3.433  24.083  0.00  0.00    -0.377 OA
ATOM      4  O   UNL     1      -4.349   0.727  26.552  0.00  0.00    -0.253 OA
ATOM      6  N   UNL     1      -5.328   1.118  24.513  0.00  0.00    -0.297 N 
ATOM      7  N   UNL     1      -3.974  -0.792  24.839  0.00  0.00    -0.281 N 
ATOM     18  C   UNL     1      -4.539   0.375  25.383  0.00  0.00    +0.302 C 
ATOM     19  C   UNL     1      -3.122  -1.633  25.683  0.00  0.00    +0.137 C 
ATOM     20  C   UNL     1      -4.022  -1.203  23.429  0.00  0.00    +0.137 C 
ATOM     21  C   UNL     1      -3.428  -3.107  25.469  0.00  0.00    +0.179 C 
ATOM     22  C   UNL     1      -4.264  -2.704  23.309  0.00  0.00    +0.179 C 
ATOM     25  H   UNL     1      -5.469   0.840  23.553  0.00  0.00    +0.150 HD
ENDBRANCH  17   6
ENDBRANCH  13  17
TORSDOF 5
ENDMDL
