MODEL 1
REMARK VINA RESULT:       2.2      0.000      0.000
REMARK  Name = 11884021
REMARK  7 active torsions:
REMARK  status: ('A' for Active; 'I' for Inactive)
REMARK    1  A    between atoms: O_4  and  C_13
REMARK    2  A    between atoms: O_4  and  C_17
REMARK    3  A    between atoms: O_7  and  C_27
REMARK    4  A    between atoms: O_7  and  C_28
REMARK    5  A    between atoms: N_8  and  C_12
REMARK    6  A    between atoms: N_9  and  C_20
REMARK    7  A    between atoms: C_16  and  C_18
REMARK                            x       y       z     vdW  Elec       q    Type
REMARK                         _______ _______ _______ _____ _____    ______ ____
ROOT
ATOM      4  O   UNL     1      -2.752   5.234  24.998  0.00  0.00    -0.442 OA
ENDROOT
BRANCH   4  13
ATOM      2  O   UNL     1      -3.349   2.699  25.958  0.00  0.00    -0.368 OA
ATOM      3  O   UNL     1      -6.069   3.896  25.205  0.00  0.00    -0.368 OA
ATOM     10  C   UNL     1      -5.365   2.738  24.710  0.00  0.00    +0.173 C 
ATOM     11  C   UNL     1      -3.892   3.096  24.688  0.00  0.00    +0.192 C 
ATOM     12  C   UNL     1      -5.448   1.612  25.714  0.00  0.00    +0.130 C 
ATOM     13  C   UNL     1      -3.923   4.598  24.539  0.00  0.00    +0.235 C 
ATOM     14  C   UNL     1      -4.344   1.970  26.693  0.00  0.00    +0.185 C 
ATOM     15  C   UNL     1      -5.136   4.975  25.359  0.00  0.00    +0.207 C 
BRANCH  12   8
ATOM      5  O   UNL     1      -3.001   0.209  25.734  0.00  0.00    -0.270 OA
ATOM      8  N   UNL     1      -5.203   0.335  25.089  0.00  0.00    -0.303 N 
ATOM     16  C   UNL     1      -3.960  -0.294  25.145  0.00  0.00    +0.251 C 
ATOM     34  H   UNL     1      -5.990  -0.124  24.642  0.00  0.00    +0.149 HD
BRANCH  16  18
ATOM      1  S   UNL     1      -2.422  -2.506  24.606  0.00  0.00    -0.092 S 
ATOM     18  C   UNL     1      -3.875  -1.607  24.487  0.00  0.00    +0.074 A 
ATOM     19  C   UNL     1      -4.833  -2.266  23.749  0.00  0.00    +0.021 A 
ATOM     21  C   UNL     1      -4.369  -3.526  23.274  0.00  0.00    +0.008 A 
ATOM     22  C   UNL     1      -3.074  -3.782  23.667  0.00  0.00    +0.046 A 
ENDBRANCH  16  18
ENDBRANCH  12   8
ENDBRANCH   4  13
BRANCH   4  17
ATOM      6  O   UNL     1      -0.469   5.107  24.979  0.00  0.00    -0.226 OA
ATOM      9  N   UNL     1      -1.806   3.331  24.247  0.00  0.00    -0.251 N 
ATOM     17  C   UNL     1      -1.557   4.590  24.756  0.00  0.00    +0.405 C 
ATOM     35  H   UNL     1      -2.785   3.077  24.132  0.00  0.00    +0.158 HD
BRANCH   9  20
ATOM     20  C   UNL     1      -0.868   2.345  23.864  0.00  0.00    +0.037 A 
ATOM     23  C   UNL     1       0.468   2.463  24.252  0.00  0.00    +0.027 A 
ATOM     24  C   UNL     1      -1.277   1.253  23.098  0.00  0.00    +0.027 A 
ATOM     25  C   UNL     1       1.392   1.491  23.873  0.00  0.00    +0.048 A 
ATOM     26  C   UNL     1      -0.352   0.280  22.721  0.00  0.00    +0.048 A 
ATOM     27  C   UNL     1       0.982   0.399  23.108  0.00  0.00    +0.129 A 
BRANCH  27   7
ATOM      7  O   UNL     1       1.884  -0.552  22.742  0.00  0.00    -0.456 OA
BRANCH   7  28
ATOM     28  C   UNL     1       3.204  -0.366  23.118  0.00  0.00    +0.128 A 
ATOM     29  C   UNL     1       3.846   0.839  22.834  0.00  0.00    +0.046 A 
ATOM     30  C   UNL     1       3.892  -1.383  23.779  0.00  0.00    +0.046 A 
ATOM     31  C   UNL     1       5.175   1.028  23.211  0.00  0.00    +0.004 A 
ATOM     32  C   UNL     1       5.221  -1.195  24.157  0.00  0.00    +0.004 A 
ATOM     33  C   UNL     1       5.863   0.011  23.873  0.00  0.00    +0.000 A 
ENDBRANCH   7  28
ENDBRANCH  27   7
ENDBRANCH   9  20
ENDBRANCH   4  17
TORSDOF 7
ENDMDL
MODEL 2
REMARK VINA RESULT:       4.9      2.573      4.694
REMARK  Name = 11884021
REMARK  7 active torsions:
REMARK  status: ('A' for Active; 'I' for Inactive)
REMARK    1  A    between atoms: O_4  and  C_13
REMARK    2  A    between atoms: O_4  and  C_17
REMARK    3  A    between atoms: O_7  and  C_27
REMARK    4  A    between atoms: O_7  and  C_28
REMARK    5  A    between atoms: N_8  and  C_12
REMARK    6  A    between atoms: N_9  and  C_20
REMARK    7  A    between atoms: C_16  and  C_18
REMARK                            x       y       z     vdW  Elec       q    Type
REMARK                         _______ _______ _______ _____ _____    ______ ____
ROOT
ATOM      4  O   UNL     1      -5.070   0.841  24.249  0.00  0.00    -0.442 OA
ENDROOT
BRANCH   4  13
ATOM      2  O   UNL     1      -2.661   2.166  24.631  0.00  0.00    -0.368 OA
ATOM      3  O   UNL     1      -4.779   4.092  25.728  0.00  0.00    -0.368 OA
ATOM     10  C   UNL     1      -3.669   3.428  26.367  0.00  0.00    +0.173 C 
ATOM     11  C   UNL     1      -3.563   2.051  25.744  0.00  0.00    +0.192 C 
ATOM     12  C   UNL     1      -2.372   4.100  25.982  0.00  0.00    +0.130 C 
ATOM     13  C   UNL     1      -4.979   1.787  25.290  0.00  0.00    +0.235 C 
ATOM     14  C   UNL     1      -2.074   3.477  24.629  0.00  0.00    +0.185 C 
ATOM     15  C   UNL     1      -5.434   3.162  24.854  0.00  0.00    +0.207 C 
BRANCH  12   8
ATOM      5  O   UNL     1      -0.044   2.590  25.471  0.00  0.00    -0.270 OA
ATOM      8  N   UNL     1      -1.329   3.809  26.935  0.00  0.00    -0.303 N 
ATOM     16  C   UNL     1      -0.206   3.052  26.602  0.00  0.00    +0.251 C 
ATOM     34  H   UNL     1      -1.413   4.221  27.859  0.00  0.00    +0.149 HD
BRANCH  16  18
ATOM      1  S   UNL     1       0.259   2.323  29.209  0.00  0.00    -0.092 S 
ATOM     18  C   UNL     1       0.785   2.868  27.673  0.00  0.00    +0.074 A 
ATOM     19  C   UNL     1       2.146   3.077  27.636  0.00  0.00    +0.021 A 
ATOM     21  C   UNL     1       2.766   2.785  28.884  0.00  0.00    +0.008 A 
ATOM     22  C   UNL     1       1.855   2.365  29.829  0.00  0.00    +0.046 A 
ENDBRANCH  16  18
ENDBRANCH  12   8
ENDBRANCH   4  13
BRANCH   4  17
ATOM      6  O   UNL     1      -4.287  -1.307  24.229  0.00  0.00    -0.226 OA
ATOM      9  N   UNL     1      -2.847   0.528  24.038  0.00  0.00    -0.251 N 
ATOM     17  C   UNL     1      -4.068  -0.103  24.175  0.00  0.00    +0.405 C 
ATOM     35  H   UNL     1      -2.867   1.546  24.013  0.00  0.00    +0.158 HD
BRANCH   9  20
ATOM     20  C   UNL     1      -1.568  -0.063  23.928  0.00  0.00    +0.037 A 
ATOM     23  C   UNL     1      -0.691   0.351  22.925  0.00  0.00    +0.027 A 
ATOM     24  C   UNL     1      -1.182  -1.061  24.824  0.00  0.00    +0.027 A 
ATOM     25  C   UNL     1       0.571  -0.233  22.817  0.00  0.00    +0.048 A 
ATOM     26  C   UNL     1       0.080  -1.644  24.716  0.00  0.00    +0.048 A 
ATOM     27  C   UNL     1       0.956  -1.230  23.714  0.00  0.00    +0.129 A 
BRANCH  27   7
ATOM      7  O   UNL     1       2.189  -1.798  23.610  0.00  0.00    -0.456 OA
BRANCH   7  28
ATOM     28  C   UNL     1       3.281  -0.952  23.509  0.00  0.00    +0.128 A 
ATOM     29  C   UNL     1       4.504  -1.324  24.067  0.00  0.00    +0.046 A 
ATOM     30  C   UNL     1       3.158   0.271  22.850  0.00  0.00    +0.046 A 
ATOM     31  C   UNL     1       5.604  -0.473  23.966  0.00  0.00    +0.004 A 
ATOM     32  C   UNL     1       4.259   1.122  22.750  0.00  0.00    +0.004 A 
ATOM     33  C   UNL     1       5.482   0.751  23.308  0.00  0.00    +0.000 A 
ENDBRANCH   7  28
ENDBRANCH  27   7
ENDBRANCH   9  20
ENDBRANCH   4  17
TORSDOF 7
ENDMDL
