MODEL 1
REMARK VINA RESULT:      -1.6      0.000      0.000
REMARK  Name = 45783566
REMARK  10 active torsions:
REMARK  status: ('A' for Active; 'I' for Inactive)
REMARK    1  A    between atoms: O_2  and  C_21
REMARK    2  A    between atoms: O_2  and  C_22
REMARK    3  A    between atoms: O_3  and  C_23
REMARK    4  A    between atoms: O_3  and  C_24
REMARK    5  A    between atoms: N_4  and  C_12
REMARK    6  A    between atoms: C_8  and  C_13
REMARK    7  A    between atoms: C_12  and  C_14
REMARK    8  A    between atoms: C_12  and  C_15
REMARK    9  A    between atoms: C_16  and  C_17
REMARK   10  A    between atoms: C_22  and  C_23
REMARK                            x       y       z     vdW  Elec       q    Type
REMARK                         _______ _______ _______ _____ _____    ______ ____
ROOT
ATOM      1  O   UNL     1      -2.950  -0.623  24.913  0.00  0.00    -0.336 OA
ATOM      5  N   UNL     1      -1.818   1.305  24.792  0.00  0.00    -0.190 NA
ATOM      6  N   UNL     1      -1.729  -0.927  24.299  0.00  0.00    -0.056 NA
ATOM     13  C   UNL     1      -2.921   0.711  25.171  0.00  0.00    +0.245 A 
ATOM     16  C   UNL     1      -1.117   0.261  24.263  0.00  0.00    +0.204 A 
ENDROOT
BRANCH  16  17
ATOM      7  N   UNL     1       2.210   1.762  23.548  0.00  0.00    -0.221 NA
ATOM     17  C   UNL     1       0.193   0.438  23.706  0.00  0.00    +0.041 A 
ATOM     18  C   UNL     1       0.722  -0.489  22.815  0.00  0.00    +0.018 A 
ATOM     19  C   UNL     1       0.970   1.536  24.037  0.00  0.00    +0.126 A 
ATOM     20  C   UNL     1       1.995  -0.291  22.289  0.00  0.00    +0.068 A 
ATOM     21  C   UNL     1       2.692   0.839  22.684  0.00  0.00    +0.215 A 
BRANCH  21   2
ATOM      2  O   UNL     1       3.947   1.057  22.181  0.00  0.00    -0.474 OA
BRANCH   2  22
ATOM     22  C   UNL     1       4.949   0.109  22.527  0.00  0.00    +0.258 C 
BRANCH  22  23
ATOM     23  C   UNL     1       5.456   0.412  23.923  0.00  0.00    +0.200 C 
BRANCH  23   3
ATOM      3  O   UNL     1       5.459  -0.789  24.686  0.00  0.00    -0.380 OA
ATOM     24  C   UNL     1       4.783  -1.838  24.007  0.00  0.00    +0.194 C 
ENDBRANCH  23   3
ENDBRANCH  22  23
ENDBRANCH   2  22
ENDBRANCH  21   2
ENDBRANCH  16  17
BRANCH  13   8
ATOM      4  N   UNL     1      -4.410   2.730  25.620  0.00  0.00    -0.289 NA
ATOM      8  C   UNL     1      -4.151   1.299  25.847  0.00  0.00    +0.146 C 
ATOM      9  C   UNL     1      -5.481   0.675  25.401  0.00  0.00    +0.030 C 
ATOM     10  C   UNL     1      -5.152   2.853  24.371  0.00  0.00    +0.085 C 
ATOM     11  C   UNL     1      -6.083   1.649  24.389  0.00  0.00    +0.017 C 
BRANCH   4  12
ATOM     12  C   UNL     1      -3.268   3.621  25.710  0.00  0.00    +0.051 C 
ATOM     14  C   UNL     1      -3.369   4.484  26.965  0.00  0.00    +0.024 C 
ATOM     15  C   UNL     1      -3.198   4.485  24.456  0.00  0.00    +0.024 C 
ENDBRANCH   4  12
ENDBRANCH  13   8
TORSDOF 7
ENDMDL
MODEL 2
REMARK VINA RESULT:      -0.9      1.527      2.096
REMARK  Name = 45783566
REMARK  10 active torsions:
REMARK  status: ('A' for Active; 'I' for Inactive)
REMARK    1  A    between atoms: O_2  and  C_21
REMARK    2  A    between atoms: O_2  and  C_22
REMARK    3  A    between atoms: O_3  and  C_23
REMARK    4  A    between atoms: O_3  and  C_24
REMARK    5  A    between atoms: N_4  and  C_12
REMARK    6  A    between atoms: C_8  and  C_13
REMARK    7  A    between atoms: C_12  and  C_14
REMARK    8  A    between atoms: C_12  and  C_15
REMARK    9  A    between atoms: C_16  and  C_17
REMARK   10  A    between atoms: C_22  and  C_23
REMARK                            x       y       z     vdW  Elec       q    Type
REMARK                         _______ _______ _______ _____ _____    ______ ____
ROOT
ATOM      1  O   UNL     1      -1.910   1.435  25.734  0.00  0.00    -0.336 OA
ATOM      5  N   UNL     1      -1.211  -0.275  24.467  0.00  0.00    -0.190 NA
ATOM      6  N   UNL     1      -0.664   1.815  25.220  0.00  0.00    -0.056 NA
ATOM     13  C   UNL     1      -2.157   0.192  25.242  0.00  0.00    +0.245 A 
ATOM     16  C   UNL     1      -0.317   0.755  24.483  0.00  0.00    +0.204 A 
ENDROOT
BRANCH  16  17
ATOM      7  N   UNL     1       3.099   1.632  23.300  0.00  0.00    -0.221 NA
ATOM     17  C   UNL     1       0.916   0.694  23.752  0.00  0.00    +0.041 A 
ATOM     18  C   UNL     1       1.145  -0.308  22.818  0.00  0.00    +0.018 A 
ATOM     19  C   UNL     1       1.916   1.632  23.955  0.00  0.00    +0.126 A 
ATOM     20  C   UNL     1       2.349  -0.343  22.123  0.00  0.00    +0.068 A 
ATOM     21  C   UNL     1       3.285   0.641  22.398  0.00  0.00    +0.215 A 
BRANCH  21   2
ATOM      2  O   UNL     1       4.479   0.630  21.728  0.00  0.00    -0.474 OA
BRANCH   2  22
ATOM     22  C   UNL     1       5.571  -0.015  22.373  0.00  0.00    +0.258 C 
BRANCH  22  23
ATOM     23  C   UNL     1       5.679   0.499  23.796  0.00  0.00    +0.200 C 
BRANCH  23   3
ATOM      3  O   UNL     1       5.449  -0.578  24.696  0.00  0.00    -0.380 OA
ATOM     24  C   UNL     1       4.995  -1.739  24.014  0.00  0.00    +0.194 C 
ENDBRANCH  23   3
ENDBRANCH  22  23
ENDBRANCH   2  22
ENDBRANCH  21   2
ENDBRANCH  16  17
BRANCH  13   8
ATOM      4  N   UNL     1      -4.699   0.111  25.077  0.00  0.00    -0.289 NA
ATOM      8  C   UNL     1      -3.470  -0.454  25.660  0.00  0.00    +0.146 C 
ATOM      9  C   UNL     1      -3.602  -1.933  25.273  0.00  0.00    +0.030 C 
ATOM     10  C   UNL     1      -4.906  -0.524  23.781  0.00  0.00    +0.085 C 
ATOM     11  C   UNL     1      -4.467  -1.963  24.013  0.00  0.00    +0.017 C 
BRANCH   4  12
ATOM     12  C   UNL     1      -4.797   1.558  25.041  0.00  0.00    +0.051 C 
ATOM     14  C   UNL     1      -6.246   1.994  25.244  0.00  0.00    +0.024 C 
ATOM     15  C   UNL     1      -4.253   2.071  23.712  0.00  0.00    +0.024 C 
ENDBRANCH   4  12
ENDBRANCH  13   8
TORSDOF 7
ENDMDL
MODEL 3
REMARK VINA RESULT:      -0.8      1.543      2.401
REMARK  Name = 45783566
REMARK  10 active torsions:
REMARK  status: ('A' for Active; 'I' for Inactive)
REMARK    1  A    between atoms: O_2  and  C_21
REMARK    2  A    between atoms: O_2  and  C_22
REMARK    3  A    between atoms: O_3  and  C_23
REMARK    4  A    between atoms: O_3  and  C_24
REMARK    5  A    between atoms: N_4  and  C_12
REMARK    6  A    between atoms: C_8  and  C_13
REMARK    7  A    between atoms: C_12  and  C_14
REMARK    8  A    between atoms: C_12  and  C_15
REMARK    9  A    between atoms: C_16  and  C_17
REMARK   10  A    between atoms: C_22  and  C_23
REMARK                            x       y       z     vdW  Elec       q    Type
REMARK                         _______ _______ _______ _____ _____    ______ ____
ROOT
ATOM      1  O   UNL     1      -2.518   2.366  25.338  0.00  0.00    -0.336 OA
ATOM      5  N   UNL     1      -2.116   1.154  23.498  0.00  0.00    -0.190 NA
ATOM      6  N   UNL     1      -1.125   2.257  25.240  0.00  0.00    -0.056 NA
ATOM     13  C   UNL     1      -3.024   1.689  24.273  0.00  0.00    +0.245 A 
ATOM     16  C   UNL     1      -0.967   1.528  24.131  0.00  0.00    +0.204 A 
ENDROOT
BRANCH  16  17
ATOM      7  N   UNL     1       2.679   1.667  23.407  0.00  0.00    -0.221 NA
ATOM     17  C   UNL     1       0.325   1.159  23.629  0.00  0.00    +0.041 A 
ATOM     18  C   UNL     1       0.502  -0.013  22.903  0.00  0.00    +0.018 A 
ATOM     19  C   UNL     1       1.436   1.958  23.851  0.00  0.00    +0.126 A 
ATOM     20  C   UNL     1       1.766  -0.347  22.428  0.00  0.00    +0.068 A 
ATOM     21  C   UNL     1       2.812   0.519  22.705  0.00  0.00    +0.215 A 
BRANCH  21   2
ATOM      2  O   UNL     1       4.067   0.214  22.248  0.00  0.00    -0.474 OA
BRANCH   2  22
ATOM     22  C   UNL     1       5.161   0.812  22.932  0.00  0.00    +0.258 C 
BRANCH  22  23
ATOM     23  C   UNL     1       6.065  -0.280  23.471  0.00  0.00    +0.200 C 
BRANCH  23   3
ATOM      3  O   UNL     1       5.386  -0.975  24.510  0.00  0.00    -0.380 OA
ATOM     24  C   UNL     1       4.639  -2.071  24.000  0.00  0.00    +0.194 C 
ENDBRANCH  23   3
ENDBRANCH  22  23
ENDBRANCH   2  22
ENDBRANCH  21   2
ENDBRANCH  16  17
BRANCH  13   8
ATOM      4  N   UNL     1      -5.245   0.614  24.911  0.00  0.00    -0.289 NA
ATOM      8  C   UNL     1      -4.541   1.658  24.148  0.00  0.00    +0.146 C 
ATOM      9  C   UNL     1      -5.246   2.927  24.645  0.00  0.00    +0.030 C 
ATOM     10  C   UNL     1      -5.461   1.122  26.261  0.00  0.00    +0.085 C 
ATOM     11  C   UNL     1      -5.770   2.597  26.042  0.00  0.00    +0.017 C 
BRANCH   4  12
ATOM     12  C   UNL     1      -4.674  -0.719  24.873  0.00  0.00    +0.051 C 
ATOM     14  C   UNL     1      -3.552  -0.842  25.901  0.00  0.00    +0.024 C 
ATOM     15  C   UNL     1      -4.163  -1.012  23.467  0.00  0.00    +0.024 C 
ENDBRANCH   4  12
ENDBRANCH  13   8
TORSDOF 7
ENDMDL
MODEL 4
REMARK VINA RESULT:       1.2      1.564      2.210
REMARK  Name = 45783566
REMARK  10 active torsions:
REMARK  status: ('A' for Active; 'I' for Inactive)
REMARK    1  A    between atoms: O_2  and  C_21
REMARK    2  A    between atoms: O_2  and  C_22
REMARK    3  A    between atoms: O_3  and  C_23
REMARK    4  A    between atoms: O_3  and  C_24
REMARK    5  A    between atoms: N_4  and  C_12
REMARK    6  A    between atoms: C_8  and  C_13
REMARK    7  A    between atoms: C_12  and  C_14
REMARK    8  A    between atoms: C_12  and  C_15
REMARK    9  A    between atoms: C_16  and  C_17
REMARK   10  A    between atoms: C_22  and  C_23
REMARK                            x       y       z     vdW  Elec       q    Type
REMARK                         _______ _______ _______ _____ _____    ______ ____
ROOT
ATOM      1  O   UNL     1      -2.012   3.333  26.697  0.00  0.00    -0.336 OA
ATOM      5  N   UNL     1      -2.389   2.168  24.823  0.00  0.00    -0.190 NA
ATOM      6  N   UNL     1      -0.778   2.787  26.324  0.00  0.00    -0.056 NA
ATOM     13  C   UNL     1      -2.906   2.920  25.761  0.00  0.00    +0.245 A 
ATOM     16  C   UNL     1      -1.082   2.114  25.210  0.00  0.00    +0.204 A 
ENDROOT
BRANCH  16  17
ATOM      7  N   UNL     1       2.075   1.307  23.417  0.00  0.00    -0.221 NA
ATOM     17  C   UNL     1      -0.105   1.377  24.462  0.00  0.00    +0.041 A 
ATOM     18  C   UNL     1      -0.349   0.070  24.057  0.00  0.00    +0.018 A 
ATOM     19  C   UNL     1       1.112   1.945  24.119  0.00  0.00    +0.126 A 
ATOM     20  C   UNL     1       0.617  -0.620  23.332  0.00  0.00    +0.068 A 
ATOM     21  C   UNL     1       1.801   0.037  23.040  0.00  0.00    +0.215 A 
BRANCH  21   2
ATOM      2  O   UNL     1       2.769  -0.620  22.327  0.00  0.00    -0.474 OA
BRANCH   2  22
ATOM     22  C   UNL     1       4.120  -0.343  22.675  0.00  0.00    +0.258 C 
BRANCH  22  23
ATOM     23  C   UNL     1       4.567  -1.322  23.744  0.00  0.00    +0.200 C 
BRANCH  23   3
ATOM      3  O   UNL     1       5.536  -0.692  24.574  0.00  0.00    -0.380 OA
ATOM     24  C   UNL     1       5.780   0.647  24.164  0.00  0.00    +0.194 C 
ENDBRANCH  23   3
ENDBRANCH  22  23
ENDBRANCH   2  22
ENDBRANCH  21   2
ENDBRANCH  16  17
BRANCH  13   8
ATOM      4  N   UNL     1      -5.160   3.499  24.723  0.00  0.00    -0.289 NA
ATOM      8  C   UNL     1      -4.343   3.387  25.943  0.00  0.00    +0.146 C 
ATOM      9  C   UNL     1      -5.209   2.458  26.805  0.00  0.00    +0.030 C 
ATOM     10  C   UNL     1      -5.722   2.183  24.443  0.00  0.00    +0.085 C 
ATOM     11  C   UNL     1      -6.040   1.630  25.825  0.00  0.00    +0.017 C 
BRANCH   4  12
ATOM     12  C   UNL     1      -4.533   4.123  23.573  0.00  0.00    +0.051 C 
ATOM     14  C   UNL     1      -3.901   3.062  22.676  0.00  0.00    +0.024 C 
ATOM     15  C   UNL     1      -3.490   5.129  24.047  0.00  0.00    +0.024 C 
ENDBRANCH   4  12
ENDBRANCH  13   8
TORSDOF 7
ENDMDL
MODEL 5
REMARK VINA RESULT:       2.1      1.506      2.608
REMARK  Name = 45783566
REMARK  10 active torsions:
REMARK  status: ('A' for Active; 'I' for Inactive)
REMARK    1  A    between atoms: O_2  and  C_21
REMARK    2  A    between atoms: O_2  and  C_22
REMARK    3  A    between atoms: O_3  and  C_23
REMARK    4  A    between atoms: O_3  and  C_24
REMARK    5  A    between atoms: N_4  and  C_12
REMARK    6  A    between atoms: C_8  and  C_13
REMARK    7  A    between atoms: C_12  and  C_14
REMARK    8  A    between atoms: C_12  and  C_15
REMARK    9  A    between atoms: C_16  and  C_17
REMARK   10  A    between atoms: C_22  and  C_23
REMARK                            x       y       z     vdW  Elec       q    Type
REMARK                         _______ _______ _______ _____ _____    ______ ____
ROOT
ATOM      1  O   UNL     1      -2.607   2.079  25.501  0.00  0.00    -0.336 OA
ATOM      5  N   UNL     1      -2.014   1.959  23.345  0.00  0.00    -0.190 NA
ATOM      6  N   UNL     1      -1.289   1.605  25.486  0.00  0.00    -0.056 NA
ATOM     13  C   UNL     1      -2.957   2.261  24.200  0.00  0.00    +0.245 A 
ATOM     16  C   UNL     1      -1.011   1.561  24.179  0.00  0.00    +0.204 A 
ENDROOT
BRANCH  16  17
ATOM      7  N   UNL     1       1.560  -0.564  22.534  0.00  0.00    -0.221 NA
ATOM     17  C   UNL     1       0.260   1.125  23.676  0.00  0.00    +0.041 A 
ATOM     18  C   UNL     1       1.396   1.912  23.821  0.00  0.00    +0.018 A 
ATOM     19  C   UNL     1       0.394  -0.094  23.030  0.00  0.00    +0.126 A 
ATOM     20  C   UNL     1       2.615   1.464  23.323  0.00  0.00    +0.068 A 
ATOM     21  C   UNL     1       2.644   0.230  22.693  0.00  0.00    +0.215 A 
BRANCH  21   2
ATOM      2  O   UNL     1       3.832  -0.235  22.195  0.00  0.00    -0.474 OA
BRANCH   2  22
ATOM     22  C   UNL     1       5.019   0.272  22.792  0.00  0.00    +0.258 C 
BRANCH  22  23
ATOM     23  C   UNL     1       5.202  -0.370  24.154  0.00  0.00    +0.200 C 
BRANCH  23   3
ATOM      3  O   UNL     1       6.538  -0.847  24.266  0.00  0.00    -0.380 OA
ATOM     24  C   UNL     1       7.289  -0.572  23.092  0.00  0.00    +0.194 C 
ENDBRANCH  23   3
ENDBRANCH  22  23
ENDBRANCH   2  22
ENDBRANCH  21   2
ENDBRANCH  16  17
BRANCH  13   8
ATOM      4  N   UNL     1      -5.341   2.609  25.032  0.00  0.00    -0.289 NA
ATOM      8  C   UNL     1      -4.365   2.780  23.943  0.00  0.00    +0.146 C 
ATOM      9  C   UNL     1      -4.450   4.292  23.692  0.00  0.00    +0.030 C 
ATOM     10  C   UNL     1      -5.192   3.739  25.941  0.00  0.00    +0.085 C 
ATOM     11  C   UNL     1      -4.909   4.911  25.012  0.00  0.00    +0.017 C 
BRANCH   4  12
ATOM     12  C   UNL     1      -5.355   1.321  25.699  0.00  0.00    +0.051 C 
ATOM     14  C   UNL     1      -5.480   0.197  24.674  0.00  0.00    +0.024 C 
ATOM     15  C   UNL     1      -6.506   1.280  26.699  0.00  0.00    +0.024 C 
ENDBRANCH   4  12
ENDBRANCH  13   8
TORSDOF 7
ENDMDL
