MODEL 1
REMARK VINA RESULT:      -1.1      0.000      0.000
REMARK  Name = 11912401
REMARK  10 active torsions:
REMARK  status: ('A' for Active; 'I' for Inactive)
REMARK    1  A    between atoms: N_7  and  C_20
REMARK    2  A    between atoms: N_7  and  C_21
REMARK    3  A    between atoms: N_8  and  C_22
REMARK    4  A    between atoms: C_10  and  C_16
REMARK    5  A    between atoms: C_11  and  C_15
REMARK    6  A    between atoms: C_15  and  C_17
REMARK    7  A    between atoms: C_16  and  C_18
REMARK    8  A    between atoms: C_20  and  C_23
REMARK    9  A    between atoms: C_23  and  C_28
REMARK   10  A    between atoms: C_26  and  C_30
REMARK                            x       y       z     vdW  Elec       q    Type
REMARK                         _______ _______ _______ _____ _____    ______ ____
ROOT
ATOM      5  O   UNL     1      -0.009  -0.867  25.845  0.00  0.00    -0.252 OA
ATOM      6  N   UNL     1      -1.925  -0.758  24.557  0.00  0.00    -0.285 N 
ATOM      8  N   UNL     1       0.204  -0.704  23.540  0.00  0.00    -0.269 N 
ATOM     10  C   UNL     1      -4.496   0.566  24.446  0.00  0.00    +0.004 C 
ATOM     11  C   UNL     1      -3.550   0.549  23.216  0.00  0.00    +0.010 C 
ATOM     12  C   UNL     1      -3.721   0.406  25.766  0.00  0.00    +0.023 C 
ATOM     13  C   UNL     1      -2.648  -0.695  23.278  0.00  0.00    +0.113 C 
ATOM     14  C   UNL     1      -2.797  -0.812  25.730  0.00  0.00    +0.109 C 
ATOM     19  C   UNL     1      -0.525  -0.792  24.726  0.00  0.00    +0.306 C 
ATOM     31  H   UNL     1      -0.214  -1.063  22.690  0.00  0.00    +0.156 HD
ENDROOT
BRANCH   8  22
ATOM     22  C   UNL     1       1.491  -0.142  23.362  0.00  0.00    +0.035 A 
ATOM     24  C   UNL     1       2.628  -0.894  23.660  0.00  0.00    +0.035 A 
ATOM     25  C   UNL     1       1.624   1.162  22.887  0.00  0.00    +0.023 A 
ATOM     26  C   UNL     1       3.897  -0.341  23.484  0.00  0.00    +0.057 A 
ATOM     27  C   UNL     1       2.892   1.716  22.710  0.00  0.00    +0.002 A 
ATOM     29  C   UNL     1       4.028   0.964  23.009  0.00  0.00    +0.012 A 
BRANCH  26  30
ATOM      1  F   UNL     1       5.664  -0.842  25.017  0.00  0.00    -0.166 F 
ATOM      2  F   UNL     1       4.884  -2.490  23.840  0.00  0.00    -0.166 F 
ATOM      3  F   UNL     1       6.113  -0.966  22.892  0.00  0.00    -0.166 F 
ATOM     30  C   UNL     1       5.111  -1.143  23.804  0.00  0.00    +0.417 C 
ENDBRANCH  26  30
ENDBRANCH   8  22
BRANCH  11  15
ATOM     15  C   UNL     1      -2.702   1.818  23.062  0.00  0.00    +0.002 C 
ATOM     17  C   UNL     1      -2.453   2.135  21.603  0.00  0.00    +0.004 C 
ENDBRANCH  11  15
BRANCH  10  16
ATOM     16  C   UNL     1      -5.395   1.801  24.495  0.00  0.00    +0.100 C 
BRANCH  16  18
ATOM      4  O   UNL     1      -6.031   2.315  26.748  0.00  0.00    -0.276 OA
ATOM      7  N   UNL     1      -4.256   3.518  25.864  0.00  0.00    -0.304 N 
ATOM     18  C   UNL     1      -5.270   2.557  25.807  0.00  0.00    +0.216 C 
ATOM     21  C   UNL     1      -4.009   4.324  27.053  0.00  0.00    +0.132 C 
BRANCH   7  20
ATOM     20  C   UNL     1      -3.367   3.787  24.736  0.00  0.00    +0.122 C 
BRANCH  20  23
ATOM     23  C   UNL     1      -2.058   4.436  25.167  0.00  0.00    +0.137 C 
BRANCH  23  28
ATOM      9  N   UNL     1      -0.254   2.647  25.850  0.00  0.00    -0.197 NA
ATOM     28  C   UNL     1      -1.050   3.435  25.548  0.00  0.00    +0.064 C 
ENDBRANCH  23  28
ENDBRANCH  20  23
ENDBRANCH   7  20
ENDBRANCH  16  18
ENDBRANCH  10  16
TORSDOF 8
ENDMDL
