MODEL 1
REMARK VINA RESULT:      -4.2      0.000      0.000
REMARK  Name = 75536154
REMARK  13 active torsions:
REMARK  status: ('A' for Active; 'I' for Inactive)
REMARK    1  A    between atoms: O_2  and  C_26
REMARK    2  A    between atoms: O_2  and  C_30
REMARK    3  A    between atoms: N_3  and  C_14
REMARK    4  A    between atoms: N_6  and  C_25
REMARK    5  A    between atoms: C_7  and  C_11
REMARK    6  A    between atoms: C_8  and  C_14
REMARK    7  A    between atoms: C_10  and  C_15
REMARK    8  A    between atoms: C_11  and  C_16
REMARK    9  A    between atoms: C_11  and  C_17
REMARK   10  A    between atoms: C_12  and  C_18
REMARK   11  A    between atoms: C_15  and  C_19
REMARK   12  A    between atoms: C_25  and  C_28
REMARK   13  A    between atoms: C_28  and  C_29
REMARK                            x       y       z     vdW  Elec       q    Type
REMARK                         _______ _______ _______ _____ _____    ______ ____
ROOT
ATOM      7  C   UNL     1      -2.610   2.518  23.665  0.00  0.00    +0.000 C 
ATOM      8  C   UNL     1      -1.442   3.013  24.553  0.00  0.00    +0.032 C 
ATOM      9  C   UNL     1      -3.740   3.558  23.634  0.00  0.00    +0.012 C 
ATOM     10  C   UNL     1      -4.291   3.863  25.040  0.00  0.00    +0.022 C 
ATOM     12  C   UNL     1      -3.178   4.101  26.041  0.00  0.00    -0.073 C 
ATOM     13  C   UNL     1      -1.910   3.726  25.800  0.00  0.00    -0.022 C 
ATOM     18  C   UNL     1      -3.551   4.821  27.307  0.00  0.00    +0.039 C 
ENDROOT
BRANCH   7  11
ATOM     11  C   UNL     1      -2.149   2.210  22.238  0.00  0.00    -0.013 C 
ATOM     16  C   UNL     1      -2.051   0.703  22.022  0.00  0.00    +0.007 C 
ATOM     17  C   UNL     1      -3.097   2.841  21.224  0.00  0.00    +0.007 C 
ENDBRANCH   7  11
BRANCH   8  14
ATOM     14  C   UNL     1      -0.515   1.857  24.944  0.00  0.00    +0.113 C 
BRANCH  14   3
ATOM      1  O   UNL     1       1.005  -0.107  23.474  0.00  0.00    -0.253 OA
ATOM      3  N   UNL     1       0.781   2.027  24.366  0.00  0.00    -0.299 N 
ATOM      6  N   UNL     1       2.700   1.456  23.208  0.00  0.00    -0.299 N 
ATOM     20  C   UNL     1       1.458   1.022  23.664  0.00  0.00    +0.300 C 
ATOM     31  H   UNL     1       1.213   2.945  24.407  0.00  0.00    +0.150 HD
ATOM     33  H   UNL     1       2.994   2.404  23.421  0.00  0.00    +0.150 HD
BRANCH   6  25
ATOM     25  C   UNL     1       3.597   0.611  22.456  0.00  0.00    +0.105 C 
BRANCH  25  28
ATOM     28  C   UNL     1       4.944   0.434  23.147  0.00  0.00    +0.015 C 
ATOM     29  C   UNL     1       5.040  -0.871  23.924  0.00  0.00    +0.005 C 
ENDBRANCH  25  28
ENDBRANCH   6  25
ENDBRANCH  14   3
ENDBRANCH   8  14
BRANCH  10  15
ATOM     15  C   UNL     1      -5.231   2.751  25.517  0.00  0.00    +0.082 C 
BRANCH  15  19
ATOM      4  N   UNL     1      -3.481   0.980  25.762  0.00  0.00    -0.342 N 
ATOM      5  N   UNL     1      -5.203   0.469  24.452  0.00  0.00    -0.232 NA
ATOM     19  C   UNL     1      -4.668   1.391  25.221  0.00  0.00    +0.109 A 
ATOM     21  C   UNL     1      -3.233  -0.291  25.312  0.00  0.00    +0.070 A 
ATOM     22  C   UNL     1      -4.322  -0.588  24.496  0.00  0.00    +0.089 A 
ATOM     23  C   UNL     1      -2.184  -1.181  25.541  0.00  0.00    +0.073 A 
ATOM     24  C   UNL     1      -4.383  -1.841  23.864  0.00  0.00    +0.033 A 
ATOM     26  C   UNL     1      -2.260  -2.423  24.904  0.00  0.00    +0.122 A 
ATOM     27  C   UNL     1      -3.340  -2.750  24.080  0.00  0.00    +0.048 A 
ATOM     32  H   UNL     1      -2.890   1.517  26.383  0.00  0.00    +0.167 HD
BRANCH  26   2
ATOM      2  O   UNL     1      -1.261  -3.333  25.092  0.00  0.00    -0.495 OA
ATOM     30  C   UNL     1       0.027  -2.818  25.422  0.00  0.00    +0.277 C 
ENDBRANCH  26   2
ENDBRANCH  15  19
ENDBRANCH  10  15
TORSDOF 8
ENDMDL
MODEL 2
REMARK VINA RESULT:      -3.0      1.887      5.150
REMARK  Name = 75536154
REMARK  13 active torsions:
REMARK  status: ('A' for Active; 'I' for Inactive)
REMARK    1  A    between atoms: O_2  and  C_26
REMARK    2  A    between atoms: O_2  and  C_30
REMARK    3  A    between atoms: N_3  and  C_14
REMARK    4  A    between atoms: N_6  and  C_25
REMARK    5  A    between atoms: C_7  and  C_11
REMARK    6  A    between atoms: C_8  and  C_14
REMARK    7  A    between atoms: C_10  and  C_15
REMARK    8  A    between atoms: C_11  and  C_16
REMARK    9  A    between atoms: C_11  and  C_17
REMARK   10  A    between atoms: C_12  and  C_18
REMARK   11  A    between atoms: C_15  and  C_19
REMARK   12  A    between atoms: C_25  and  C_28
REMARK   13  A    between atoms: C_28  and  C_29
REMARK                            x       y       z     vdW  Elec       q    Type
REMARK                         _______ _______ _______ _____ _____    ______ ____
ROOT
ATOM      7  C   UNL     1      -4.190   3.165  25.343  0.00  0.00    +0.000 C 
ATOM      8  C   UNL     1      -3.864   3.619  23.899  0.00  0.00    +0.032 C 
ATOM      9  C   UNL     1      -3.622   4.163  26.362  0.00  0.00    +0.012 C 
ATOM     10  C   UNL     1      -2.095   4.322  26.234  0.00  0.00    +0.022 C 
ATOM     12  C   UNL     1      -1.667   4.508  24.792  0.00  0.00    -0.073 C 
ATOM     13  C   UNL     1      -2.476   4.201  23.763  0.00  0.00    -0.022 C 
ATOM     18  C   UNL     1      -0.303   5.098  24.562  0.00  0.00    +0.039 C 
ENDROOT
BRANCH   7  11
ATOM     11  C   UNL     1      -5.698   3.003  25.561  0.00  0.00    -0.013 C 
ATOM     16  C   UNL     1      -5.968   2.124  26.778  0.00  0.00    +0.007 C 
ATOM     17  C   UNL     1      -6.362   4.366  25.719  0.00  0.00    +0.007 C 
ENDBRANCH   7  11
BRANCH   8  14
ATOM     14  C   UNL     1      -4.033   2.466  22.903  0.00  0.00    +0.113 C 
BRANCH  14   3
ATOM      1  O   UNL     1      -5.360   0.262  24.210  0.00  0.00    -0.253 OA
ATOM      3  N   UNL     1      -3.429   1.271  23.403  0.00  0.00    -0.299 N 
ATOM      6  N   UNL     1      -3.310  -0.805  24.416  0.00  0.00    -0.299 N 
ATOM     20  C   UNL     1      -4.144   0.242  24.028  0.00  0.00    +0.300 C 
ATOM     31  H   UNL     1      -2.437   1.125  23.240  0.00  0.00    +0.150 HD
ATOM     33  H   UNL     1      -2.314  -0.729  24.232  0.00  0.00    +0.150 HD
BRANCH   6  25
ATOM     25  C   UNL     1      -3.798  -1.989  25.083  0.00  0.00    +0.105 C 
BRANCH  25  28
ATOM     28  C   UNL     1      -3.123  -3.259  24.578  0.00  0.00    +0.015 C 
ATOM     29  C   UNL     1      -1.666  -3.040  24.197  0.00  0.00    +0.005 C 
ENDBRANCH  25  28
ENDBRANCH   6  25
ENDBRANCH  14   3
ENDBRANCH   8  14
BRANCH  10  15
ATOM     15  C   UNL     1      -1.362   3.139  26.876  0.00  0.00    +0.082 C 
BRANCH  15  19
ATOM      4  N   UNL     1       0.567   2.578  25.385  0.00  0.00    -0.342 N 
ATOM      5  N   UNL     1      -1.178   1.205  25.273  0.00  0.00    -0.232 NA
ATOM     19  C   UNL     1      -0.688   2.283  25.842  0.00  0.00    +0.109 A 
ATOM     21  C   UNL     1       0.909   1.627  24.458  0.00  0.00    +0.070 A 
ATOM     22  C   UNL     1      -0.197   0.781  24.406  0.00  0.00    +0.089 A 
ATOM     23  C   UNL     1       2.054   1.438  23.685  0.00  0.00    +0.073 A 
ATOM     24  C   UNL     1      -0.174  -0.322  23.536  0.00  0.00    +0.033 A 
ATOM     26  C   UNL     1       2.059   0.336  22.825  0.00  0.00    +0.122 A 
ATOM     27  C   UNL     1       0.966  -0.530  22.750  0.00  0.00    +0.048 A 
ATOM     32  H   UNL     1       1.141   3.358  25.677  0.00  0.00    +0.167 HD
BRANCH  26   2
ATOM      2  O   UNL     1       3.154   0.102  22.045  0.00  0.00    -0.495 OA
ATOM     30  C   UNL     1       4.426   0.428  22.602  0.00  0.00    +0.277 C 
ENDBRANCH  26   2
ENDBRANCH  15  19
ENDBRANCH  10  15
TORSDOF 8
ENDMDL
MODEL 3
REMARK VINA RESULT:      -2.1      1.926      5.078
REMARK  Name = 75536154
REMARK  13 active torsions:
REMARK  status: ('A' for Active; 'I' for Inactive)
REMARK    1  A    between atoms: O_2  and  C_26
REMARK    2  A    between atoms: O_2  and  C_30
REMARK    3  A    between atoms: N_3  and  C_14
REMARK    4  A    between atoms: N_6  and  C_25
REMARK    5  A    between atoms: C_7  and  C_11
REMARK    6  A    between atoms: C_8  and  C_14
REMARK    7  A    between atoms: C_10  and  C_15
REMARK    8  A    between atoms: C_11  and  C_16
REMARK    9  A    between atoms: C_11  and  C_17
REMARK   10  A    between atoms: C_12  and  C_18
REMARK   11  A    between atoms: C_15  and  C_19
REMARK   12  A    between atoms: C_25  and  C_28
REMARK   13  A    between atoms: C_28  and  C_29
REMARK                            x       y       z     vdW  Elec       q    Type
REMARK                         _______ _______ _______ _____ _____    ______ ____
ROOT
ATOM      7  C   UNL     1      -1.747  -0.626  24.969  0.00  0.00    +0.000 C 
ATOM      8  C   UNL     1      -1.141  -1.812  24.180  0.00  0.00    +0.032 C 
ATOM      9  C   UNL     1      -2.926  -1.101  25.832  0.00  0.00    +0.012 C 
ATOM     10  C   UNL     1      -4.041  -1.748  24.989  0.00  0.00    +0.022 C 
ATOM     12  C   UNL     1      -3.487  -2.745  23.992  0.00  0.00    -0.073 C 
ATOM     13  C   UNL     1      -2.186  -2.766  23.653  0.00  0.00    -0.022 C 
ATOM     18  C   UNL     1      -4.456  -3.746  23.426  0.00  0.00    +0.039 C 
ENDROOT
BRANCH   7  11
ATOM     11  C   UNL     1      -0.703   0.063  25.853  0.00  0.00    -0.013 C 
ATOM     16  C   UNL     1      -0.820   1.580  25.733  0.00  0.00    +0.007 C 
ATOM     17  C   UNL     1      -0.858  -0.378  27.304  0.00  0.00    +0.007 C 
ENDBRANCH   7  11
BRANCH   8  14
ATOM     14  C   UNL     1      -0.270  -1.318  23.020  0.00  0.00    +0.113 C 
BRANCH  14   3
ATOM      1  O   UNL     1       1.924  -0.279  21.459  0.00  0.00    -0.253 OA
ATOM      3  N   UNL     1       0.891  -0.641  23.508  0.00  0.00    -0.299 N 
ATOM      6  N   UNL     1       2.926   0.455  23.419  0.00  0.00    -0.299 N 
ATOM     20  C   UNL     1       1.917  -0.164  22.684  0.00  0.00    +0.300 C 
ATOM     31  H   UNL     1       0.949  -0.434  24.501  0.00  0.00    +0.150 HD
ATOM     33  H   UNL     1       2.838   0.495  24.430  0.00  0.00    +0.150 HD
BRANCH   6  25
ATOM     25  C   UNL     1       4.099   1.033  22.807  0.00  0.00    +0.105 C 
BRANCH  25  28
ATOM     28  C   UNL     1       5.387   0.586  23.489  0.00  0.00    +0.015 C 
ATOM     29  C   UNL     1       5.272  -0.795  24.118  0.00  0.00    +0.005 C 
ENDBRANCH  25  28
ENDBRANCH   6  25
ENDBRANCH  14   3
ENDBRANCH   8  14
BRANCH  10  15
ATOM     15  C   UNL     1      -4.891  -0.683  24.288  0.00  0.00    +0.082 C 
BRANCH  15  19
ATOM      4  N   UNL     1      -3.467   1.350  23.973  0.00  0.00    -0.342 N 
ATOM      5  N   UNL     1      -4.928   1.438  25.645  0.00  0.00    -0.232 NA
ATOM     19  C   UNL     1      -4.454   0.704  24.664  0.00  0.00    +0.109 A 
ATOM     21  C   UNL     1      -3.293   2.583  24.546  0.00  0.00    +0.070 A 
ATOM     22  C   UNL     1      -4.217   2.615  25.588  0.00  0.00    +0.089 A 
ATOM     23  C   UNL     1      -2.434   3.642  24.252  0.00  0.00    +0.073 A 
ATOM     24  C   UNL     1      -4.301   3.762  26.393  0.00  0.00    +0.033 A 
ATOM     26  C   UNL     1      -2.532   4.777  25.064  0.00  0.00    +0.122 A 
ATOM     27  C   UNL     1      -3.448   4.838  26.116  0.00  0.00    +0.048 A 
ATOM     32  H   UNL     1      -2.956   0.985  23.180  0.00  0.00    +0.167 HD
BRANCH  26   2
ATOM      2  O   UNL     1      -1.716   5.843  24.822  0.00  0.00    -0.495 OA
ATOM     30  C   UNL     1      -0.337   5.563  24.593  0.00  0.00    +0.277 C 
ENDBRANCH  26   2
ENDBRANCH  15  19
ENDBRANCH  10  15
TORSDOF 8
ENDMDL
MODEL 4
REMARK VINA RESULT:      -1.5      1.972      4.915
REMARK  Name = 75536154
REMARK  13 active torsions:
REMARK  status: ('A' for Active; 'I' for Inactive)
REMARK    1  A    between atoms: O_2  and  C_26
REMARK    2  A    between atoms: O_2  and  C_30
REMARK    3  A    between atoms: N_3  and  C_14
REMARK    4  A    between atoms: N_6  and  C_25
REMARK    5  A    between atoms: C_7  and  C_11
REMARK    6  A    between atoms: C_8  and  C_14
REMARK    7  A    between atoms: C_10  and  C_15
REMARK    8  A    between atoms: C_11  and  C_16
REMARK    9  A    between atoms: C_11  and  C_17
REMARK   10  A    between atoms: C_12  and  C_18
REMARK   11  A    between atoms: C_15  and  C_19
REMARK   12  A    between atoms: C_25  and  C_28
REMARK   13  A    between atoms: C_28  and  C_29
REMARK                            x       y       z     vdW  Elec       q    Type
REMARK                         _______ _______ _______ _____ _____    ______ ____
ROOT
ATOM      7  C   UNL     1      -1.572   0.688  25.517  0.00  0.00    +0.000 C 
ATOM      8  C   UNL     1      -0.348   0.184  24.713  0.00  0.00    +0.032 C 
ATOM      9  C   UNL     1      -2.199  -0.463  26.318  0.00  0.00    +0.012 C 
ATOM     10  C   UNL     1      -2.653  -1.624  25.412  0.00  0.00    +0.022 C 
ATOM     12  C   UNL     1      -1.587  -2.002  24.405  0.00  0.00    -0.073 C 
ATOM     13  C   UNL     1      -0.557  -1.187  24.115  0.00  0.00    -0.022 C 
ATOM     18  C   UNL     1      -1.707  -3.360  23.770  0.00  0.00    +0.039 C 
ENDROOT
BRANCH   7  11
ATOM     11  C   UNL     1      -1.200   1.834  26.461  0.00  0.00    -0.013 C 
ATOM     16  C   UNL     1       0.287   1.784  26.800  0.00  0.00    +0.007 C 
ATOM     17  C   UNL     1      -1.569   3.177  25.840  0.00  0.00    +0.007 C 
ENDBRANCH   7  11
BRANCH   8  14
ATOM     14  C   UNL     1       0.030   1.172  23.603  0.00  0.00    +0.113 C 
BRANCH  14   3
ATOM      1  O   UNL     1       2.103  -0.267  22.203  0.00  0.00    -0.253 OA
ATOM      3  N   UNL     1       1.433   1.446  23.623  0.00  0.00    -0.299 N 
ATOM      6  N   UNL     1       3.673   1.181  23.110  0.00  0.00    -0.299 N 
ATOM     20  C   UNL     1       2.381   0.698  22.914  0.00  0.00    +0.300 C 
ATOM     31  H   UNL     1       1.759   2.266  24.126  0.00  0.00    +0.150 HD
ATOM     33  H   UNL     1       3.807   1.979  23.723  0.00  0.00    +0.150 HD
BRANCH   6  25
ATOM     25  C   UNL     1       4.834   0.587  22.491  0.00  0.00    +0.105 C 
BRANCH  25  28
ATOM     28  C   UNL     1       5.789  -0.019  23.512  0.00  0.00    +0.015 C 
ATOM     29  C   UNL     1       5.245  -1.291  24.145  0.00  0.00    +0.005 C 
ENDBRANCH  25  28
ENDBRANCH   6  25
ENDBRANCH  14   3
ENDBRANCH   8  14
BRANCH  10  15
ATOM     15  C   UNL     1      -3.976  -1.294  24.715  0.00  0.00    +0.082 C 
BRANCH  15  19
ATOM      4  N   UNL     1      -3.655   1.004  23.780  0.00  0.00    -0.342 N 
ATOM      5  N   UNL     1      -5.014   0.850  25.532  0.00  0.00    -0.232 NA
ATOM     19  C   UNL     1      -4.238   0.185  24.705  0.00  0.00    +0.109 A 
ATOM     21  C   UNL     1      -4.081   2.284  24.025  0.00  0.00    +0.070 A 
ATOM     22  C   UNL     1      -4.929   2.162  25.123  0.00  0.00    +0.089 A 
ATOM     23  C   UNL     1      -3.809   3.501  23.400  0.00  0.00    +0.073 A 
ATOM     24  C   UNL     1      -5.548   3.312  25.641  0.00  0.00    +0.033 A 
ATOM     26  C   UNL     1      -4.433   4.635  23.929  0.00  0.00    +0.122 A 
ATOM     27  C   UNL     1      -5.289   4.544  25.029  0.00  0.00    +0.048 A 
ATOM     32  H   UNL     1      -3.021   0.719  23.045  0.00  0.00    +0.167 HD
BRANCH  26   2
ATOM      2  O   UNL     1      -4.203   5.852  23.357  0.00  0.00    -0.495 OA
ATOM     30  C   UNL     1      -2.925   6.442  23.587  0.00  0.00    +0.277 C 
ENDBRANCH  26   2
ENDBRANCH  15  19
ENDBRANCH  10  15
TORSDOF 8
ENDMDL
MODEL 5
REMARK VINA RESULT:      -1.0      1.339      2.046
REMARK  Name = 75536154
REMARK  13 active torsions:
REMARK  status: ('A' for Active; 'I' for Inactive)
REMARK    1  A    between atoms: O_2  and  C_26
REMARK    2  A    between atoms: O_2  and  C_30
REMARK    3  A    between atoms: N_3  and  C_14
REMARK    4  A    between atoms: N_6  and  C_25
REMARK    5  A    between atoms: C_7  and  C_11
REMARK    6  A    between atoms: C_8  and  C_14
REMARK    7  A    between atoms: C_10  and  C_15
REMARK    8  A    between atoms: C_11  and  C_16
REMARK    9  A    between atoms: C_11  and  C_17
REMARK   10  A    between atoms: C_12  and  C_18
REMARK   11  A    between atoms: C_15  and  C_19
REMARK   12  A    between atoms: C_25  and  C_28
REMARK   13  A    between atoms: C_28  and  C_29
REMARK                            x       y       z     vdW  Elec       q    Type
REMARK                         _______ _______ _______ _____ _____    ______ ____
ROOT
ATOM      7  C   UNL     1      -1.571   3.984  24.604  0.00  0.00    +0.000 C 
ATOM      8  C   UNL     1      -1.674   3.495  26.070  0.00  0.00    +0.032 C 
ATOM      9  C   UNL     1      -2.834   4.762  24.207  0.00  0.00    +0.012 C 
ATOM     10  C   UNL     1      -4.111   3.912  24.350  0.00  0.00    +0.022 C 
ATOM     12  C   UNL     1      -4.155   3.181  25.676  0.00  0.00    -0.073 C 
ATOM     13  C   UNL     1      -3.058   3.016  26.437  0.00  0.00    -0.022 C 
ATOM     18  C   UNL     1      -5.499   2.681  26.129  0.00  0.00    +0.039 C 
ENDROOT
BRANCH   7  11
ATOM     11  C   UNL     1      -0.333   4.857  24.380  0.00  0.00    -0.013 C 
ATOM     16  C   UNL     1       0.092   4.815  22.916  0.00  0.00    +0.007 C 
ATOM     17  C   UNL     1      -0.605   6.291  24.824  0.00  0.00    +0.007 C 
ENDBRANCH   7  11
BRANCH   8  14
ATOM     14  C   UNL     1      -0.657   2.385  26.356  0.00  0.00    +0.113 C 
BRANCH  14   3
ATOM      1  O   UNL     1       0.227   0.261  24.614  0.00  0.00    -0.253 OA
ATOM      3  N   UNL     1       0.423   2.431  25.420  0.00  0.00    -0.299 N 
ATOM      6  N   UNL     1       1.876   1.670  23.790  0.00  0.00    -0.299 N 
ATOM     20  C   UNL     1       0.793   1.353  24.607  0.00  0.00    +0.300 C 
ATOM     31  H   UNL     1       0.912   3.311  25.288  0.00  0.00    +0.150 HD
ATOM     33  H   UNL     1       2.285   2.597  23.860  0.00  0.00    +0.150 HD
BRANCH   6  25
ATOM     25  C   UNL     1       2.453   0.732  22.855  0.00  0.00    +0.105 C 
BRANCH  25  28
ATOM     28  C   UNL     1       3.923   1.022  22.576  0.00  0.00    +0.015 C 
ATOM     29  C   UNL     1       4.862   0.209  23.456  0.00  0.00    +0.005 C 
ENDBRANCH  25  28
ENDBRANCH   6  25
ENDBRANCH  14   3
ENDBRANCH   8  14
BRANCH  10  15
ATOM     15  C   UNL     1      -4.258   2.936  23.179  0.00  0.00    +0.082 C 
BRANCH  15  19
ATOM      4  N   UNL     1      -2.615   1.116  23.679  0.00  0.00    -0.342 N 
ATOM      5  N   UNL     1      -4.760   0.573  23.892  0.00  0.00    -0.232 NA
ATOM     19  C   UNL     1      -3.914   1.532  23.587  0.00  0.00    +0.109 A 
ATOM     21  C   UNL     1      -2.622  -0.198  24.068  0.00  0.00    +0.070 A 
ATOM     22  C   UNL     1      -3.973  -0.515  24.195  0.00  0.00    +0.089 A 
ATOM     23  C   UNL     1      -1.596  -1.110  24.314  0.00  0.00    +0.073 A 
ATOM     24  C   UNL     1      -4.338  -1.812  24.589  0.00  0.00    +0.033 A 
ATOM     26  C   UNL     1      -1.978  -2.398  24.705  0.00  0.00    +0.122 A 
ATOM     27  C   UNL     1      -3.324  -2.745  24.841  0.00  0.00    +0.048 A 
ATOM     32  H   UNL     1      -1.794   1.677  23.492  0.00  0.00    +0.167 HD
BRANCH  26   2
ATOM      2  O   UNL     1      -1.016  -3.331  24.959  0.00  0.00    -0.495 OA
ATOM     30  C   UNL     1       0.208  -2.862  25.521  0.00  0.00    +0.277 C 
ENDBRANCH  26   2
ENDBRANCH  15  19
ENDBRANCH  10  15
TORSDOF 8
ENDMDL
