MODEL 1
REMARK VINA RESULT:       4.1      0.000      0.000
REMARK  Name = 40780142
REMARK  8 active torsions:
REMARK  status: ('A' for Active; 'I' for Inactive)
REMARK    1  A    between atoms: O_2  and  C_31
REMARK    2  A    between atoms: O_2  and  C_32
REMARK    3  A    between atoms: N_4  and  C_24
REMARK    4  A    between atoms: N_5  and  C_16
REMARK    5  A    between atoms: N_7  and  C_26
REMARK    6  A    between atoms: C_9  and  C_15
REMARK    7  A    between atoms: C_10  and  C_16
REMARK    8  A    between atoms: C_18  and  C_19
REMARK                            x       y       z     vdW  Elec       q    Type
REMARK                         _______ _______ _______ _____ _____    ______ ____
ROOT
ATOM      3  N   UNL     1      -4.689   2.023  23.822  0.00  0.00    -0.297 NA
ATOM      8  C   UNL     1      -4.285   2.988  26.208  0.00  0.00    +0.002 C 
ATOM      9  C   UNL     1      -3.132   3.400  25.252  0.00  0.00    +0.055 C 
ATOM     10  C   UNL     1      -4.839   0.948  24.838  0.00  0.00    +0.074 C 
ATOM     11  C   UNL     1      -4.403   1.449  26.232  0.00  0.00    +0.024 C 
ATOM     12  C   UNL     1      -3.336   2.627  23.918  0.00  0.00    +0.094 C 
ATOM     13  C   UNL     1      -5.591   3.533  25.592  0.00  0.00    +0.019 C 
ATOM     14  C   UNL     1      -5.688   3.076  24.126  0.00  0.00    +0.085 C 
ENDROOT
BRANCH   9  15
ATOM      4  N   UNL     1      -0.674   4.037  25.256  0.00  0.00    -0.271 N 
ATOM      6  N   UNL     1       0.509   3.800  25.847  0.00  0.00    -0.176 NA
ATOM     15  C   UNL     1      -1.703   3.298  25.765  0.00  0.00    +0.044 A 
ATOM     17  C   UNL     1      -1.152   2.522  26.756  0.00  0.00    +0.048 A 
ATOM     19  C   UNL     1       0.211   2.874  26.762  0.00  0.00    +0.066 A 
ATOM     24  C   UNL     1      -0.748   5.006  24.187  0.00  0.00    +0.172 C 
BRANCH  19  18
ATOM     18  C   UNL     1       1.299   2.327  27.660  0.00  0.00    +0.040 C 
ATOM     20  C   UNL     1       2.378   3.375  27.984  0.00  0.00    +0.010 C 
ATOM     21  C   UNL     1       0.801   1.805  29.023  0.00  0.00    +0.010 C 
ATOM     22  C   UNL     1       2.791   3.074  29.416  0.00  0.00    +0.001 C 
ATOM     23  C   UNL     1       1.482   2.675  30.073  0.00  0.00    +0.001 C 
ENDBRANCH  19  18
ENDBRANCH   9  15
BRANCH  10  16
ATOM     16  C   UNL     1      -4.109  -0.336  24.439  0.00  0.00    +0.124 C 
BRANCH  16   5
ATOM      1  O   UNL     1      -1.313  -0.332  25.064  0.00  0.00    -0.253 OA
ATOM      5  N   UNL     1      -3.032  -0.052  23.541  0.00  0.00    -0.298 N 
ATOM      7  N   UNL     1      -0.855   0.247  22.836  0.00  0.00    -0.269 N 
ATOM     25  C   UNL     1      -1.678  -0.069  23.921  0.00  0.00    +0.304 C 
ATOM     33  H   UNL     1      -3.260   0.221  22.591  0.00  0.00    +0.150 HD
ATOM     34  H   UNL     1      -1.319   0.441  21.953  0.00  0.00    +0.156 HD
BRANCH   7  26
ATOM     26  C   UNL     1       0.557   0.333  22.814  0.00  0.00    +0.035 A 
ATOM     27  C   UNL     1       1.214   1.232  23.654  0.00  0.00    +0.027 A 
ATOM     28  C   UNL     1       1.292  -0.479  21.951  0.00  0.00    +0.027 A 
ATOM     29  C   UNL     1       2.605   1.318  23.632  0.00  0.00    +0.047 A 
ATOM     30  C   UNL     1       2.684  -0.393  21.928  0.00  0.00    +0.047 A 
ATOM     31  C   UNL     1       3.341   0.506  22.769  0.00  0.00    +0.120 A 
BRANCH  31   2
ATOM      2  O   UNL     1       4.699   0.589  22.747  0.00  0.00    -0.495 OA
ATOM     32  C   UNL     1       5.403  -0.001  23.839  0.00  0.00    +0.277 C 
ENDBRANCH  31   2
ENDBRANCH   7  26
ENDBRANCH  16   5
ENDBRANCH  10  16
TORSDOF 6
ENDMDL
MODEL 2
REMARK VINA RESULT:       4.8     16.235     18.773
REMARK  Name = 40780142
REMARK  8 active torsions:
REMARK  status: ('A' for Active; 'I' for Inactive)
REMARK    1  A    between atoms: O_2  and  C_31
REMARK    2  A    between atoms: O_2  and  C_32
REMARK    3  A    between atoms: N_4  and  C_24
REMARK    4  A    between atoms: N_5  and  C_16
REMARK    5  A    between atoms: N_7  and  C_26
REMARK    6  A    between atoms: C_9  and  C_15
REMARK    7  A    between atoms: C_10  and  C_16
REMARK    8  A    between atoms: C_18  and  C_19
REMARK                            x       y       z     vdW  Elec       q    Type
REMARK                         _______ _______ _______ _____ _____    ______ ____
ROOT
ATOM      3  N   UNL     1      -8.329  -6.315   8.993  0.00  0.00    -0.297 NA
ATOM      8  C   UNL     1     -10.208  -8.113   9.146  0.00  0.00    +0.002 C 
ATOM      9  C   UNL     1      -9.761  -7.670  10.567  0.00  0.00    +0.055 C 
ATOM     10  C   UNL     1      -7.991  -7.479   8.132  0.00  0.00    +0.074 C 
ATOM     11  C   UNL     1      -8.983  -8.638   8.367  0.00  0.00    +0.024 C 
ATOM     12  C   UNL     1      -8.513  -6.758  10.397  0.00  0.00    +0.094 C 
ATOM     13  C   UNL     1     -10.698  -6.844   8.417  0.00  0.00    +0.019 C 
ATOM     14  C   UNL     1      -9.615  -5.755   8.513  0.00  0.00    +0.085 C 
ENDROOT
BRANCH   9  15
ATOM      4  N   UNL     1      -9.017  -9.971  11.340  0.00  0.00    -0.271 N 
ATOM      6  N   UNL     1      -8.916 -10.777  12.410  0.00  0.00    -0.176 NA
ATOM     15  C   UNL     1      -9.551  -8.747  11.622  0.00  0.00    +0.044 A 
ATOM     17  C   UNL     1      -9.819  -8.755  12.969  0.00  0.00    +0.048 A 
ATOM     19  C   UNL     1      -9.406 -10.030  13.402  0.00  0.00    +0.066 A 
ATOM     24  C   UNL     1      -8.574 -10.448  10.051  0.00  0.00    +0.172 C 
BRANCH  19  18
ATOM     18  C   UNL     1      -9.468 -10.589  14.806  0.00  0.00    +0.040 C 
ATOM     20  C   UNL     1      -8.263 -10.163  15.664  0.00  0.00    +0.010 C 
ATOM     21  C   UNL     1     -10.719 -10.174  15.607  0.00  0.00    +0.010 C 
ATOM     22  C   UNL     1      -8.830  -9.985  17.064  0.00  0.00    +0.001 C 
ATOM     23  C   UNL     1     -10.201  -9.386  16.804  0.00  0.00    +0.001 C 
ENDBRANCH  19  18
ENDBRANCH   9  15
BRANCH  10  16
ATOM     16  C   UNL     1      -6.538  -7.928   8.304  0.00  0.00    +0.124 C 
BRANCH  16   5
ATOM      1  O   UNL     1      -4.955  -7.750  10.685  0.00  0.00    -0.253 OA
ATOM      5  N   UNL     1      -6.428  -8.915   9.335  0.00  0.00    -0.298 N 
ATOM      7  N   UNL     1      -5.719  -9.880  11.306  0.00  0.00    -0.269 N 
ATOM     25  C   UNL     1      -5.627  -8.757  10.479  0.00  0.00    +0.304 C 
ATOM     33  H   UNL     1      -6.919  -9.795   9.210  0.00  0.00    +0.150 HD
ATOM     34  H   UNL     1      -6.324 -10.633  10.988  0.00  0.00    +0.156 HD
BRANCH   7  26
ATOM     26  C   UNL     1      -5.067 -10.104  12.542  0.00  0.00    +0.035 A 
ATOM     27  C   UNL     1      -3.730 -10.500  12.563  0.00  0.00    +0.027 A 
ATOM     28  C   UNL     1      -5.762  -9.931  13.739  0.00  0.00    +0.027 A 
ATOM     29  C   UNL     1      -3.087 -10.721  13.781  0.00  0.00    +0.047 A 
ATOM     30  C   UNL     1      -5.119 -10.152  14.957  0.00  0.00    +0.047 A 
ATOM     31  C   UNL     1      -3.782 -10.548  14.978  0.00  0.00    +0.120 A 
BRANCH  31   2
ATOM      2  O   UNL     1      -3.155 -10.763  16.167  0.00  0.00    -0.495 OA
ATOM     32  C   UNL     1      -1.728 -10.743  16.162  0.00  0.00    +0.277 C 
ENDBRANCH  31   2
ENDBRANCH   7  26
ENDBRANCH  16   5
ENDBRANCH  10  16
TORSDOF 6
ENDMDL
MODEL 3
REMARK VINA RESULT:       6.9      2.386      4.758
REMARK  Name = 40780142
REMARK  8 active torsions:
REMARK  status: ('A' for Active; 'I' for Inactive)
REMARK    1  A    between atoms: O_2  and  C_31
REMARK    2  A    between atoms: O_2  and  C_32
REMARK    3  A    between atoms: N_4  and  C_24
REMARK    4  A    between atoms: N_5  and  C_16
REMARK    5  A    between atoms: N_7  and  C_26
REMARK    6  A    between atoms: C_9  and  C_15
REMARK    7  A    between atoms: C_10  and  C_16
REMARK    8  A    between atoms: C_18  and  C_19
REMARK                            x       y       z     vdW  Elec       q    Type
REMARK                         _______ _______ _______ _____ _____    ______ ____
ROOT
ATOM      3  N   UNL     1      -3.906   4.720  26.439  0.00  0.00    -0.297 NA
ATOM      8  C   UNL     1      -4.980   3.666  24.313  0.00  0.00    +0.002 C 
ATOM      9  C   UNL     1      -4.728   2.576  25.392  0.00  0.00    +0.055 C 
ATOM     10  C   UNL     1      -3.160   5.148  25.226  0.00  0.00    +0.074 C 
ATOM     11  C   UNL     1      -3.649   4.374  23.983  0.00  0.00    +0.024 C 
ATOM     12  C   UNL     1      -3.908   3.238  26.537  0.00  0.00    +0.094 C 
ATOM     13  C   UNL     1      -5.909   4.719  24.952  0.00  0.00    +0.019 C 
ATOM     14  C   UNL     1      -5.308   5.176  26.293  0.00  0.00    +0.085 C 
ENDROOT
BRANCH   9  15
ATOM      4  N   UNL     1      -3.433   1.099  23.784  0.00  0.00    -0.271 N 
ATOM      6  N   UNL     1      -2.989  -0.151  23.575  0.00  0.00    -0.176 NA
ATOM     15  C   UNL     1      -4.130   1.249  24.947  0.00  0.00    +0.044 A 
ATOM     17  C   UNL     1      -4.144   0.009  25.539  0.00  0.00    +0.048 A 
ATOM     19  C   UNL     1      -3.425  -0.813  24.650  0.00  0.00    +0.066 A 
ATOM     24  C   UNL     1      -3.147   2.123  22.806  0.00  0.00    +0.172 C 
BRANCH  19  18
ATOM     18  C   UNL     1      -3.125  -2.287  24.799  0.00  0.00    +0.040 C 
ATOM     20  C   UNL     1      -3.846  -3.146  23.744  0.00  0.00    +0.010 C 
ATOM     21  C   UNL     1      -1.630  -2.651  24.681  0.00  0.00    +0.010 C 
ATOM     22  C   UNL     1      -2.870  -4.267  23.425  0.00  0.00    +0.001 C 
ATOM     23  C   UNL     1      -1.521  -3.570  23.471  0.00  0.00    +0.001 C 
ENDBRANCH  19  18
ENDBRANCH   9  15
BRANCH  10  16
ATOM     16  C   UNL     1      -1.644   5.039  25.406  0.00  0.00    +0.124 C 
BRANCH  16   5
ATOM      1  O   UNL     1       0.333   3.020  25.873  0.00  0.00    -0.253 OA
ATOM      5  N   UNL     1      -1.077   4.155  24.434  0.00  0.00    -0.298 N 
ATOM      7  N   UNL     1       0.258   2.473  23.592  0.00  0.00    -0.269 N 
ATOM     25  C   UNL     1      -0.106   3.185  24.738  0.00  0.00    +0.304 C 
ATOM     33  H   UNL     1      -1.358   4.266  23.464  0.00  0.00    +0.150 HD
ATOM     34  H   UNL     1      -0.203   2.736  22.725  0.00  0.00    +0.156 HD
BRANCH   7  26
ATOM     26  C   UNL     1       1.199   1.422  23.486  0.00  0.00    +0.035 A 
ATOM     27  C   UNL     1       2.539   1.709  23.224  0.00  0.00    +0.027 A 
ATOM     28  C   UNL     1       0.788   0.098  23.641  0.00  0.00    +0.027 A 
ATOM     29  C   UNL     1       3.467   0.674  23.119  0.00  0.00    +0.047 A 
ATOM     30  C   UNL     1       1.716  -0.938  23.535  0.00  0.00    +0.047 A 
ATOM     31  C   UNL     1       3.055  -0.649  23.274  0.00  0.00    +0.120 A 
BRANCH  31   2
ATOM      2  O   UNL     1       3.961  -1.661  23.171  0.00  0.00    -0.495 OA
ATOM     32  C   UNL     1       5.186  -1.510  23.887  0.00  0.00    +0.277 C 
ENDBRANCH  31   2
ENDBRANCH   7  26
ENDBRANCH  16   5
ENDBRANCH  10  16
TORSDOF 6
ENDMDL
MODEL 4
REMARK VINA RESULT:       7.6      2.653      4.099
REMARK  Name = 40780142
REMARK  8 active torsions:
REMARK  status: ('A' for Active; 'I' for Inactive)
REMARK    1  A    between atoms: O_2  and  C_31
REMARK    2  A    between atoms: O_2  and  C_32
REMARK    3  A    between atoms: N_4  and  C_24
REMARK    4  A    between atoms: N_5  and  C_16
REMARK    5  A    between atoms: N_7  and  C_26
REMARK    6  A    between atoms: C_9  and  C_15
REMARK    7  A    between atoms: C_10  and  C_16
REMARK    8  A    between atoms: C_18  and  C_19
REMARK                            x       y       z     vdW  Elec       q    Type
REMARK                         _______ _______ _______ _____ _____    ______ ____
ROOT
ATOM      3  N   UNL     1      -3.039  -2.294  23.520  0.00  0.00    -0.297 NA
ATOM      8  C   UNL     1      -4.943  -1.069  24.810  0.00  0.00    +0.002 C 
ATOM      9  C   UNL     1      -4.167  -0.071  23.905  0.00  0.00    +0.055 C 
ATOM     10  C   UNL     1      -2.970  -2.628  24.967  0.00  0.00    +0.074 C 
ATOM     11  C   UNL     1      -3.953  -1.754  25.776  0.00  0.00    +0.024 C 
ATOM     12  C   UNL     1      -2.935  -0.825  23.331  0.00  0.00    +0.094 C 
ATOM     13  C   UNL     1      -5.504  -2.166  23.882  0.00  0.00    +0.019 C 
ATOM     14  C   UNL     1      -4.364  -2.732  23.017  0.00  0.00    +0.085 C 
ENDROOT
BRANCH   9  15
ATOM      4  N   UNL     1      -4.719   2.176  24.951  0.00  0.00    -0.271 N 
ATOM      6  N   UNL     1      -4.185   3.315  25.424  0.00  0.00    -0.176 NA
ATOM     15  C   UNL     1      -3.795   1.285  24.487  0.00  0.00    +0.044 A 
ATOM     17  C   UNL     1      -2.572   1.884  24.670  0.00  0.00    +0.048 A 
ATOM     19  C   UNL     1      -2.874   3.131  25.250  0.00  0.00    +0.066 A 
ATOM     24  C   UNL     1      -6.153   2.006  24.973  0.00  0.00    +0.172 C 
BRANCH  19  18
ATOM     18  C   UNL     1      -1.902   4.212  25.668  0.00  0.00    +0.040 C 
ATOM     20  C   UNL     1      -0.517   4.044  25.017  0.00  0.00    +0.010 C 
ATOM     21  C   UNL     1      -2.353   5.646  25.324  0.00  0.00    +0.010 C 
ATOM     22  C   UNL     1      -0.033   5.463  24.765  0.00  0.00    +0.001 C 
ATOM     23  C   UNL     1      -1.303   6.191  24.362  0.00  0.00    +0.001 C 
ENDBRANCH  19  18
ENDBRANCH   9  15
BRANCH  10  16
ATOM     16  C   UNL     1      -1.544  -2.539  25.517  0.00  0.00    +0.124 C 
BRANCH  16   5
ATOM      1  O   UNL     1       1.317  -2.481  25.404  0.00  0.00    -0.253 OA
ATOM      5  N   UNL     1      -0.738  -1.679  24.707  0.00  0.00    -0.298 N 
ATOM      7  N   UNL     1       1.182  -0.757  23.818  0.00  0.00    -0.269 N 
ATOM     25  C   UNL     1       0.668  -1.707  24.705  0.00  0.00    +0.304 C 
ATOM     33  H   UNL     1      -1.205  -0.980  24.139  0.00  0.00    +0.150 HD
ATOM     34  H   UNL     1       0.504  -0.192  23.313  0.00  0.00    +0.156 HD
BRANCH   7  26
ATOM     26  C   UNL     1       2.539  -0.478  23.534  0.00  0.00    +0.035 A 
ATOM     27  C   UNL     1       3.528  -1.395  23.888  0.00  0.00    +0.027 A 
ATOM     28  C   UNL     1       2.889   0.714  22.901  0.00  0.00    +0.027 A 
ATOM     29  C   UNL     1       4.866  -1.121  23.609  0.00  0.00    +0.047 A 
ATOM     30  C   UNL     1       4.228   0.990  22.622  0.00  0.00    +0.047 A 
ATOM     31  C   UNL     1       5.216   0.071  22.976  0.00  0.00    +0.120 A 
BRANCH  31   2
ATOM      2  O   UNL     1       6.523   0.340  22.703  0.00  0.00    -0.495 OA
ATOM     32  C   UNL     1       7.470  -0.690  22.982  0.00  0.00    +0.277 C 
ENDBRANCH  31   2
ENDBRANCH   7  26
ENDBRANCH  16   5
ENDBRANCH  10  16
TORSDOF 6
ENDMDL
MODEL 5
REMARK VINA RESULT:       7.8      3.074      5.890
REMARK  Name = 40780142
REMARK  8 active torsions:
REMARK  status: ('A' for Active; 'I' for Inactive)
REMARK    1  A    between atoms: O_2  and  C_31
REMARK    2  A    between atoms: O_2  and  C_32
REMARK    3  A    between atoms: N_4  and  C_24
REMARK    4  A    between atoms: N_5  and  C_16
REMARK    5  A    between atoms: N_7  and  C_26
REMARK    6  A    between atoms: C_9  and  C_15
REMARK    7  A    between atoms: C_10  and  C_16
REMARK    8  A    between atoms: C_18  and  C_19
REMARK                            x       y       z     vdW  Elec       q    Type
REMARK                         _______ _______ _______ _____ _____    ______ ____
ROOT
ATOM      3  N   UNL     1      -1.620  -3.080  23.753  0.00  0.00    -0.297 NA
ATOM      8  C   UNL     1      -4.047  -2.387  24.398  0.00  0.00    +0.002 C 
ATOM      9  C   UNL     1      -3.392  -1.303  23.497  0.00  0.00    +0.055 C 
ATOM     10  C   UNL     1      -1.812  -3.208  25.222  0.00  0.00    +0.074 C 
ATOM     11  C   UNL     1      -3.169  -2.607  25.649  0.00  0.00    +0.024 C 
ATOM     12  C   UNL     1      -1.895  -1.685  23.324  0.00  0.00    +0.094 C 
ATOM     13  C   UNL     1      -4.030  -3.704  23.594  0.00  0.00    +0.019 C 
ATOM     14  C   UNL     1      -2.601  -3.970  23.089  0.00  0.00    +0.085 C 
ENDROOT
BRANCH   9  15
ATOM      4  N   UNL     1      -3.112   1.192  23.123  0.00  0.00    -0.271 N 
ATOM      6  N   UNL     1      -3.374   2.405  23.639  0.00  0.00    -0.176 NA
ATOM     15  C   UNL     1      -3.574   0.158  23.884  0.00  0.00    +0.044 A 
ATOM     17  C   UNL     1      -4.179   0.735  24.974  0.00  0.00    +0.048 A 
ATOM     19  C   UNL     1      -4.026   2.120  24.769  0.00  0.00    +0.066 A 
ATOM     24  C   UNL     1      -2.399   1.097  21.871  0.00  0.00    +0.172 C 
BRANCH  19  18
ATOM     18  C   UNL     1      -4.507   3.241  25.663  0.00  0.00    +0.040 C 
ATOM     20  C   UNL     1      -4.732   4.554  24.893  0.00  0.00    +0.010 C 
ATOM     21  C   UNL     1      -5.835   2.953  26.393  0.00  0.00    +0.010 C 
ATOM     22  C   UNL     1      -5.935   5.196  25.566  0.00  0.00    +0.001 C 
ATOM     23  C   UNL     1      -6.818   4.005  25.895  0.00  0.00    +0.001 C 
ENDBRANCH  19  18
ENDBRANCH   9  15
BRANCH  10  16
ATOM     16  C   UNL     1      -0.649  -2.608  26.015  0.00  0.00    +0.124 C 
BRANCH  16   5
ATOM      1  O   UNL     1      -1.648   0.042  26.447  0.00  0.00    -0.253 OA
ATOM      5  N   UNL     1      -0.177  -1.405  25.400  0.00  0.00    -0.298 N 
ATOM      7  N   UNL     1      -0.060   0.848  24.918  0.00  0.00    -0.269 N 
ATOM     25  C   UNL     1      -0.720  -0.135  25.662  0.00  0.00    +0.304 C 
ATOM     33  H   UNL     1       0.557  -1.480  24.703  0.00  0.00    +0.150 HD
ATOM     34  H   UNL     1       0.692   0.533  24.311  0.00  0.00    +0.156 HD
BRANCH   7  26
ATOM     26  C   UNL     1      -0.311   2.240  24.904  0.00  0.00    +0.035 A 
ATOM     27  C   UNL     1       0.036   2.999  23.787  0.00  0.00    +0.027 A 
ATOM     28  C   UNL     1      -0.903   2.854  26.007  0.00  0.00    +0.027 A 
ATOM     29  C   UNL     1      -0.211   4.372  23.772  0.00  0.00    +0.047 A 
ATOM     30  C   UNL     1      -1.149   4.227  25.994  0.00  0.00    +0.047 A 
ATOM     31  C   UNL     1      -0.802   4.986  24.876  0.00  0.00    +0.120 A 
BRANCH  31   2
ATOM      2  O   UNL     1      -1.044   6.326  24.862  0.00  0.00    -0.495 OA
ATOM     32  C   UNL     1      -2.317   6.751  24.380  0.00  0.00    +0.277 C 
ENDBRANCH  31   2
ENDBRANCH   7  26
ENDBRANCH  16   5
ENDBRANCH  10  16
TORSDOF 6
ENDMDL
MODEL 6
REMARK VINA RESULT:       7.9      2.926      4.832
REMARK  Name = 40780142
REMARK  8 active torsions:
REMARK  status: ('A' for Active; 'I' for Inactive)
REMARK    1  A    between atoms: O_2  and  C_31
REMARK    2  A    between atoms: O_2  and  C_32
REMARK    3  A    between atoms: N_4  and  C_24
REMARK    4  A    between atoms: N_5  and  C_16
REMARK    5  A    between atoms: N_7  and  C_26
REMARK    6  A    between atoms: C_9  and  C_15
REMARK    7  A    between atoms: C_10  and  C_16
REMARK    8  A    between atoms: C_18  and  C_19
REMARK                            x       y       z     vdW  Elec       q    Type
REMARK                         _______ _______ _______ _____ _____    ______ ____
ROOT
ATOM      3  N   UNL     1      -2.670  -1.914  23.585  0.00  0.00    -0.297 NA
ATOM      8  C   UNL     1      -3.161  -1.060  25.997  0.00  0.00    +0.002 C 
ATOM      9  C   UNL     1      -3.951  -0.224  24.952  0.00  0.00    +0.055 C 
ATOM     10  C   UNL     1      -1.394  -1.693  24.316  0.00  0.00    +0.074 C 
ATOM     11  C   UNL     1      -1.654  -0.994  25.668  0.00  0.00    +0.024 C 
ATOM     12  C   UNL     1      -3.455  -0.655  23.542  0.00  0.00    +0.094 C 
ATOM     13  C   UNL     1      -3.600  -2.528  25.816  0.00  0.00    +0.019 C 
ATOM     14  C   UNL     1      -3.454  -2.923  24.336  0.00  0.00    +0.085 C 
ENDROOT
BRANCH   9  15
ATOM      4  N   UNL     1      -5.137   2.000  25.254  0.00  0.00    -0.271 N 
ATOM      6  N   UNL     1      -4.948   3.323  25.387  0.00  0.00    -0.176 NA
ATOM     15  C   UNL     1      -3.981   1.289  25.116  0.00  0.00    +0.044 A 
ATOM     17  C   UNL     1      -2.965   2.212  25.161  0.00  0.00    +0.048 A 
ATOM     19  C   UNL     1      -3.619   3.447  25.329  0.00  0.00    +0.066 A 
ATOM     24  C   UNL     1      -6.483   1.475  25.267  0.00  0.00    +0.172 C 
BRANCH  19  18
ATOM     18  C   UNL     1      -2.986   4.816  25.444  0.00  0.00    +0.040 C 
ATOM     20  C   UNL     1      -1.461   4.747  25.636  0.00  0.00    +0.010 C 
ATOM     21  C   UNL     1      -3.211   5.730  24.221  0.00  0.00    +0.010 C 
ATOM     22  C   UNL     1      -0.920   5.948  24.877  0.00  0.00    +0.001 C 
ATOM     23  C   UNL     1      -1.824   6.018  23.659  0.00  0.00    +0.001 C 
ENDBRANCH  19  18
ENDBRANCH   9  15
BRANCH  10  16
ATOM     16  C   UNL     1      -0.363  -0.940  23.473  0.00  0.00    +0.124 C 
BRANCH  16   5
ATOM      1  O   UNL     1       2.082  -0.039  22.283  0.00  0.00    -0.253 OA
ATOM      5  N   UNL     1       0.961  -1.167  23.964  0.00  0.00    -0.298 N 
ATOM      7  N   UNL     1       3.266  -1.067  24.030  0.00  0.00    -0.269 N 
ATOM     25  C   UNL     1       2.120  -0.692  23.323  0.00  0.00    +0.304 C 
ATOM     33  H   UNL     1       1.073  -1.741  24.794  0.00  0.00    +0.150 HD
ATOM     34  H   UNL     1       3.122  -1.610  24.877  0.00  0.00    +0.156 HD
BRANCH   7  26
ATOM     26  C   UNL     1       4.614  -0.783  23.711  0.00  0.00    +0.035 A 
ATOM     27  C   UNL     1       5.092   0.524  23.804  0.00  0.00    +0.027 A 
ATOM     28  C   UNL     1       5.465  -1.809  23.301  0.00  0.00    +0.027 A 
ATOM     29  C   UNL     1       6.421   0.804  23.489  0.00  0.00    +0.047 A 
ATOM     30  C   UNL     1       6.795  -1.529  22.986  0.00  0.00    +0.047 A 
ATOM     31  C   UNL     1       7.272  -0.222  23.079  0.00  0.00    +0.120 A 
BRANCH  31   2
ATOM      2  O   UNL     1       8.570   0.051  22.772  0.00  0.00    -0.495 OA
ATOM     32  C   UNL     1       9.500   0.087  23.853  0.00  0.00    +0.277 C 
ENDBRANCH  31   2
ENDBRANCH   7  26
ENDBRANCH  16   5
ENDBRANCH  10  16
TORSDOF 6
ENDMDL
