MODEL 1
REMARK VINA RESULT:       2.1      0.000      0.000
REMARK  Name = 51136662
REMARK  9 active torsions:
REMARK  status: ('A' for Active; 'I' for Inactive)
REMARK    1  A    between atoms: O_2  and  C_17
REMARK    2  A    between atoms: O_4  and  C_26
REMARK    3  A    between atoms: O_4  and  C_32
REMARK    4  A    between atoms: C_7  and  C_12
REMARK    5  A    between atoms: C_8  and  C_13
REMARK    6  A    between atoms: C_12  and  C_14
REMARK    7  A    between atoms: C_13  and  C_17
REMARK    8  A    between atoms: C_15  and  C_18
REMARK    9  A    between atoms: C_18  and  C_23
REMARK                            x       y       z     vdW  Elec       q    Type
REMARK                         _______ _______ _______ _____ _____    ______ ____
ROOT
ATOM      1  O   UNL     1      -6.176   4.019  25.194  0.00  0.00    -0.275 OA
ATOM      5  N   UNL     1      -5.233   1.970  25.749  0.00  0.00    -0.301 N 
ATOM      7  C   UNL     1      -3.588   0.148  25.364  0.00  0.00    +0.016 C 
ATOM      8  C   UNL     1      -4.730  -0.702  24.750  0.00  0.00    +0.006 C 
ATOM      9  C   UNL     1      -5.842   0.184  24.163  0.00  0.00    +0.023 C 
ATOM     10  C   UNL     1      -4.172   1.163  26.364  0.00  0.00    +0.112 C 
ATOM     11  C   UNL     1      -6.342   1.198  25.187  0.00  0.00    +0.108 C 
ATOM     15  C   UNL     1      -5.259   3.364  25.695  0.00  0.00    +0.220 C 
ENDROOT
BRANCH   7  12
ATOM     12  C   UNL     1      -2.717   0.864  24.325  0.00  0.00    +0.061 C 
BRANCH  12  14
ATOM      6  N   UNL     1      -1.347   1.736  26.094  0.00  0.00    -0.287 NA
ATOM     14  C   UNL     1      -1.370   1.190  24.923  0.00  0.00    +0.044 C 
ATOM     16  C   UNL     1      -0.146   0.879  24.141  0.00  0.00    -0.001 A 
ATOM     19  C   UNL     1       1.033   1.527  24.528  0.00  0.00    -0.033 A 
ATOM     20  C   UNL     1       0.982   2.489  25.679  0.00  0.00    +0.059 C 
ATOM     21  C   UNL     1      -0.037   1.997  26.700  0.00  0.00    +0.146 C 
ATOM     22  C   UNL     1      -0.146  -0.003  23.058  0.00  0.00    +0.013 A 
ATOM     24  C   UNL     1       2.210   1.307  23.809  0.00  0.00    +0.050 A 
ATOM     25  C   UNL     1       1.038  -0.228  22.355  0.00  0.00    +0.046 A 
ATOM     26  C   UNL     1       2.212   0.427  22.727  0.00  0.00    +0.120 A 
BRANCH  26   4
ATOM      4  O   UNL     1       3.362   0.208  22.030  0.00  0.00    -0.495 OA
ATOM     32  C   UNL     1       4.591   0.417  22.723  0.00  0.00    +0.277 C 
ENDBRANCH  26   4
ENDBRANCH  12  14
ENDBRANCH   7  12
BRANCH   8  13
ATOM     13  C   UNL     1      -4.237  -1.708  23.711  0.00  0.00    +0.124 C 
BRANCH  13  17
ATOM      3  O   UNL     1      -1.995  -2.651  23.874  0.00  0.00    -0.251 OA
ATOM     17  C   UNL     1      -3.152  -2.592  24.263  0.00  0.00    +0.305 C 
BRANCH  17   2
ATOM      2  O   UNL     1      -3.645  -3.339  25.284  0.00  0.00    -0.481 OA
ATOM     33  H   UNL     1      -3.133  -4.167  25.412  0.00  0.00    +0.295 HD
ENDBRANCH  17   2
ENDBRANCH  13  17
ENDBRANCH   8  13
BRANCH  15  18
ATOM     18  C   UNL     1      -4.078   4.085  26.292  0.00  0.00    +0.131 C 
BRANCH  18  23
ATOM     23  C   UNL     1      -2.988   4.241  25.279  0.00  0.00    -0.039 A 
ATOM     27  C   UNL     1      -1.817   4.921  25.613  0.00  0.00    +0.004 A 
ATOM     28  C   UNL     1      -3.144   3.707  24.000  0.00  0.00    +0.004 A 
ATOM     29  C   UNL     1      -0.800   5.066  24.668  0.00  0.00    +0.000 A 
ATOM     30  C   UNL     1      -2.128   3.852  23.054  0.00  0.00    +0.000 A 
ATOM     31  C   UNL     1      -0.956   4.531  23.389  0.00  0.00    +0.000 A 
ENDBRANCH  18  23
ENDBRANCH  15  18
TORSDOF 8
ENDMDL
MODEL 2
REMARK VINA RESULT:       2.2      2.021      4.615
REMARK  Name = 51136662
REMARK  9 active torsions:
REMARK  status: ('A' for Active; 'I' for Inactive)
REMARK    1  A    between atoms: O_2  and  C_17
REMARK    2  A    between atoms: O_4  and  C_26
REMARK    3  A    between atoms: O_4  and  C_32
REMARK    4  A    between atoms: C_7  and  C_12
REMARK    5  A    between atoms: C_8  and  C_13
REMARK    6  A    between atoms: C_12  and  C_14
REMARK    7  A    between atoms: C_13  and  C_17
REMARK    8  A    between atoms: C_15  and  C_18
REMARK    9  A    between atoms: C_18  and  C_23
REMARK                            x       y       z     vdW  Elec       q    Type
REMARK                         _______ _______ _______ _____ _____    ______ ____
ROOT
ATOM      1  O   UNL     1      -6.134   1.980  25.517  0.00  0.00    -0.275 OA
ATOM      5  N   UNL     1      -4.195   2.697  24.457  0.00  0.00    -0.301 N 
ATOM      7  C   UNL     1      -1.737   2.604  24.104  0.00  0.00    +0.016 C 
ATOM      8  C   UNL     1      -1.608   3.915  24.920  0.00  0.00    +0.006 C 
ATOM      9  C   UNL     1      -2.768   4.077  25.918  0.00  0.00    +0.023 C 
ATOM     10  C   UNL     1      -3.133   2.526  23.457  0.00  0.00    +0.112 C 
ATOM     11  C   UNL     1      -4.119   3.941  25.223  0.00  0.00    +0.108 C 
ATOM     15  C   UNL     1      -5.238   1.800  24.688  0.00  0.00    +0.220 C 
ENDROOT
BRANCH   7  12
ATOM     12  C   UNL     1      -1.455   1.334  24.915  0.00  0.00    +0.061 C 
BRANCH  12  14
ATOM      6  N   UNL     1      -1.488  -0.737  23.699  0.00  0.00    -0.287 NA
ATOM     14  C   UNL     1      -0.794   0.300  24.036  0.00  0.00    +0.044 C 
ATOM     16  C   UNL     1       0.613   0.516  23.612  0.00  0.00    -0.001 A 
ATOM     19  C   UNL     1       1.310  -0.605  23.142  0.00  0.00    -0.033 A 
ATOM     20  C   UNL     1       0.608  -1.930  23.113  0.00  0.00    +0.059 C 
ATOM     21  C   UNL     1      -0.866  -1.711  22.796  0.00  0.00    +0.146 C 
ATOM     22  C   UNL     1       1.240   1.761  23.680  0.00  0.00    +0.013 A 
ATOM     24  C   UNL     1       2.649  -0.476  22.764  0.00  0.00    +0.050 A 
ATOM     25  C   UNL     1       2.572   1.883  23.286  0.00  0.00    +0.046 A 
ATOM     26  C   UNL     1       3.276   0.767  22.832  0.00  0.00    +0.120 A 
BRANCH  26   4
ATOM      4  O   UNL     1       4.580   0.893  22.457  0.00  0.00    -0.495 OA
ATOM     32  C   UNL     1       5.544   0.152  23.201  0.00  0.00    +0.277 C 
ENDBRANCH  26   4
ENDBRANCH  12  14
ENDBRANCH   7  12
BRANCH   8  13
ATOM     13  C   UNL     1      -0.262   4.049  25.631  0.00  0.00    +0.124 C 
BRANCH  13  17
ATOM      3  O   UNL     1      -0.960   2.816  27.615  0.00  0.00    -0.251 OA
ATOM     17  C   UNL     1      -0.126   3.058  26.755  0.00  0.00    +0.305 C 
BRANCH  17   2
ATOM      2  O   UNL     1       1.086   2.450  26.686  0.00  0.00    -0.481 OA
ATOM     33  H   UNL     1       1.104   1.745  26.003  0.00  0.00    +0.295 HD
ENDBRANCH  17   2
ENDBRANCH  13  17
ENDBRANCH   8  13
BRANCH  15  18
ATOM     18  C   UNL     1      -5.244   0.541  23.860  0.00  0.00    +0.131 C 
BRANCH  18  23
ATOM     23  C   UNL     1      -4.517  -0.559  24.568  0.00  0.00    -0.039 A 
ATOM     27  C   UNL     1      -3.993  -0.343  25.842  0.00  0.00    +0.004 A 
ATOM     28  C   UNL     1      -4.362  -1.801  23.951  0.00  0.00    +0.004 A 
ATOM     29  C   UNL     1      -3.316  -1.369  26.502  0.00  0.00    +0.000 A 
ATOM     30  C   UNL     1      -3.684  -2.827  24.610  0.00  0.00    +0.000 A 
ATOM     31  C   UNL     1      -3.162  -2.611  25.886  0.00  0.00    +0.000 A 
ENDBRANCH  18  23
ENDBRANCH  15  18
TORSDOF 8
ENDMDL
MODEL 3
REMARK VINA RESULT:       2.5      2.138      4.376
REMARK  Name = 51136662
REMARK  9 active torsions:
REMARK  status: ('A' for Active; 'I' for Inactive)
REMARK    1  A    between atoms: O_2  and  C_17
REMARK    2  A    between atoms: O_4  and  C_26
REMARK    3  A    between atoms: O_4  and  C_32
REMARK    4  A    between atoms: C_7  and  C_12
REMARK    5  A    between atoms: C_8  and  C_13
REMARK    6  A    between atoms: C_12  and  C_14
REMARK    7  A    between atoms: C_13  and  C_17
REMARK    8  A    between atoms: C_15  and  C_18
REMARK    9  A    between atoms: C_18  and  C_23
REMARK                            x       y       z     vdW  Elec       q    Type
REMARK                         _______ _______ _______ _____ _____    ______ ____
ROOT
ATOM      1  O   UNL     1      -0.150   5.074  25.012  0.00  0.00    -0.275 OA
ATOM      5  N   UNL     1      -1.979   3.960  25.912  0.00  0.00    -0.301 N 
ATOM      7  C   UNL     1      -3.859   2.345  25.728  0.00  0.00    +0.016 C 
ATOM      8  C   UNL     1      -4.829   3.547  25.604  0.00  0.00    +0.006 C 
ATOM      9  C   UNL     1      -4.125   4.786  25.025  0.00  0.00    +0.023 C 
ATOM     10  C   UNL     1      -2.599   2.769  26.507  0.00  0.00    +0.112 C 
ATOM     11  C   UNL     1      -2.861   5.123  25.810  0.00  0.00    +0.108 C 
ATOM     15  C   UNL     1      -0.654   4.053  25.485  0.00  0.00    +0.220 C 
ENDROOT
BRANCH   7  12
ATOM     12  C   UNL     1      -3.469   1.718  24.385  0.00  0.00    +0.061 C 
BRANCH  12  14
ATOM      6  N   UNL     1      -3.511  -0.525  25.240  0.00  0.00    -0.287 NA
ATOM     14  C   UNL     1      -2.824   0.372  24.614  0.00  0.00    +0.044 C 
ATOM     16  C   UNL     1      -1.441   0.149  24.123  0.00  0.00    -0.001 A 
ATOM     19  C   UNL     1      -0.742  -0.933  24.674  0.00  0.00    -0.033 A 
ATOM     20  C   UNL     1      -1.418  -1.771  25.718  0.00  0.00    +0.059 C 
ATOM     21  C   UNL     1      -2.909  -1.852  25.410  0.00  0.00    +0.146 C 
ATOM     22  C   UNL     1      -0.836   0.969  23.168  0.00  0.00    +0.013 A 
ATOM     24  C   UNL     1       0.577  -1.174  24.282  0.00  0.00    +0.050 A 
ATOM     25  C   UNL     1       0.476   0.712  22.772  0.00  0.00    +0.046 A 
ATOM     26  C   UNL     1       1.182  -0.355  23.329  0.00  0.00    +0.120 A 
BRANCH  26   4
ATOM      4  O   UNL     1       2.467  -0.594  22.943  0.00  0.00    -0.495 OA
ATOM     32  C   UNL     1       3.299   0.541  22.717  0.00  0.00    +0.277 C 
ENDBRANCH  26   4
ENDBRANCH  12  14
ENDBRANCH   7  12
BRANCH   8  13
ATOM     13  C   UNL     1      -6.090   3.220  24.805  0.00  0.00    +0.124 C 
BRANCH  13  17
ATOM      3  O   UNL     1      -6.783   0.934  24.319  0.00  0.00    -0.251 OA
ATOM     17  C   UNL     1      -6.605   1.842  25.118  0.00  0.00    +0.305 C 
BRANCH  17   2
ATOM      2  O   UNL     1      -6.856   1.738  26.448  0.00  0.00    -0.481 OA
ATOM     33  H   UNL     1      -7.578   2.337  26.733  0.00  0.00    +0.295 HD
ENDBRANCH  17   2
ENDBRANCH  13  17
ENDBRANCH   8  13
BRANCH  15  18
ATOM     18  C   UNL     1       0.188   2.810  25.621  0.00  0.00    +0.131 C 
BRANCH  18  23
ATOM     23  C   UNL     1       0.792   2.729  26.988  0.00  0.00    -0.039 A 
ATOM     27  C   UNL     1       0.093   2.111  28.024  0.00  0.00    +0.004 A 
ATOM     28  C   UNL     1       2.056   3.271  27.225  0.00  0.00    +0.004 A 
ATOM     29  C   UNL     1       0.656   2.035  29.299  0.00  0.00    +0.000 A 
ATOM     30  C   UNL     1       2.620   3.195  28.499  0.00  0.00    +0.000 A 
ATOM     31  C   UNL     1       1.920   2.576  29.535  0.00  0.00    +0.000 A 
ENDBRANCH  18  23
ENDBRANCH  15  18
TORSDOF 8
ENDMDL
MODEL 4
REMARK VINA RESULT:       2.6      1.676      5.923
REMARK  Name = 51136662
REMARK  9 active torsions:
REMARK  status: ('A' for Active; 'I' for Inactive)
REMARK    1  A    between atoms: O_2  and  C_17
REMARK    2  A    between atoms: O_4  and  C_26
REMARK    3  A    between atoms: O_4  and  C_32
REMARK    4  A    between atoms: C_7  and  C_12
REMARK    5  A    between atoms: C_8  and  C_13
REMARK    6  A    between atoms: C_12  and  C_14
REMARK    7  A    between atoms: C_13  and  C_17
REMARK    8  A    between atoms: C_15  and  C_18
REMARK    9  A    between atoms: C_18  and  C_23
REMARK                            x       y       z     vdW  Elec       q    Type
REMARK                         _______ _______ _______ _____ _____    ______ ____
ROOT
ATOM      1  O   UNL     1      -3.708  -2.746  24.466  0.00  0.00    -0.275 OA
ATOM      5  N   UNL     1      -1.522  -1.997  24.706  0.00  0.00    -0.301 N 
ATOM      7  C   UNL     1       0.253  -0.293  24.355  0.00  0.00    +0.016 C 
ATOM      8  C   UNL     1       0.830  -1.183  23.225  0.00  0.00    +0.006 C 
ATOM      9  C   UNL     1      -0.255  -2.071  22.594  0.00  0.00    +0.023 C 
ATOM     10  C   UNL     1      -0.509  -1.167  25.370  0.00  0.00    +0.112 C 
ATOM     11  C   UNL     1      -1.003  -2.872  23.655  0.00  0.00    +0.108 C 
ATOM     15  C   UNL     1      -2.881  -2.020  25.023  0.00  0.00    +0.220 C 
ENDROOT
BRANCH   7  12
ATOM     12  C   UNL     1      -0.643   0.847  23.855  0.00  0.00    +0.061 C 
BRANCH  12  14
ATOM      6  N   UNL     1       0.151   1.956  25.831  0.00  0.00    -0.287 NA
ATOM     14  C   UNL     1      -0.765   1.909  24.921  0.00  0.00    +0.044 C 
ATOM     16  C   UNL     1      -1.926   2.834  24.879  0.00  0.00    -0.001 A 
ATOM     19  C   UNL     1      -2.221   3.531  26.057  0.00  0.00    -0.033 A 
ATOM     20  C   UNL     1      -1.371   3.289  27.269  0.00  0.00    +0.059 C 
ATOM     21  C   UNL     1       0.065   3.026  26.831  0.00  0.00    +0.146 C 
ATOM     22  C   UNL     1      -2.711   3.010  23.737  0.00  0.00    +0.013 A 
ATOM     24  C   UNL     1      -3.324   4.387  26.095  0.00  0.00    +0.050 A 
ATOM     25  C   UNL     1      -3.801   3.879  23.780  0.00  0.00    +0.046 A 
ATOM     26  C   UNL     1      -4.109   4.564  24.956  0.00  0.00    +0.120 A 
BRANCH  26   4
ATOM      4  O   UNL     1      -5.181   5.404  24.991  0.00  0.00    -0.495 OA
ATOM     32  C   UNL     1      -6.303   4.993  25.769  0.00  0.00    +0.277 C 
ENDBRANCH  26   4
ENDBRANCH  12  14
ENDBRANCH   7  12
BRANCH   8  13
ATOM     13  C   UNL     1       1.567  -0.385  22.151  0.00  0.00    +0.124 C 
BRANCH  13  17
ATOM      3  O   UNL     1       3.930  -0.351  22.748  0.00  0.00    -0.251 OA
ATOM     17  C   UNL     1       2.846   0.208  22.677  0.00  0.00    +0.305 C 
BRANCH  17   2
ATOM      2  O   UNL     1       2.628   1.487  23.077  0.00  0.00    -0.481 OA
ATOM     33  H   UNL     1       1.833   1.873  22.651  0.00  0.00    +0.295 HD
ENDBRANCH  17   2
ENDBRANCH  13  17
ENDBRANCH   8  13
BRANCH  15  18
ATOM     18  C   UNL     1      -3.337  -1.086  26.115  0.00  0.00    +0.131 C 
BRANCH  18  23
ATOM     23  C   UNL     1      -4.333  -0.103  25.586  0.00  0.00    -0.039 A 
ATOM     27  C   UNL     1      -5.082   0.675  26.469  0.00  0.00    +0.004 A 
ATOM     28  C   UNL     1      -4.513   0.036  24.209  0.00  0.00    +0.004 A 
ATOM     29  C   UNL     1      -6.010   1.593  25.976  0.00  0.00    +0.000 A 
ATOM     30  C   UNL     1      -5.441   0.953  23.716  0.00  0.00    +0.000 A 
ATOM     31  C   UNL     1      -6.189   1.731  24.599  0.00  0.00    +0.000 A 
ENDBRANCH  18  23
ENDBRANCH  15  18
TORSDOF 8
ENDMDL
MODEL 5
REMARK VINA RESULT:       3.5      2.039      4.696
REMARK  Name = 51136662
REMARK  9 active torsions:
REMARK  status: ('A' for Active; 'I' for Inactive)
REMARK    1  A    between atoms: O_2  and  C_17
REMARK    2  A    between atoms: O_4  and  C_26
REMARK    3  A    between atoms: O_4  and  C_32
REMARK    4  A    between atoms: C_7  and  C_12
REMARK    5  A    between atoms: C_8  and  C_13
REMARK    6  A    between atoms: C_12  and  C_14
REMARK    7  A    between atoms: C_13  and  C_17
REMARK    8  A    between atoms: C_15  and  C_18
REMARK    9  A    between atoms: C_18  and  C_23
REMARK                            x       y       z     vdW  Elec       q    Type
REMARK                         _______ _______ _______ _____ _____    ______ ____
ROOT
ATOM      1  O   UNL     1      -6.112   1.025  26.385  0.00  0.00    -0.275 OA
ATOM      5  N   UNL     1      -5.045   2.644  25.105  0.00  0.00    -0.301 N 
ATOM      7  C   UNL     1      -2.991   3.691  24.178  0.00  0.00    +0.016 C 
ATOM      8  C   UNL     1      -3.137   4.819  25.230  0.00  0.00    +0.006 C 
ATOM      9  C   UNL     1      -3.893   4.335  26.479  0.00  0.00    +0.023 C 
ATOM     10  C   UNL     1      -4.371   3.077  23.874  0.00  0.00    +0.112 C 
ATOM     11  C   UNL     1      -5.226   3.695  26.106  0.00  0.00    +0.108 C 
ATOM     15  C   UNL     1      -5.525   1.358  25.352  0.00  0.00    +0.220 C 
ENDROOT
BRANCH   7  12
ATOM     12  C   UNL     1      -1.996   2.593  24.575  0.00  0.00    +0.061 C 
BRANCH  12  14
ATOM      6  N   UNL     1      -2.490   1.598  22.446  0.00  0.00    -0.287 NA
ATOM     14  C   UNL     1      -1.594   1.799  23.355  0.00  0.00    +0.044 C 
ATOM     16  C   UNL     1      -0.205   1.284  23.263  0.00  0.00    -0.001 A 
ATOM     19  C   UNL     1       0.027   0.252  22.345  0.00  0.00    -0.033 A 
ATOM     20  C   UNL     1      -1.128  -0.268  21.539  0.00  0.00    +0.059 C 
ATOM     21  C   UNL     1      -2.084   0.879  21.234  0.00  0.00    +0.146 C 
ATOM     22  C   UNL     1       0.837   1.776  24.051  0.00  0.00    +0.013 A 
ATOM     24  C   UNL     1       1.304  -0.303  22.238  0.00  0.00    +0.050 A 
ATOM     25  C   UNL     1       2.113   1.225  23.927  0.00  0.00    +0.046 A 
ATOM     26  C   UNL     1       2.346   0.187  23.025  0.00  0.00    +0.120 A 
BRANCH  26   4
ATOM      4  O   UNL     1       3.593  -0.351  22.915  0.00  0.00    -0.495 OA
ATOM     32  C   UNL     1       4.697   0.519  23.152  0.00  0.00    +0.277 C 
ENDBRANCH  26   4
ENDBRANCH  12  14
ENDBRANCH   7  12
BRANCH   8  13
ATOM     13  C   UNL     1      -1.802   5.453  25.619  0.00  0.00    +0.124 C 
BRANCH  13  17
ATOM      3  O   UNL     1      -0.299   5.084  23.736  0.00  0.00    -0.251 OA
ATOM     17  C   UNL     1      -0.652   4.828  24.877  0.00  0.00    +0.305 C 
BRANCH  17   2
ATOM      2  O   UNL     1      -0.040   3.911  25.669  0.00  0.00    -0.481 OA
ATOM     33  H   UNL     1       0.837   3.649  25.316  0.00  0.00    +0.295 HD
ENDBRANCH  17   2
ENDBRANCH  13  17
ENDBRANCH   8  13
BRANCH  15  18
ATOM     18  C   UNL     1      -5.296   0.331  24.273  0.00  0.00    +0.131 C 
BRANCH  18  23
ATOM     23  C   UNL     1      -4.130  -0.543  24.615  0.00  0.00    -0.039 A 
ATOM     27  C   UNL     1      -3.221  -0.144  25.595  0.00  0.00    +0.004 A 
ATOM     28  C   UNL     1      -3.952  -1.758  23.952  0.00  0.00    +0.004 A 
ATOM     29  C   UNL     1      -2.135  -0.959  25.914  0.00  0.00    +0.000 A 
ATOM     30  C   UNL     1      -2.866  -2.573  24.270  0.00  0.00    +0.000 A 
ATOM     31  C   UNL     1      -1.958  -2.174  25.251  0.00  0.00    +0.000 A 
ENDBRANCH  18  23
ENDBRANCH  15  18
TORSDOF 8
ENDMDL
MODEL 6
REMARK VINA RESULT:       3.7      1.754      4.506
REMARK  Name = 51136662
REMARK  9 active torsions:
REMARK  status: ('A' for Active; 'I' for Inactive)
REMARK    1  A    between atoms: O_2  and  C_17
REMARK    2  A    between atoms: O_4  and  C_26
REMARK    3  A    between atoms: O_4  and  C_32
REMARK    4  A    between atoms: C_7  and  C_12
REMARK    5  A    between atoms: C_8  and  C_13
REMARK    6  A    between atoms: C_12  and  C_14
REMARK    7  A    between atoms: C_13  and  C_17
REMARK    8  A    between atoms: C_15  and  C_18
REMARK    9  A    between atoms: C_18  and  C_23
REMARK                            x       y       z     vdW  Elec       q    Type
REMARK                         _______ _______ _______ _____ _____    ______ ____
ROOT
ATOM      1  O   UNL     1      -7.193   1.341  25.986  0.00  0.00    -0.275 OA
ATOM      5  N   UNL     1      -5.485   2.346  24.774  0.00  0.00    -0.301 N 
ATOM      7  C   UNL     1      -3.080   2.640  24.222  0.00  0.00    +0.016 C 
ATOM      8  C   UNL     1      -3.096   3.963  25.029  0.00  0.00    +0.006 C 
ATOM      9  C   UNL     1      -4.182   3.949  26.118  0.00  0.00    +0.023 C 
ATOM     10  C   UNL     1      -4.494   2.335  23.691  0.00  0.00    +0.112 C 
ATOM     11  C   UNL     1      -5.547   3.594  25.535  0.00  0.00    +0.108 C 
ATOM     15  C   UNL     1      -6.350   1.297  25.086  0.00  0.00    +0.220 C 
ENDROOT
BRANCH   7  12
ATOM     12  C   UNL     1      -2.535   1.439  25.004  0.00  0.00    +0.061 C 
BRANCH  12  14
ATOM      6  N   UNL     1      -0.777   2.282  26.406  0.00  0.00    -0.287 NA
ATOM     14  C   UNL     1      -1.074   1.652  25.318  0.00  0.00    +0.044 C 
ATOM     16  C   UNL     1      -0.056   1.139  24.366  0.00  0.00    -0.001 A 
ATOM     19  C   UNL     1       1.234   1.673  24.472  0.00  0.00    -0.033 A 
ATOM     20  C   UNL     1       1.496   2.723  25.512  0.00  0.00    +0.059 C 
ATOM     21  C   UNL     1       0.643   2.435  26.742  0.00  0.00    +0.146 C 
ATOM     22  C   UNL     1      -0.346   0.180  23.393  0.00  0.00    +0.013 A 
ATOM     24  C   UNL     1       2.228   1.261  23.581  0.00  0.00    +0.050 A 
ATOM     25  C   UNL     1       0.656  -0.236  22.517  0.00  0.00    +0.046 A 
ATOM     26  C   UNL     1       1.939   0.304  22.608  0.00  0.00    +0.120 A 
BRANCH  26   4
ATOM      4  O   UNL     1       2.910  -0.102  21.743  0.00  0.00    -0.495 OA
ATOM     32  C   UNL     1       4.218   0.432  21.939  0.00  0.00    +0.277 C 
ENDBRANCH  26   4
ENDBRANCH  12  14
ENDBRANCH   7  12
BRANCH   8  13
ATOM     13  C   UNL     1      -1.736   4.317  25.629  0.00  0.00    +0.124 C 
BRANCH  13  17
ATOM      3  O   UNL     1      -0.049   5.125  24.066  0.00  0.00    -0.251 OA
ATOM     17  C   UNL     1      -1.007   5.334  24.795  0.00  0.00    +0.305 C 
BRANCH  17   2
ATOM      2  O   UNL     1      -1.574   6.556  24.964  0.00  0.00    -0.481 OA
ATOM     33  H   UNL     1      -2.554   6.509  24.967  0.00  0.00    +0.295 HD
ENDBRANCH  17   2
ENDBRANCH  13  17
ENDBRANCH   8  13
BRANCH  15  18
ATOM     18  C   UNL     1      -6.222   0.045  24.258  0.00  0.00    +0.131 C 
BRANCH  18  23
ATOM     23  C   UNL     1      -4.993  -0.718  24.642  0.00  0.00    -0.039 A 
ATOM     27  C   UNL     1      -4.404  -1.597  23.734  0.00  0.00    +0.004 A 
ATOM     28  C   UNL     1      -4.437  -0.551  25.911  0.00  0.00    +0.004 A 
ATOM     29  C   UNL     1      -3.258  -2.308  24.092  0.00  0.00    +0.000 A 
ATOM     30  C   UNL     1      -3.292  -1.262  26.270  0.00  0.00    +0.000 A 
ATOM     31  C   UNL     1      -2.703  -2.140  25.360  0.00  0.00    +0.000 A 
ENDBRANCH  18  23
ENDBRANCH  15  18
TORSDOF 8
ENDMDL
MODEL 7
REMARK VINA RESULT:       3.7      2.533      4.600
REMARK  Name = 51136662
REMARK  9 active torsions:
REMARK  status: ('A' for Active; 'I' for Inactive)
REMARK    1  A    between atoms: O_2  and  C_17
REMARK    2  A    between atoms: O_4  and  C_26
REMARK    3  A    between atoms: O_4  and  C_32
REMARK    4  A    between atoms: C_7  and  C_12
REMARK    5  A    between atoms: C_8  and  C_13
REMARK    6  A    between atoms: C_12  and  C_14
REMARK    7  A    between atoms: C_13  and  C_17
REMARK    8  A    between atoms: C_15  and  C_18
REMARK    9  A    between atoms: C_18  and  C_23
REMARK                            x       y       z     vdW  Elec       q    Type
REMARK                         _______ _______ _______ _____ _____    ______ ____
ROOT
ATOM      1  O   UNL     1      -4.878   4.456  25.351  0.00  0.00    -0.275 OA
ATOM      5  N   UNL     1      -2.634   3.863  25.250  0.00  0.00    -0.301 N 
ATOM      7  C   UNL     1      -0.798   2.210  25.520  0.00  0.00    +0.016 C 
ATOM      8  C   UNL     1      -0.407   2.916  26.842  0.00  0.00    +0.006 C 
ATOM      9  C   UNL     1      -1.611   3.630  27.480  0.00  0.00    +0.023 C 
ATOM     10  C   UNL     1      -1.502   3.209  24.581  0.00  0.00    +0.112 C 
ATOM     11  C   UNL     1      -2.292   4.566  26.486  0.00  0.00    +0.108 C 
ATOM     15  C   UNL     1      -3.949   3.876  24.783  0.00  0.00    +0.220 C 
ENDROOT
BRANCH   7  12
ATOM     12  C   UNL     1      -1.665   0.960  25.713  0.00  0.00    +0.061 C 
BRANCH  12  14
ATOM      6  N   UNL     1      -1.424  -1.417  25.475  0.00  0.00    -0.287 NA
ATOM     14  C   UNL     1      -0.940  -0.254  25.185  0.00  0.00    +0.044 C 
ATOM     16  C   UNL     1       0.287  -0.058  24.373  0.00  0.00    -0.001 A 
ATOM     19  C   UNL     1       1.134  -1.164  24.231  0.00  0.00    -0.033 A 
ATOM     20  C   UNL     1       0.762  -2.449  24.910  0.00  0.00    +0.059 C 
ATOM     21  C   UNL     1      -0.755  -2.595  24.912  0.00  0.00    +0.146 C 
ATOM     22  C   UNL     1       0.612   1.163  23.779  0.00  0.00    +0.013 A 
ATOM     24  C   UNL     1       2.325  -1.033  23.511  0.00  0.00    +0.050 A 
ATOM     25  C   UNL     1       1.795   1.280  23.049  0.00  0.00    +0.046 A 
ATOM     26  C   UNL     1       2.651   0.186  22.918  0.00  0.00    +0.120 A 
BRANCH  26   4
ATOM      4  O   UNL     1       3.809   0.310  22.210  0.00  0.00    -0.495 OA
ATOM     32  C   UNL     1       5.024   0.351  22.956  0.00  0.00    +0.277 C 
ENDBRANCH  26   4
ENDBRANCH  12  14
ENDBRANCH   7  12
BRANCH   8  13
ATOM     13  C   UNL     1       0.260   1.980  27.848  0.00  0.00    +0.124 C 
BRANCH  13  17
ATOM      3  O   UNL     1       2.368   3.150  28.212  0.00  0.00    -0.251 OA
ATOM     17  C   UNL     1       1.323   2.686  28.645  0.00  0.00    +0.305 C 
BRANCH  17   2
ATOM      2  O   UNL     1       0.957   2.741  29.951  0.00  0.00    -0.481 OA
ATOM     33  H   UNL     1      -0.018   2.769  30.057  0.00  0.00    +0.295 HD
ENDBRANCH  17   2
ENDBRANCH  13  17
ENDBRANCH   8  13
BRANCH  15  18
ATOM     18  C   UNL     1      -4.221   3.125  23.505  0.00  0.00    +0.131 C 
BRANCH  18  23
ATOM     23  C   UNL     1      -4.271   1.651  23.759  0.00  0.00    -0.039 A 
ATOM     27  C   UNL     1      -3.576   0.775  22.927  0.00  0.00    +0.004 A 
ATOM     28  C   UNL     1      -5.015   1.154  24.830  0.00  0.00    +0.004 A 
ATOM     29  C   UNL     1      -3.623  -0.600  23.164  0.00  0.00    +0.000 A 
ATOM     30  C   UNL     1      -5.063  -0.220  25.068  0.00  0.00    +0.000 A 
ATOM     31  C   UNL     1      -4.366  -1.096  24.235  0.00  0.00    +0.000 A 
ENDBRANCH  18  23
ENDBRANCH  15  18
TORSDOF 8
ENDMDL
MODEL 8
REMARK VINA RESULT:       3.9      1.744      5.605
REMARK  Name = 51136662
REMARK  9 active torsions:
REMARK  status: ('A' for Active; 'I' for Inactive)
REMARK    1  A    between atoms: O_2  and  C_17
REMARK    2  A    between atoms: O_4  and  C_26
REMARK    3  A    between atoms: O_4  and  C_32
REMARK    4  A    between atoms: C_7  and  C_12
REMARK    5  A    between atoms: C_8  and  C_13
REMARK    6  A    between atoms: C_12  and  C_14
REMARK    7  A    between atoms: C_13  and  C_17
REMARK    8  A    between atoms: C_15  and  C_18
REMARK    9  A    between atoms: C_18  and  C_23
REMARK                            x       y       z     vdW  Elec       q    Type
REMARK                         _______ _______ _______ _____ _____    ______ ____
ROOT
ATOM      1  O   UNL     1       0.701   3.981  23.560  0.00  0.00    -0.275 OA
ATOM      5  N   UNL     1      -1.030   3.814  25.100  0.00  0.00    -0.301 N 
ATOM      7  C   UNL     1      -3.197   2.859  25.854  0.00  0.00    +0.016 C 
ATOM      8  C   UNL     1      -3.883   4.185  25.437  0.00  0.00    +0.006 C 
ATOM      9  C   UNL     1      -3.101   4.900  24.322  0.00  0.00    +0.023 C 
ATOM     10  C   UNL     1      -1.718   3.122  26.197  0.00  0.00    +0.112 C 
ATOM     11  C   UNL     1      -1.636   5.085  24.703  0.00  0.00    +0.108 C 
ATOM     15  C   UNL     1       0.127   3.366  24.464  0.00  0.00    +0.220 C 
ENDROOT
BRANCH   7  12
ATOM     12  C   UNL     1      -3.312   1.742  24.810  0.00  0.00    +0.061 C 
BRANCH  12  14
ATOM      6  N   UNL     1      -1.593   0.677  26.105  0.00  0.00    -0.287 NA
ATOM     14  C   UNL     1      -2.586   0.511  25.294  0.00  0.00    +0.044 C 
ATOM     16  C   UNL     1      -3.037  -0.821  24.815  0.00  0.00    -0.001 A 
ATOM     19  C   UNL     1      -2.135  -1.882  24.959  0.00  0.00    -0.033 A 
ATOM     20  C   UNL     1      -0.789  -1.608  25.562  0.00  0.00    +0.059 C 
ATOM     21  C   UNL     1      -0.926  -0.523  26.623  0.00  0.00    +0.146 C 
ATOM     22  C   UNL     1      -4.289  -1.030  24.233  0.00  0.00    +0.013 A 
ATOM     24  C   UNL     1      -2.484  -3.152  24.492  0.00  0.00    +0.050 A 
ATOM     25  C   UNL     1      -4.634  -2.304  23.784  0.00  0.00    +0.046 A 
ATOM     26  C   UNL     1      -3.733  -3.362  23.910  0.00  0.00    +0.120 A 
BRANCH  26   4
ATOM      4  O   UNL     1      -4.076  -4.602  23.461  0.00  0.00    -0.495 OA
ATOM     32  C   UNL     1      -3.360  -5.105  22.335  0.00  0.00    +0.277 C 
ENDBRANCH  26   4
ENDBRANCH  12  14
ENDBRANCH   7  12
BRANCH   8  13
ATOM     13  C   UNL     1      -5.347   4.003  25.038  0.00  0.00    +0.124 C 
BRANCH  13  17
ATOM      3  O   UNL     1      -6.001   2.663  26.967  0.00  0.00    -0.251 OA
ATOM     17  C   UNL     1      -5.980   2.844  25.758  0.00  0.00    +0.305 C 
BRANCH  17   2
ATOM      2  O   UNL     1      -6.542   1.997  24.859  0.00  0.00    -0.481 OA
ATOM     33  H   UNL     1      -7.509   2.136  24.779  0.00  0.00    +0.295 HD
ENDBRANCH  17   2
ENDBRANCH  13  17
ENDBRANCH   8  13
BRANCH  15  18
ATOM     18  C   UNL     1       0.687   2.047  24.927  0.00  0.00    +0.131 C 
BRANCH  18  23
ATOM     23  C   UNL     1       1.113   1.214  23.759  0.00  0.00    -0.039 A 
ATOM     27  C   UNL     1       0.169   0.475  23.047  0.00  0.00    +0.004 A 
ATOM     28  C   UNL     1       2.456   1.177  23.383  0.00  0.00    +0.004 A 
ATOM     29  C   UNL     1       0.567  -0.301  21.957  0.00  0.00    +0.000 A 
ATOM     30  C   UNL     1       2.855   0.401  22.294  0.00  0.00    +0.000 A 
ATOM     31  C   UNL     1       1.910  -0.337  21.581  0.00  0.00    +0.000 A 
ENDBRANCH  18  23
ENDBRANCH  15  18
TORSDOF 8
ENDMDL
MODEL 9
REMARK VINA RESULT:       4.1      1.947      5.736
REMARK  Name = 51136662
REMARK  9 active torsions:
REMARK  status: ('A' for Active; 'I' for Inactive)
REMARK    1  A    between atoms: O_2  and  C_17
REMARK    2  A    between atoms: O_4  and  C_26
REMARK    3  A    between atoms: O_4  and  C_32
REMARK    4  A    between atoms: C_7  and  C_12
REMARK    5  A    between atoms: C_8  and  C_13
REMARK    6  A    between atoms: C_12  and  C_14
REMARK    7  A    between atoms: C_13  and  C_17
REMARK    8  A    between atoms: C_15  and  C_18
REMARK    9  A    between atoms: C_18  and  C_23
REMARK                            x       y       z     vdW  Elec       q    Type
REMARK                         _______ _______ _______ _____ _____    ______ ____
ROOT
ATOM      1  O   UNL     1       1.656   1.547  25.070  0.00  0.00    -0.275 OA
ATOM      5  N   UNL     1       0.379   0.019  23.874  0.00  0.00    -0.301 N 
ATOM      7  C   UNL     1      -1.763  -1.161  23.428  0.00  0.00    +0.016 C 
ATOM      8  C   UNL     1      -1.175  -2.412  24.129  0.00  0.00    +0.006 C 
ATOM      9  C   UNL     1      -0.097  -2.031  25.157  0.00  0.00    +0.023 C 
ATOM     10  C   UNL     1      -0.622  -0.303  22.849  0.00  0.00    +0.112 C 
ATOM     11  C   UNL     1       0.975  -1.143  24.533  0.00  0.00    +0.108 C 
ATOM     15  C   UNL     1       0.794   1.305  24.221  0.00  0.00    +0.220 C 
ENDROOT
BRANCH   7  12
ATOM     12  C   UNL     1      -2.666  -0.309  24.328  0.00  0.00    +0.061 C 
BRANCH  12  14
ATOM      6  N   UNL     1      -2.724   1.066  22.360  0.00  0.00    -0.287 NA
ATOM     14  C   UNL     1      -3.149   0.904  23.570  0.00  0.00    +0.044 C 
ATOM     16  C   UNL     1      -4.073   1.849  24.246  0.00  0.00    -0.001 A 
ATOM     19  C   UNL     1      -4.191   3.127  23.685  0.00  0.00    -0.033 A 
ATOM     20  C   UNL     1      -3.378   3.457  22.467  0.00  0.00    +0.059 C 
ATOM     21  C   UNL     1      -3.240   2.211  21.602  0.00  0.00    +0.146 C 
ATOM     22  C   UNL     1      -4.791   1.512  25.394  0.00  0.00    +0.013 A 
ATOM     24  C   UNL     1      -5.014   4.076  24.296  0.00  0.00    +0.050 A 
ATOM     25  C   UNL     1      -5.622   2.461  25.989  0.00  0.00    +0.046 A 
ATOM     26  C   UNL     1      -5.731   3.741  25.444  0.00  0.00    +0.120 A 
BRANCH  26   4
ATOM      4  O   UNL     1      -6.539   4.665  26.035  0.00  0.00    -0.495 OA
ATOM     32  C   UNL     1      -6.620   5.947  25.417  0.00  0.00    +0.277 C 
ENDBRANCH  26   4
ENDBRANCH  12  14
ENDBRANCH   7  12
BRANCH   8  13
ATOM     13  C   UNL     1      -2.243  -3.298  24.770  0.00  0.00    +0.124 C 
BRANCH  13  17
ATOM      3  O   UNL     1      -4.405  -2.722  23.802  0.00  0.00    -0.251 OA
ATOM     17  C   UNL     1      -3.602  -2.654  24.721  0.00  0.00    +0.305 C 
BRANCH  17   2
ATOM      2  O   UNL     1      -3.824  -1.965  25.869  0.00  0.00    -0.481 OA
ATOM     33  H   UNL     1      -4.326  -2.496  26.524  0.00  0.00    +0.295 HD
ENDBRANCH  17   2
ENDBRANCH  13  17
ENDBRANCH   8  13
BRANCH  15  18
ATOM     18  C   UNL     1       0.129   2.448  23.500  0.00  0.00    +0.131 C 
BRANCH  18  23
ATOM     23  C   UNL     1      -0.658   3.289  24.455  0.00  0.00    -0.039 A 
ATOM     27  C   UNL     1      -0.833   4.650  24.207  0.00  0.00    +0.004 A 
ATOM     28  C   UNL     1      -1.216   2.711  25.596  0.00  0.00    +0.004 A 
ATOM     29  C   UNL     1      -1.567   5.435  25.098  0.00  0.00    +0.000 A 
ATOM     30  C   UNL     1      -1.949   3.495  26.488  0.00  0.00    +0.000 A 
ATOM     31  C   UNL     1      -2.125   4.856  26.238  0.00  0.00    +0.000 A 
ENDBRANCH  18  23
ENDBRANCH  15  18
TORSDOF 8
ENDMDL
MODEL 10
REMARK VINA RESULT:       4.8      2.054      5.212
REMARK  Name = 51136662
REMARK  9 active torsions:
REMARK  status: ('A' for Active; 'I' for Inactive)
REMARK    1  A    between atoms: O_2  and  C_17
REMARK    2  A    between atoms: O_4  and  C_26
REMARK    3  A    between atoms: O_4  and  C_32
REMARK    4  A    between atoms: C_7  and  C_12
REMARK    5  A    between atoms: C_8  and  C_13
REMARK    6  A    between atoms: C_12  and  C_14
REMARK    7  A    between atoms: C_13  and  C_17
REMARK    8  A    between atoms: C_15  and  C_18
REMARK    9  A    between atoms: C_18  and  C_23
REMARK                            x       y       z     vdW  Elec       q    Type
REMARK                         _______ _______ _______ _____ _____    ______ ____
ROOT
ATOM      1  O   UNL     1      -0.216  -1.661  25.684  0.00  0.00    -0.275 OA
ATOM      5  N   UNL     1      -2.207  -1.187  24.584  0.00  0.00    -0.301 N 
ATOM      7  C   UNL     1      -3.664   0.334  23.266  0.00  0.00    +0.016 C 
ATOM      8  C   UNL     1      -4.473   0.617  24.557  0.00  0.00    +0.006 C 
ATOM      9  C   UNL     1      -3.615   0.416  25.818  0.00  0.00    +0.023 C 
ATOM     10  C   UNL     1      -3.002  -1.054  23.357  0.00  0.00    +0.112 C 
ATOM     11  C   UNL     1      -2.950  -0.957  25.823  0.00  0.00    +0.108 C 
ATOM     15  C   UNL     1      -0.856  -1.531  24.637  0.00  0.00    +0.220 C 
ENDROOT
BRANCH   7  12
ATOM     12  C   UNL     1      -2.615   1.404  22.941  0.00  0.00    +0.061 C 
BRANCH  12  14
ATOM      6  N   UNL     1      -3.613   3.342  23.948  0.00  0.00    -0.287 NA
ATOM     14  C   UNL     1      -2.644   2.488  23.991  0.00  0.00    +0.044 C 
ATOM     16  C   UNL     1      -1.564   2.527  25.009  0.00  0.00    -0.001 A 
ATOM     19  C   UNL     1      -1.397   3.729  25.707  0.00  0.00    -0.033 A 
ATOM     20  C   UNL     1      -2.295   4.885  25.376  0.00  0.00    +0.059 C 
ATOM     21  C   UNL     1      -3.675   4.358  25.003  0.00  0.00    +0.146 C 
ATOM     22  C   UNL     1      -0.731   1.437  25.268  0.00  0.00    +0.013 A 
ATOM     24  C   UNL     1      -0.373   3.844  26.651  0.00  0.00    +0.050 A 
ATOM     25  C   UNL     1       0.279   1.555  26.223  0.00  0.00    +0.046 A 
ATOM     26  C   UNL     1       0.460   2.756  26.911  0.00  0.00    +0.120 A 
BRANCH  26   4
ATOM      4  O   UNL     1       1.454   2.866  27.836  0.00  0.00    -0.495 OA
ATOM     32  C   UNL     1       1.181   2.367  29.144  0.00  0.00    +0.277 C 
ENDBRANCH  26   4
ENDBRANCH  12  14
ENDBRANCH   7  12
BRANCH   8  13
ATOM     13  C   UNL     1      -5.128   1.998  24.565  0.00  0.00    +0.124 C 
BRANCH  13  17
ATOM      3  O   UNL     1      -6.288   2.355  26.679  0.00  0.00    -0.251 OA
ATOM     17  C   UNL     1      -6.308   2.048  25.496  0.00  0.00    +0.305 C 
BRANCH  17   2
ATOM      2  O   UNL     1      -7.435   1.693  24.828  0.00  0.00    -0.481 OA
ATOM     33  H   UNL     1      -7.870   0.912  25.232  0.00  0.00    +0.295 HD
ENDBRANCH  17   2
ENDBRANCH  13  17
ENDBRANCH   8  13
BRANCH  15  18
ATOM     18  C   UNL     1      -0.161  -1.748  23.317  0.00  0.00    +0.131 C 
BRANCH  18  23
ATOM     23  C   UNL     1       1.037  -0.859  23.199  0.00  0.00    -0.039 A 
ATOM     27  C   UNL     1       0.873   0.512  23.001  0.00  0.00    +0.004 A 
ATOM     28  C   UNL     1       2.319  -1.402  23.287  0.00  0.00    +0.004 A 
ATOM     29  C   UNL     1       1.990   1.341  22.892  0.00  0.00    +0.000 A 
ATOM     30  C   UNL     1       3.437  -0.574  23.177  0.00  0.00    +0.000 A 
ATOM     31  C   UNL     1       3.272   0.797  22.980  0.00  0.00    +0.000 A 
ENDBRANCH  18  23
ENDBRANCH  15  18
TORSDOF 8
ENDMDL
