MODEL 1
REMARK VINA RESULT:      14.4      0.000      0.000
REMARK  Name = 9420609
REMARK  5 active torsions:
REMARK  status: ('A' for Active; 'I' for Inactive)
REMARK    1  A    between atoms: N_4  and  C_13
REMARK    2  A    between atoms: N_7  and  C_29
REMARK    3  A    between atoms: C_22  and  C_25
REMARK    4  A    between atoms: C_24  and  C_27
REMARK    5  A    between atoms: C_26  and  C_29
REMARK                            x       y       z     vdW  Elec       q    Type
REMARK                         _______ _______ _______ _____ _____    ______ ____
ROOT
ATOM      1  O   UNL     1      -3.163   1.438  26.793  0.00  0.00    -0.267 OA
ATOM      4  N   UNL     1      -0.285  -1.637  24.071  0.00  0.00    -0.298 NA
ATOM      5  N   UNL     1      -2.898  -0.471  25.482  0.00  0.00    -0.311 N 
ATOM      8  C   UNL     1      -1.395  -2.429  26.175  0.00  0.00    +0.024 C 
ATOM      9  C   UNL     1      -2.619  -2.527  24.056  0.00  0.00    +0.050 C 
ATOM     10  C   UNL     1      -2.372  -3.272  25.366  0.00  0.00    +0.017 C 
ATOM     11  C   UNL     1      -0.079  -2.246  25.391  0.00  0.00    +0.090 C 
ATOM     12  C   UNL     1      -1.286  -2.376  23.289  0.00  0.00    +0.094 C 
ATOM     14  C   UNL     1      -2.066  -1.093  26.522  0.00  0.00    +0.130 C 
ATOM     15  C   UNL     1      -3.237  -1.166  24.319  0.00  0.00    +0.026 A 
ATOM     20  C   UNL     1      -4.089  -0.625  23.434  0.00  0.00    +0.022 A 
ATOM     21  C   UNL     1      -3.413   0.809  25.764  0.00  0.00    +0.259 A 
ATOM     22  C   UNL     1      -4.338   1.405  24.737  0.00  0.00    +0.047 A 
ATOM     23  C   UNL     1      -4.640   0.684  23.648  0.00  0.00    +0.015 A 
ENDROOT
BRANCH   4  13
ATOM      2  O   UNL     1       5.471   0.484  23.922  0.00  0.00    -0.276 OA
ATOM      6  N   UNL     1       3.512  -0.210  22.883  0.00  0.00    -0.302 N 
ATOM     13  C   UNL     1       0.976  -1.530  23.341  0.00  0.00    +0.060 C 
ATOM     16  C   UNL     1       1.058  -0.172  22.630  0.00  0.00    +0.038 C 
ATOM     17  C   UNL     1       2.159  -1.704  24.303  0.00  0.00    +0.038 C 
ATOM     18  C   UNL     1       2.409   0.001  21.936  0.00  0.00    +0.109 C 
ATOM     19  C   UNL     1       3.486  -1.501  23.576  0.00  0.00    +0.109 C 
ATOM     24  C   UNL     1       4.554   0.684  23.120  0.00  0.00    +0.212 C 
ATOM     27  C   UNL     1       4.533   1.971  22.335  0.00  0.00    +0.109 C 
ENDBRANCH   4  13
BRANCH  22  25
ATOM     25  C   UNL     1      -4.900   2.757  24.909  0.00  0.00    -0.008 A 
ATOM     26  C   UNL     1      -4.232   3.889  24.435  0.00  0.00    -0.025 A 
ATOM     28  C   UNL     1      -6.127   2.898  25.561  0.00  0.00    +0.009 A 
ATOM     30  C   UNL     1      -4.789   5.155  24.612  0.00  0.00    +0.005 A 
ATOM     31  C   UNL     1      -6.683   4.165  25.738  0.00  0.00    +0.001 A 
ATOM     34  C   UNL     1      -6.015   5.293  25.264  0.00  0.00    +0.000 A 
BRANCH  26  29
ATOM     29  C   UNL     1      -2.918   3.779  23.732  0.00  0.00    +0.120 C 
BRANCH  29   7
ATOM      3  O   UNL     1       0.712   2.670  25.524  0.00  0.00    -0.377 OA
ATOM      7  N   UNL     1      -1.924   3.055  24.525  0.00  0.00    -0.294 NA
ATOM     32  C   UNL     1      -1.368   3.918  25.576  0.00  0.00    +0.113 C 
ATOM     33  C   UNL     1      -0.845   2.544  23.668  0.00  0.00    +0.113 C 
ATOM     35  C   UNL     1      -0.326   3.146  26.381  0.00  0.00    +0.175 C 
ATOM     36  C   UNL     1       0.183   1.804  24.519  0.00  0.00    +0.175 C 
ENDBRANCH  29   7
ENDBRANCH  26  29
ENDBRANCH  22  25
TORSDOF 4
ENDMDL
MODEL 2
REMARK VINA RESULT:      17.6      1.891      7.121
REMARK  Name = 9420609
REMARK  5 active torsions:
REMARK  status: ('A' for Active; 'I' for Inactive)
REMARK    1  A    between atoms: N_4  and  C_13
REMARK    2  A    between atoms: N_7  and  C_29
REMARK    3  A    between atoms: C_22  and  C_25
REMARK    4  A    between atoms: C_24  and  C_27
REMARK    5  A    between atoms: C_26  and  C_29
REMARK                            x       y       z     vdW  Elec       q    Type
REMARK                         _______ _______ _______ _____ _____    ______ ____
ROOT
ATOM      1  O   UNL     1      -0.088  -0.591  22.053  0.00  0.00    -0.267 OA
ATOM      4  N   UNL     1      -3.974  -0.326  25.213  0.00  0.00    -0.298 NA
ATOM      5  N   UNL     1      -1.451  -1.545  23.687  0.00  0.00    -0.311 N 
ATOM      8  C   UNL     1      -3.952  -1.977  23.325  0.00  0.00    +0.024 C 
ATOM      9  C   UNL     1      -2.912  -2.574  25.460  0.00  0.00    +0.050 C 
ATOM     10  C   UNL     1      -3.744  -3.125  24.304  0.00  0.00    +0.017 C 
ATOM     11  C   UNL     1      -4.685  -0.812  24.022  0.00  0.00    +0.090 C 
ATOM     12  C   UNL     1      -3.681  -1.422  26.147  0.00  0.00    +0.094 C 
ATOM     14  C   UNL     1      -2.589  -1.560  22.756  0.00  0.00    +0.130 C 
ATOM     15  C   UNL     1      -1.560  -2.091  24.968  0.00  0.00    +0.026 A 
ATOM     20  C   UNL     1      -0.481  -2.169  25.762  0.00  0.00    +0.022 A 
ATOM     21  C   UNL     1      -0.231  -1.049  23.188  0.00  0.00    +0.259 A 
ATOM     22  C   UNL     1       0.954  -1.118  24.114  0.00  0.00    +0.047 A 
ATOM     23  C   UNL     1       0.792  -1.668  25.326  0.00  0.00    +0.015 A 
ENDROOT
BRANCH   4  13
ATOM      2  O   UNL     1      -6.899   5.045  24.723  0.00  0.00    -0.276 OA
ATOM      6  N   UNL     1      -5.700   3.464  25.932  0.00  0.00    -0.302 N 
ATOM     13  C   UNL     1      -4.725   0.738  25.873  0.00  0.00    +0.060 C 
ATOM     16  C   UNL     1      -3.796   1.917  26.192  0.00  0.00    +0.038 C 
ATOM     17  C   UNL     1      -5.886   1.197  24.981  0.00  0.00    +0.038 C 
ATOM     18  C   UNL     1      -4.578   3.082  26.799  0.00  0.00    +0.109 C 
ATOM     19  C   UNL     1      -6.626   2.374  25.611  0.00  0.00    +0.109 C 
ATOM     24  C   UNL     1      -5.948   4.749  25.452  0.00  0.00    +0.212 C 
ATOM     27  C   UNL     1      -4.973   5.824  25.863  0.00  0.00    +0.109 C 
ENDBRANCH   4  13
BRANCH  22  25
ATOM     25  C   UNL     1       2.269  -0.588  23.711  0.00  0.00    -0.008 A 
ATOM     26  C   UNL     1       2.402   0.687  23.157  0.00  0.00    -0.025 A 
ATOM     28  C   UNL     1       3.401  -1.387  23.891  0.00  0.00    +0.009 A 
ATOM     30  C   UNL     1       3.660   1.162  22.786  0.00  0.00    +0.005 A 
ATOM     31  C   UNL     1       4.659  -0.912  23.519  0.00  0.00    +0.001 A 
ATOM     34  C   UNL     1       4.788   0.362  22.967  0.00  0.00    +0.000 A 
BRANCH  26  29
ATOM     29  C   UNL     1       1.215   1.572  22.949  0.00  0.00    +0.120 C 
BRANCH  29   7
ATOM      3  O   UNL     1      -0.946   3.509  25.980  0.00  0.00    -0.377 OA
ATOM      7  N   UNL     1       0.892   2.357  24.139  0.00  0.00    -0.294 NA
ATOM     32  C   UNL     1       0.179   1.535  25.127  0.00  0.00    +0.113 C 
ATOM     33  C   UNL     1       0.087   3.534  23.785  0.00  0.00    +0.113 C 
ATOM     35  C   UNL     1      -0.158   2.379  26.354  0.00  0.00    +0.175 C 
ATOM     36  C   UNL     1      -0.246   4.329  25.045  0.00  0.00    +0.175 C 
ENDBRANCH  29   7
ENDBRANCH  26  29
ENDBRANCH  22  25
TORSDOF 4
ENDMDL
