MODEL 1
REMARK VINA RESULT:      -3.2      0.000      0.000
REMARK  Name = 51137765
REMARK  7 active torsions:
REMARK  status: ('A' for Active; 'I' for Inactive)
REMARK    1  A    between atoms: O_4  and  C_20
REMARK    2  A    between atoms: O_4  and  C_28
REMARK    3  A    between atoms: O_5  and  C_22
REMARK    4  A    between atoms: O_5  and  C_29
REMARK    5  A    between atoms: C_9  and  C_13
REMARK    6  A    between atoms: C_14  and  C_15
REMARK    7  A    between atoms: C_16  and  C_19
REMARK                            x       y       z     vdW  Elec       q    Type
REMARK                         _______ _______ _______ _____ _____    ______ ____
ROOT
ATOM      3  O   UNL     1      -4.671  -8.607  11.855  0.00  0.00    -0.270 OA
ATOM      6  N   UNL     1      -6.223  -9.930  10.743  0.00  0.00    -0.297 N 
ATOM      9  C   UNL     1      -7.868 -10.745   9.230  0.00  0.00    +0.095 C 
ATOM     10  C   UNL     1      -6.537 -10.547   8.488  0.00  0.00    +0.033 C 
ATOM     11  C   UNL     1      -7.412 -10.781  10.696  0.00  0.00    +0.121 C 
ATOM     12  C   UNL     1      -5.740  -9.629   9.404  0.00  0.00    +0.109 C 
ATOM     14  C   UNL     1      -5.628  -9.378  11.867  0.00  0.00    +0.247 C 
ENDROOT
BRANCH  14  15
ATOM     15  C   UNL     1      -6.195  -9.731  13.178  0.00  0.00    +0.041 A 
ATOM     17  C   UNL     1      -7.566  -9.604  13.401  0.00  0.00    +0.062 A 
ATOM     18  C   UNL     1      -5.362 -10.192  14.198  0.00  0.00    +0.017 A 
ATOM     20  C   UNL     1      -8.104  -9.938  14.644  0.00  0.00    +0.162 A 
ATOM     21  C   UNL     1      -5.901 -10.527  15.440  0.00  0.00    +0.050 A 
ATOM     22  C   UNL     1      -7.271 -10.400  15.664  0.00  0.00    +0.162 A 
BRANCH  20   4
ATOM      4  O   UNL     1      -9.445  -9.810  14.850  0.00  0.00    -0.491 OA
ATOM     28  C   UNL     1      -9.934  -8.503  15.144  0.00  0.00    +0.277 C 
ENDBRANCH  20   4
BRANCH  22   5
ATOM      5  O   UNL     1      -7.784 -10.729  16.882  0.00  0.00    -0.491 OA
ATOM     29  C   UNL     1      -7.462  -9.870  17.974  0.00  0.00    +0.277 C 
ENDBRANCH  22   5
ENDBRANCH  14  15
BRANCH   9  13
ATOM      2  O   UNL     1      -8.505  -8.381   9.050  0.00  0.00    -0.420 OA
ATOM      7  N   UNL     1     -10.094  -9.805   8.375  0.00  0.00    -0.112 NA
ATOM      8  N   UNL     1     -10.579  -8.520   8.222  0.00  0.00    -0.107 NA
ATOM     13  C   UNL     1      -8.881  -9.675   8.861  0.00  0.00    +0.222 A 
ATOM     16  C   UNL     1      -9.619  -7.722   8.628  0.00  0.00    +0.251 A 
BRANCH  16  19
ATOM      1  F   UNL     1      -7.246  -6.303   8.160  0.00  0.00    -0.205 F 
ATOM     19  C   UNL     1      -9.564  -6.290   8.694  0.00  0.00    +0.074 A 
ATOM     23  C   UNL     1      -8.363  -5.622   8.455  0.00  0.00    +0.136 A 
ATOM     24  C   UNL     1     -10.716  -5.566   8.999  0.00  0.00    +0.016 A 
ATOM     25  C   UNL     1      -8.315  -4.229   8.521  0.00  0.00    +0.039 A 
ATOM     26  C   UNL     1     -10.668  -4.174   9.066  0.00  0.00    +0.001 A 
ATOM     27  C   UNL     1      -9.468  -3.506   8.827  0.00  0.00    +0.003 A 
ENDBRANCH  16  19
ENDBRANCH   9  13
TORSDOF 5
ENDMDL
