MODEL 1
REMARK VINA RESULT:      -6.5      0.000      0.000
REMARK  Name = 38028604
REMARK  13 active torsions:
REMARK  status: ('A' for Active; 'I' for Inactive)
REMARK    1  A    between atoms: S_1  and  N_5
REMARK    2  A    between atoms: S_1  and  C_20
REMARK    3  A    between atoms: N_5  and  C_14
REMARK    4  A    between atoms: N_6  and  C_22
REMARK    5  A    between atoms: C_7  and  C_11
REMARK    6  A    between atoms: C_8  and  C_14
REMARK    7  A    between atoms: C_10  and  C_15
REMARK    8  A    between atoms: C_11  and  C_16
REMARK    9  A    between atoms: C_11  and  C_17
REMARK   10  A    between atoms: C_12  and  C_18
REMARK   11  A    between atoms: C_15  and  C_19
REMARK   12  A    between atoms: C_20  and  C_21
REMARK   13  A    between atoms: C_22  and  C_25
REMARK                            x       y       z     vdW  Elec       q    Type
REMARK                         _______ _______ _______ _____ _____    ______ ____
ROOT
ATOM      7  C   UNL     1      -2.276  -1.318  24.332  0.00  0.00    +0.000 C 
ATOM      8  C   UNL     1      -2.855  -0.519  25.526  0.00  0.00    +0.030 C 
ATOM      9  C   UNL     1      -0.756  -1.482  24.482  0.00  0.00    +0.012 C 
ATOM     10  C   UNL     1      -0.029  -0.127  24.562  0.00  0.00    +0.023 C 
ATOM     12  C   UNL     1      -0.706   0.820  25.531  0.00  0.00    -0.073 C 
ATOM     13  C   UNL     1      -1.965   0.621  25.962  0.00  0.00    -0.023 C 
ATOM     18  C   UNL     1       0.113   1.977  26.032  0.00  0.00    +0.039 C 
ENDROOT
BRANCH   7  11
ATOM     11  C   UNL     1      -2.935  -2.694  24.194  0.00  0.00    -0.013 C 
ATOM     16  C   UNL     1      -3.143  -3.325  25.567  0.00  0.00    +0.007 C 
ATOM     17  C   UNL     1      -4.259  -2.577  23.446  0.00  0.00    +0.007 C 
ENDBRANCH   7  11
BRANCH   8  14
ATOM     14  C   UNL     1      -4.254   0.019  25.206  0.00  0.00    +0.113 C 
BRANCH  14   5
ATOM      5  N   UNL     1      -4.360   1.400  25.561  0.00  0.00    -0.194 NA
ATOM     30  H   UNL     1      -3.659   1.725  26.239  0.00  0.00    +0.148 HD
BRANCH   5   1
ATOM      1  S   UNL     1      -5.911   2.151  25.706  0.00  0.00    +0.033 S 
ATOM      3  O   UNL     1      -6.384   1.995  27.067  0.00  0.00    -0.158 OA
ATOM      4  O   UNL     1      -6.746   1.774  24.582  0.00  0.00    -0.158 OA
BRANCH   1  20
ATOM     20  C   UNL     1      -5.453   3.854  25.479  0.00  0.00    +0.220 C 
BRANCH  20  21
ATOM     21  C   UNL     1      -4.022   3.887  25.039  0.00  0.00    -0.025 A 
ATOM     23  C   UNL     1      -3.058   4.492  25.847  0.00  0.00    +0.005 A 
ATOM     24  C   UNL     1      -3.652   3.314  23.822  0.00  0.00    +0.005 A 
ATOM     26  C   UNL     1      -1.725   4.523  25.437  0.00  0.00    +0.000 A 
ATOM     27  C   UNL     1      -2.319   3.346  23.413  0.00  0.00    +0.000 A 
ATOM     28  C   UNL     1      -1.355   3.950  24.220  0.00  0.00    +0.000 A 
ENDBRANCH  20  21
ENDBRANCH   1  20
ENDBRANCH   5   1
ENDBRANCH  14   5
ENDBRANCH   8  14
BRANCH  10  15
ATOM     15  C   UNL     1       0.104   0.511  23.174  0.00  0.00    +0.103 C 
BRANCH  15  19
ATOM      2  O   UNL     1       1.643  -0.571  21.650  0.00  0.00    -0.276 OA
ATOM      6  N   UNL     1       2.439   1.028  23.138  0.00  0.00    -0.304 N 
ATOM     19  C   UNL     1       1.456   0.241  22.552  0.00  0.00    +0.214 C 
ATOM     31  H   UNL     1       2.178   1.684  23.869  0.00  0.00    +0.150 HD
BRANCH   6  22
ATOM     22  C   UNL     1       3.827   0.980  22.743  0.00  0.00    +0.193 C 
BRANCH  22  25
ATOM     25  C   UNL     1       4.555  -0.040  23.497  0.00  0.00    -0.087 C 
ATOM     29  C   UNL     1       5.150  -0.877  24.119  0.00  0.00    +0.005 C 
ENDBRANCH  22  25
ENDBRANCH   6  22
ENDBRANCH  15  19
ENDBRANCH  10  15
TORSDOF 10
ENDMDL
MODEL 2
REMARK VINA RESULT:      -3.8      2.053      6.631
REMARK  Name = 38028604
REMARK  13 active torsions:
REMARK  status: ('A' for Active; 'I' for Inactive)
REMARK    1  A    between atoms: S_1  and  N_5
REMARK    2  A    between atoms: S_1  and  C_20
REMARK    3  A    between atoms: N_5  and  C_14
REMARK    4  A    between atoms: N_6  and  C_22
REMARK    5  A    between atoms: C_7  and  C_11
REMARK    6  A    between atoms: C_8  and  C_14
REMARK    7  A    between atoms: C_10  and  C_15
REMARK    8  A    between atoms: C_11  and  C_16
REMARK    9  A    between atoms: C_11  and  C_17
REMARK   10  A    between atoms: C_12  and  C_18
REMARK   11  A    between atoms: C_15  and  C_19
REMARK   12  A    between atoms: C_20  and  C_21
REMARK   13  A    between atoms: C_22  and  C_25
REMARK                            x       y       z     vdW  Elec       q    Type
REMARK                         _______ _______ _______ _____ _____    ______ ____
ROOT
ATOM      7  C   UNL     1      -3.445  -0.656  25.107  0.00  0.00    +0.000 C 
ATOM      8  C   UNL     1      -2.243   0.013  24.394  0.00  0.00    +0.030 C 
ATOM      9  C   UNL     1      -4.750  -0.359  24.354  0.00  0.00    +0.012 C 
ATOM     10  C   UNL     1      -5.027   1.152  24.243  0.00  0.00    +0.023 C 
ATOM     12  C   UNL     1      -3.799   1.919  23.799  0.00  0.00    -0.073 C 
ATOM     13  C   UNL     1      -2.565   1.390  23.861  0.00  0.00    -0.023 C 
ATOM     18  C   UNL     1      -4.028   3.296  23.237  0.00  0.00    +0.039 C 
ENDROOT
BRANCH   7  11
ATOM     11  C   UNL     1      -3.256  -2.171  25.240  0.00  0.00    -0.013 C 
ATOM     16  C   UNL     1      -4.154  -2.908  24.252  0.00  0.00    +0.007 C 
ATOM     17  C   UNL     1      -1.793  -2.545  25.026  0.00  0.00    +0.007 C 
ENDBRANCH   7  11
BRANCH   8  14
ATOM     14  C   UNL     1      -1.025   0.097  25.322  0.00  0.00    +0.113 C 
BRANCH  14   5
ATOM      5  N   UNL     1       0.178  -0.190  24.607  0.00  0.00    -0.194 NA
ATOM     30  H   UNL     1       0.920  -0.625  25.170  0.00  0.00    +0.148 HD
BRANCH   5   1
ATOM      1  S   UNL     1       0.741   0.882  23.371  0.00  0.00    +0.033 S 
ATOM      3  O   UNL     1       1.652   1.843  23.961  0.00  0.00    -0.158 OA
ATOM      4  O   UNL     1      -0.376   1.321  22.557  0.00  0.00    -0.158 OA
BRANCH   1  20
ATOM     20  C   UNL     1       1.699  -0.251  22.392  0.00  0.00    +0.220 C 
BRANCH  20  21
ATOM     21  C   UNL     1       3.099  -0.242  22.923  0.00  0.00    -0.025 A 
ATOM     23  C   UNL     1       3.896   0.894  22.771  0.00  0.00    +0.005 A 
ATOM     24  C   UNL     1       3.608  -1.369  23.570  0.00  0.00    +0.005 A 
ATOM     26  C   UNL     1       5.201   0.902  23.265  0.00  0.00    +0.000 A 
ATOM     27  C   UNL     1       4.912  -1.360  24.064  0.00  0.00    +0.000 A 
ATOM     28  C   UNL     1       5.708  -0.225  23.912  0.00  0.00    +0.000 A 
ENDBRANCH  20  21
ENDBRANCH   1  20
ENDBRANCH   5   1
ENDBRANCH  14   5
ENDBRANCH   8  14
BRANCH  10  15
ATOM     15  C   UNL     1      -5.576   1.710  25.562  0.00  0.00    +0.103 C 
BRANCH  15  19
ATOM      2  O   UNL     1      -5.845   4.113  25.665  0.00  0.00    -0.276 OA
ATOM      6  N   UNL     1      -3.795   3.165  26.216  0.00  0.00    -0.304 N 
ATOM     19  C   UNL     1      -5.122   3.131  25.810  0.00  0.00    +0.214 C 
ATOM     31  H   UNL     1      -3.287   2.291  26.322  0.00  0.00    +0.150 HD
BRANCH   6  22
ATOM     22  C   UNL     1      -3.096   4.390  26.523  0.00  0.00    +0.193 C 
BRANCH  22  25
ATOM     25  C   UNL     1      -1.928   4.561  25.660  0.00  0.00    -0.087 C 
ATOM     29  C   UNL     1      -0.968   4.704  24.952  0.00  0.00    +0.005 C 
ENDBRANCH  22  25
ENDBRANCH   6  22
ENDBRANCH  15  19
ENDBRANCH  10  15
TORSDOF 10
ENDMDL
MODEL 3
REMARK VINA RESULT:      -3.6      1.411      4.754
REMARK  Name = 38028604
REMARK  13 active torsions:
REMARK  status: ('A' for Active; 'I' for Inactive)
REMARK    1  A    between atoms: S_1  and  N_5
REMARK    2  A    between atoms: S_1  and  C_20
REMARK    3  A    between atoms: N_5  and  C_14
REMARK    4  A    between atoms: N_6  and  C_22
REMARK    5  A    between atoms: C_7  and  C_11
REMARK    6  A    between atoms: C_8  and  C_14
REMARK    7  A    between atoms: C_10  and  C_15
REMARK    8  A    between atoms: C_11  and  C_16
REMARK    9  A    between atoms: C_11  and  C_17
REMARK   10  A    between atoms: C_12  and  C_18
REMARK   11  A    between atoms: C_15  and  C_19
REMARK   12  A    between atoms: C_20  and  C_21
REMARK   13  A    between atoms: C_22  and  C_25
REMARK                            x       y       z     vdW  Elec       q    Type
REMARK                         _______ _______ _______ _____ _____    ______ ____
ROOT
ATOM      7  C   UNL     1      -2.094   3.557  24.957  0.00  0.00    +0.000 C 
ATOM      8  C   UNL     1      -3.224   3.856  23.940  0.00  0.00    +0.030 C 
ATOM      9  C   UNL     1      -0.818   3.115  24.226  0.00  0.00    +0.012 C 
ATOM     10  C   UNL     1      -1.045   1.858  23.366  0.00  0.00    +0.023 C 
ATOM     12  C   UNL     1      -2.300   1.970  22.526  0.00  0.00    -0.073 C 
ATOM     13  C   UNL     1      -3.257   2.878  22.789  0.00  0.00    -0.023 C 
ATOM     18  C   UNL     1      -2.411   1.044  21.347  0.00  0.00    +0.039 C 
ENDROOT
BRANCH   7  11
ATOM     11  C   UNL     1      -1.791   4.769  25.843  0.00  0.00    -0.013 C 
ATOM     16  C   UNL     1      -1.434   5.980  24.987  0.00  0.00    +0.007 C 
ATOM     17  C   UNL     1      -2.980   5.078  26.748  0.00  0.00    +0.007 C 
ENDBRANCH   7  11
BRANCH   8  14
ATOM     14  C   UNL     1      -4.594   3.883  24.627  0.00  0.00    +0.113 C 
BRANCH  14   5
ATOM      5  N   UNL     1      -5.380   2.755  24.236  0.00  0.00    -0.194 NA
ATOM     30  H   UNL     1      -6.125   2.964  23.558  0.00  0.00    +0.148 HD
BRANCH   5   1
ATOM      1  S   UNL     1      -5.769   1.518  25.381  0.00  0.00    +0.033 S 
ATOM      3  O   UNL     1      -6.424   0.426  24.688  0.00  0.00    -0.158 OA
ATOM      4  O   UNL     1      -6.365   2.112  26.562  0.00  0.00    -0.158 OA
BRANCH   1  20
ATOM     20  C   UNL     1      -4.133   0.981  25.824  0.00  0.00    +0.220 C 
BRANCH  20  21
ATOM     21  C   UNL     1      -3.949  -0.408  25.296  0.00  0.00    -0.025 A 
ATOM     23  C   UNL     1      -4.325  -0.711  23.986  0.00  0.00    +0.005 A 
ATOM     24  C   UNL     1      -3.404  -1.399  26.111  0.00  0.00    +0.005 A 
ATOM     26  C   UNL     1      -4.155  -2.005  23.493  0.00  0.00    +0.000 A 
ATOM     27  C   UNL     1      -3.234  -2.693  25.619  0.00  0.00    +0.000 A 
ATOM     28  C   UNL     1      -3.609  -2.996  24.310  0.00  0.00    +0.000 A 
ENDBRANCH  20  21
ENDBRANCH   1  20
ENDBRANCH   5   1
ENDBRANCH  14   5
ENDBRANCH   8  14
BRANCH  10  15
ATOM     15  C   UNL     1      -1.074   0.593  24.232  0.00  0.00    +0.103 C 
BRANCH  15  19
ATOM      2  O   UNL     1       0.164  -1.481  24.369  0.00  0.00    -0.276 OA
ATOM      6  N   UNL     1       0.926   0.218  22.977  0.00  0.00    -0.304 N 
ATOM     19  C   UNL     1       0.052  -0.356  23.891  0.00  0.00    +0.214 C 
ATOM     31  H   UNL     1       0.735   1.153  22.628  0.00  0.00    +0.150 HD
BRANCH   6  22
ATOM     22  C   UNL     1       2.096  -0.461  22.472  0.00  0.00    +0.193 C 
BRANCH  22  25
ATOM     25  C   UNL     1       3.303   0.334  22.692  0.00  0.00    -0.087 C 
ATOM     29  C   UNL     1       4.296   0.985  22.875  0.00  0.00    +0.005 C 
ENDBRANCH  22  25
ENDBRANCH   6  22
ENDBRANCH  15  19
ENDBRANCH  10  15
TORSDOF 10
ENDMDL
MODEL 4
REMARK VINA RESULT:      -3.2      1.552      2.803
REMARK  Name = 38028604
REMARK  13 active torsions:
REMARK  status: ('A' for Active; 'I' for Inactive)
REMARK    1  A    between atoms: S_1  and  N_5
REMARK    2  A    between atoms: S_1  and  C_20
REMARK    3  A    between atoms: N_5  and  C_14
REMARK    4  A    between atoms: N_6  and  C_22
REMARK    5  A    between atoms: C_7  and  C_11
REMARK    6  A    between atoms: C_8  and  C_14
REMARK    7  A    between atoms: C_10  and  C_15
REMARK    8  A    between atoms: C_11  and  C_16
REMARK    9  A    between atoms: C_11  and  C_17
REMARK   10  A    between atoms: C_12  and  C_18
REMARK   11  A    between atoms: C_15  and  C_19
REMARK   12  A    between atoms: C_20  and  C_21
REMARK   13  A    between atoms: C_22  and  C_25
REMARK                            x       y       z     vdW  Elec       q    Type
REMARK                         _______ _______ _______ _____ _____    ______ ____
ROOT
ATOM      7  C   UNL     1      -2.710   1.113  23.345  0.00  0.00    +0.000 C 
ATOM      8  C   UNL     1      -3.744   0.120  23.931  0.00  0.00    +0.030 C 
ATOM      9  C   UNL     1      -1.547   0.353  22.691  0.00  0.00    +0.012 C 
ATOM     10  C   UNL     1      -0.824  -0.574  23.686  0.00  0.00    +0.023 C 
ATOM     12  C   UNL     1      -1.800  -1.400  24.498  0.00  0.00    -0.073 C 
ATOM     13  C   UNL     1      -3.104  -1.082  24.585  0.00  0.00    -0.023 C 
ATOM     18  C   UNL     1      -1.252  -2.627  25.172  0.00  0.00    +0.039 C 
ENDROOT
BRANCH   7  11
ATOM     11  C   UNL     1      -3.348   2.063  22.325  0.00  0.00    -0.013 C 
ATOM     16  C   UNL     1      -3.491   3.461  22.918  0.00  0.00    +0.007 C 
ATOM     17  C   UNL     1      -2.522   2.099  21.044  0.00  0.00    +0.007 C 
ENDBRANCH   7  11
BRANCH   8  14
ATOM     14  C   UNL     1      -4.671   0.814  24.936  0.00  0.00    +0.113 C 
BRANCH  14   5
ATOM      5  N   UNL     1      -4.326   2.194  25.075  0.00  0.00    -0.194 NA
ATOM     30  H   UNL     1      -3.316   2.388  25.073  0.00  0.00    +0.148 HD
BRANCH   5   1
ATOM      1  S   UNL     1      -5.260   3.234  26.094  0.00  0.00    +0.033 S 
ATOM      3  O   UNL     1      -6.168   2.426  26.885  0.00  0.00    -0.158 OA
ATOM      4  O   UNL     1      -5.750   4.362  25.326  0.00  0.00    -0.158 OA
BRANCH   1  20
ATOM     20  C   UNL     1      -3.984   3.839  27.173  0.00  0.00    +0.220 C 
BRANCH  20  21
ATOM     21  C   UNL     1      -2.778   4.130  26.336  0.00  0.00    -0.025 A 
ATOM     23  C   UNL     1      -2.664   5.358  25.680  0.00  0.00    +0.005 A 
ATOM     24  C   UNL     1      -1.768   3.177  26.209  0.00  0.00    +0.005 A 
ATOM     26  C   UNL     1      -1.541   5.630  24.899  0.00  0.00    +0.000 A 
ATOM     27  C   UNL     1      -0.645   3.449  25.428  0.00  0.00    +0.000 A 
ATOM     28  C   UNL     1      -0.531   4.676  24.774  0.00  0.00    +0.000 A 
ENDBRANCH  20  21
ENDBRANCH   1  20
ENDBRANCH   5   1
ENDBRANCH  14   5
ENDBRANCH   8  14
BRANCH  10  15
ATOM     15  C   UNL     1       0.115   0.223  24.600  0.00  0.00    +0.103 C 
BRANCH  15  19
ATOM      2  O   UNL     1       1.431   2.101  23.826  0.00  0.00    -0.276 OA
ATOM      6  N   UNL     1       1.980  -0.048  23.127  0.00  0.00    -0.304 N 
ATOM     19  C   UNL     1       1.230   0.889  23.826  0.00  0.00    +0.214 C 
ATOM     31  H   UNL     1       1.741  -1.033  23.207  0.00  0.00    +0.150 HD
BRANCH   6  22
ATOM     22  C   UNL     1       3.109   0.304  22.300  0.00  0.00    +0.193 C 
BRANCH  22  25
ATOM     25  C   UNL     1       4.352   0.289  23.070  0.00  0.00    -0.087 C 
ATOM     29  C   UNL     1       5.373   0.273  23.703  0.00  0.00    +0.005 C 
ENDBRANCH  22  25
ENDBRANCH   6  22
ENDBRANCH  15  19
ENDBRANCH  10  15
TORSDOF 10
ENDMDL
MODEL 5
REMARK VINA RESULT:      -2.9      2.617      6.192
REMARK  Name = 38028604
REMARK  13 active torsions:
REMARK  status: ('A' for Active; 'I' for Inactive)
REMARK    1  A    between atoms: S_1  and  N_5
REMARK    2  A    between atoms: S_1  and  C_20
REMARK    3  A    between atoms: N_5  and  C_14
REMARK    4  A    between atoms: N_6  and  C_22
REMARK    5  A    between atoms: C_7  and  C_11
REMARK    6  A    between atoms: C_8  and  C_14
REMARK    7  A    between atoms: C_10  and  C_15
REMARK    8  A    between atoms: C_11  and  C_16
REMARK    9  A    between atoms: C_11  and  C_17
REMARK   10  A    between atoms: C_12  and  C_18
REMARK   11  A    between atoms: C_15  and  C_19
REMARK   12  A    between atoms: C_20  and  C_21
REMARK   13  A    between atoms: C_22  and  C_25
REMARK                            x       y       z     vdW  Elec       q    Type
REMARK                         _______ _______ _______ _____ _____    ______ ____
ROOT
ATOM      7  C   UNL     1      -3.911   0.429  24.880  0.00  0.00    +0.000 C 
ATOM      8  C   UNL     1      -3.513   0.718  23.411  0.00  0.00    +0.030 C 
ATOM      9  C   UNL     1      -5.099   1.309  25.297  0.00  0.00    +0.012 C 
ATOM     10  C   UNL     1      -4.788   2.811  25.162  0.00  0.00    +0.023 C 
ATOM     12  C   UNL     1      -4.141   3.135  23.831  0.00  0.00    -0.073 C 
ATOM     13  C   UNL     1      -3.588   2.185  23.056  0.00  0.00    -0.023 C 
ATOM     18  C   UNL     1      -4.183   4.572  23.389  0.00  0.00    +0.039 C 
ENDROOT
BRANCH   7  11
ATOM     11  C   UNL     1      -4.258  -1.047  25.095  0.00  0.00    -0.013 C 
ATOM     16  C   UNL     1      -4.347  -1.775  23.757  0.00  0.00    +0.007 C 
ATOM     17  C   UNL     1      -3.226  -1.709  26.004  0.00  0.00    +0.007 C 
ENDBRANCH   7  11
BRANCH   8  14
ATOM     14  C   UNL     1      -2.107   0.190  23.104  0.00  0.00    +0.113 C 
BRANCH  14   5
ATOM      5  N   UNL     1      -1.109   1.095  23.584  0.00  0.00    -0.194 NA
ATOM     30  H   UNL     1      -1.033   1.972  23.053  0.00  0.00    +0.148 HD
BRANCH   5   1
ATOM      1  S   UNL     1       0.387   0.497  24.213  0.00  0.00    +0.033 S 
ATOM      3  O   UNL     1       0.140  -0.751  24.909  0.00  0.00    -0.158 OA
ATOM      4  O   UNL     1       1.113   1.575  24.858  0.00  0.00    -0.158 OA
BRANCH   1  20
ATOM     20  C   UNL     1       1.233   0.119  22.696  0.00  0.00    +0.220 C 
BRANCH  20  21
ATOM     21  C   UNL     1       2.692  -0.010  23.007  0.00  0.00    -0.025 A 
ATOM     23  C   UNL     1       3.191  -1.205  23.527  0.00  0.00    +0.005 A 
ATOM     24  C   UNL     1       3.552   1.064  22.778  0.00  0.00    +0.005 A 
ATOM     26  C   UNL     1       4.550  -1.326  23.817  0.00  0.00    +0.000 A 
ATOM     27  C   UNL     1       4.911   0.943  23.068  0.00  0.00    +0.000 A 
ATOM     28  C   UNL     1       5.410  -0.251  23.587  0.00  0.00    +0.000 A 
ENDBRANCH  20  21
ENDBRANCH   1  20
ENDBRANCH   5   1
ENDBRANCH  14   5
ENDBRANCH   8  14
BRANCH  10  15
ATOM     15  C   UNL     1      -3.922   3.302  26.328  0.00  0.00    +0.103 C 
BRANCH  15  19
ATOM      2  O   UNL     1      -1.635   2.675  25.842  0.00  0.00    -0.276 OA
ATOM      6  N   UNL     1      -2.288   4.894  25.612  0.00  0.00    -0.304 N 
ATOM     19  C   UNL     1      -2.492   3.553  25.907  0.00  0.00    +0.214 C 
ATOM     31  H   UNL     1      -3.069   5.541  25.681  0.00  0.00    +0.150 HD
BRANCH   6  22
ATOM     22  C   UNL     1      -1.014   5.423  25.184  0.00  0.00    +0.193 C 
BRANCH  22  25
ATOM     25  C   UNL     1      -0.509   4.701  24.017  0.00  0.00    -0.087 C 
ATOM     29  C   UNL     1      -0.091   4.110  23.058  0.00  0.00    +0.005 C 
ENDBRANCH  22  25
ENDBRANCH   6  22
ENDBRANCH  15  19
ENDBRANCH  10  15
TORSDOF 10
ENDMDL
MODEL 6
REMARK VINA RESULT:      -2.7      2.615      6.059
REMARK  Name = 38028604
REMARK  13 active torsions:
REMARK  status: ('A' for Active; 'I' for Inactive)
REMARK    1  A    between atoms: S_1  and  N_5
REMARK    2  A    between atoms: S_1  and  C_20
REMARK    3  A    between atoms: N_5  and  C_14
REMARK    4  A    between atoms: N_6  and  C_22
REMARK    5  A    between atoms: C_7  and  C_11
REMARK    6  A    between atoms: C_8  and  C_14
REMARK    7  A    between atoms: C_10  and  C_15
REMARK    8  A    between atoms: C_11  and  C_16
REMARK    9  A    between atoms: C_11  and  C_17
REMARK   10  A    between atoms: C_12  and  C_18
REMARK   11  A    between atoms: C_15  and  C_19
REMARK   12  A    between atoms: C_20  and  C_21
REMARK   13  A    between atoms: C_22  and  C_25
REMARK                            x       y       z     vdW  Elec       q    Type
REMARK                         _______ _______ _______ _____ _____    ______ ____
ROOT
ATOM      7  C   UNL     1      -3.715   0.775  24.927  0.00  0.00    +0.000 C 
ATOM      8  C   UNL     1      -3.465   0.960  23.410  0.00  0.00    +0.030 C 
ATOM      9  C   UNL     1      -4.780   1.765  25.421  0.00  0.00    +0.012 C 
ATOM     10  C   UNL     1      -4.377   3.229  25.167  0.00  0.00    +0.023 C 
ATOM     12  C   UNL     1      -3.862   3.436  23.758  0.00  0.00    -0.073 C 
ATOM     13  C   UNL     1      -3.472   2.409  22.982  0.00  0.00    -0.023 C 
ATOM     18  C   UNL     1      -3.849   4.848  23.242  0.00  0.00    +0.039 C 
ENDROOT
BRANCH   7  11
ATOM     11  C   UNL     1      -4.142  -0.658  25.264  0.00  0.00    -0.013 C 
ATOM     16  C   UNL     1      -4.380  -1.456  23.986  0.00  0.00    +0.007 C 
ATOM     17  C   UNL     1      -3.092  -1.335  26.138  0.00  0.00    +0.007 C 
ENDBRANCH   7  11
BRANCH   8  14
ATOM     14  C   UNL     1      -2.145   0.308  22.982  0.00  0.00    +0.113 C 
BRANCH  14   5
ATOM      5  N   UNL     1      -1.050   1.207  23.171  0.00  0.00    -0.194 NA
ATOM     30  H   UNL     1      -0.908   1.879  22.406  0.00  0.00    +0.148 HD
BRANCH   5   1
ATOM      1  S   UNL     1       0.402   0.671  23.943  0.00  0.00    +0.033 S 
ATOM      3  O   UNL     1       0.091  -0.458  24.799  0.00  0.00    -0.158 OA
ATOM      4  O   UNL     1       1.134   1.811  24.458  0.00  0.00    -0.158 OA
BRANCH   1  20
ATOM     20  C   UNL     1       1.295   0.058  22.533  0.00  0.00    +0.220 C 
BRANCH  20  21
ATOM     21  C   UNL     1       2.731  -0.088  22.930  0.00  0.00    -0.025 A 
ATOM     23  C   UNL     1       3.618   0.974  22.744  0.00  0.00    +0.005 A 
ATOM     24  C   UNL     1       3.184  -1.285  23.486  0.00  0.00    +0.005 A 
ATOM     26  C   UNL     1       4.956   0.839  23.113  0.00  0.00    +0.000 A 
ATOM     27  C   UNL     1       4.522  -1.420  23.855  0.00  0.00    +0.000 A 
ATOM     28  C   UNL     1       5.408  -0.358  23.669  0.00  0.00    +0.000 A 
ENDBRANCH  20  21
ENDBRANCH   1  20
ENDBRANCH   5   1
ENDBRANCH  14   5
ENDBRANCH   8  14
BRANCH  10  15
ATOM     15  C   UNL     1      -3.351   3.706  26.202  0.00  0.00    +0.103 C 
BRANCH  15  19
ATOM      2  O   UNL     1      -1.497   3.743  24.647  0.00  0.00    -0.276 OA
ATOM      6  N   UNL     1      -1.199   2.825  26.761  0.00  0.00    -0.304 N 
ATOM     19  C   UNL     1      -1.930   3.444  25.756  0.00  0.00    +0.214 C 
ATOM     31  H   UNL     1      -1.647   2.634  27.654  0.00  0.00    +0.150 HD
BRANCH   6  22
ATOM     22  C   UNL     1       0.188   2.454  26.614  0.00  0.00    +0.193 C 
BRANCH  22  25
ATOM     25  C   UNL     1       0.885   2.497  27.898  0.00  0.00    -0.087 C 
ATOM     29  C   UNL     1       1.455   2.532  28.955  0.00  0.00    +0.005 C 
ENDBRANCH  22  25
ENDBRANCH   6  22
ENDBRANCH  15  19
ENDBRANCH  10  15
TORSDOF 10
ENDMDL
