MODEL 1
REMARK VINA RESULT:       1.4      0.000      0.000
REMARK  Name = 7134533
REMARK  11 active torsions:
REMARK  status: ('A' for Active; 'I' for Inactive)
REMARK    1  A    between atoms: O_1  and  C_12
REMARK    2  A    between atoms: O_2  and  C_15
REMARK    3  A    between atoms: O_3  and  C_17
REMARK    4  A    between atoms: O_7  and  C_34
REMARK    5  A    between atoms: N_8  and  C_13
REMARK    6  A    between atoms: N_9  and  C_19
REMARK    7  A    between atoms: N_10  and  C_26
REMARK    8  A    between atoms: C_12  and  C_18
REMARK    9  A    between atoms: C_26  and  C_27
REMARK   10  A    between atoms: C_26  and  C_28
REMARK   11  A    between atoms: C_27  and  C_29
REMARK                            x       y       z     vdW  Elec       q    Type
REMARK                         _______ _______ _______ _____ _____    ______ ____
ROOT
ATOM     12  C   UNL     1      -3.715  -0.048  25.012  0.00  0.00    +0.146 C 
ATOM     13  C   UNL     1      -1.529  -1.325  25.233  0.00  0.00    +0.109 C 
ATOM     14  C   UNL     1      -2.188   0.029  24.950  0.00  0.00    +0.069 C 
ATOM     15  C   UNL     1      -2.082  -2.431  24.325  0.00  0.00    +0.163 C 
ATOM     16  C   UNL     1      -4.253  -1.139  24.088  0.00  0.00    +0.078 C 
ATOM     17  C   UNL     1      -3.609  -2.499  24.367  0.00  0.00    +0.148 C 
ENDROOT
BRANCH  13   8
ATOM      5  O   UNL     1      -0.067  -1.171  22.762  0.00  0.00    -0.253 OA
ATOM      8  N   UNL     1      -0.094  -1.212  25.082  0.00  0.00    -0.294 N 
ATOM      9  N   UNL     1       1.909  -1.039  23.974  0.00  0.00    -0.297 N 
ATOM     25  C   UNL     1       0.527  -1.143  23.839  0.00  0.00    +0.300 C 
ATOM     35  H   UNL     1       0.488  -1.258  25.912  0.00  0.00    +0.151 HD
ATOM     39  H   UNL     1       2.301  -1.099  24.909  0.00  0.00    +0.151 HD
BRANCH   9  19
ATOM     19  C   UNL     1       2.810  -0.952  22.846  0.00  0.00    +0.074 C 
ATOM     20  C   UNL     1       2.947   0.496  22.362  0.00  0.00    +0.022 C 
ATOM     21  C   UNL     1       4.177  -1.556  23.183  0.00  0.00    +0.022 C 
ATOM     22  C   UNL     1       3.751   1.363  23.332  0.00  0.00    +0.002 C 
ATOM     23  C   UNL     1       4.978  -0.686  24.151  0.00  0.00    +0.002 C 
ATOM     24  C   UNL     1       5.111   0.746  23.643  0.00  0.00    +0.000 C 
ENDBRANCH   9  19
ENDBRANCH  13   8
BRANCH  12  18
ATOM      4  O   UNL     1      -5.380   1.657  25.160  0.00  0.00    -0.273 OA
ATOM     10  N   UNL     1      -3.579   1.964  23.718  0.00  0.00    -0.301 N 
ATOM     18  C   UNL     1      -4.325   1.276  24.659  0.00  0.00    +0.246 C 
ATOM     40  H   UNL     1      -2.769   1.523  23.296  0.00  0.00    +0.150 HD
BRANCH  10  26
ATOM     26  C   UNL     1      -3.964   3.254  23.194  0.00  0.00    +0.163 C 
BRANCH  26  28
ATOM      6  O   UNL     1      -4.356   3.900  20.883  0.00  0.00    -0.274 OA
ATOM     11  N   UNL     1      -2.711   2.360  21.329  0.00  0.00    -0.328 N 
ATOM     28  C   UNL     1      -3.732   3.214  21.689  0.00  0.00    +0.231 C 
ATOM     41  H   UNL     1      -2.443   2.252  20.357  0.00  0.00    +0.145 HD
ATOM     42  H   UNL     1      -2.202   1.802  22.007  0.00  0.00    +0.145 HD
ENDBRANCH  26  28
BRANCH  26  27
ATOM     27  C   UNL     1      -3.167   4.400  23.829  0.00  0.00    +0.067 C 
BRANCH  27  29
ATOM     29  C   UNL     1      -2.023   3.924  24.675  0.00  0.00    -0.045 A 
ATOM     30  C   UNL     1      -0.804   3.626  24.078  0.00  0.00    +0.007 A 
ATOM     31  C   UNL     1      -2.194   3.786  26.047  0.00  0.00    +0.007 A 
ATOM     32  C   UNL     1       0.259   3.182  24.864  0.00  0.00    +0.045 A 
ATOM     33  C   UNL     1      -1.131   3.342  26.834  0.00  0.00    +0.045 A 
ATOM     34  C   UNL     1       0.096   3.040  26.243  0.00  0.00    +0.117 A 
BRANCH  34   7
ATOM      7  O   UNL     1       1.134   2.609  27.009  0.00  0.00    -0.507 OA
ATOM     43  H   UNL     1       1.126   1.636  27.032  0.00  0.00    +0.292 HD
ENDBRANCH  34   7
ENDBRANCH  27  29
ENDBRANCH  26  27
ENDBRANCH  10  26
ENDBRANCH  12  18
BRANCH  12   1
ATOM      1  O   UNL     1      -4.146  -0.311  26.342  0.00  0.00    -0.379 OA
ATOM     36  H   UNL     1      -4.571   0.492  26.690  0.00  0.00    +0.211 HD
ENDBRANCH  12   1
BRANCH  15   2
ATOM      2  O   UNL     1      -1.580  -3.695  24.769  0.00  0.00    -0.387 OA
ATOM     37  H   UNL     1      -1.267  -4.180  23.987  0.00  0.00    +0.210 HD
ENDBRANCH  15   2
BRANCH  17   3
ATOM      3  O   UNL     1      -4.050  -3.428  23.377  0.00  0.00    -0.389 OA
ATOM     38  H   UNL     1      -3.448  -4.192  23.401  0.00  0.00    +0.210 HD
ENDBRANCH  17   3
TORSDOF 11
ENDMDL
MODEL 2
REMARK VINA RESULT:       2.2      1.701      2.261
REMARK  Name = 7134533
REMARK  11 active torsions:
REMARK  status: ('A' for Active; 'I' for Inactive)
REMARK    1  A    between atoms: O_1  and  C_12
REMARK    2  A    between atoms: O_2  and  C_15
REMARK    3  A    between atoms: O_3  and  C_17
REMARK    4  A    between atoms: O_7  and  C_34
REMARK    5  A    between atoms: N_8  and  C_13
REMARK    6  A    between atoms: N_9  and  C_19
REMARK    7  A    between atoms: N_10  and  C_26
REMARK    8  A    between atoms: C_12  and  C_18
REMARK    9  A    between atoms: C_26  and  C_27
REMARK   10  A    between atoms: C_26  and  C_28
REMARK   11  A    between atoms: C_27  and  C_29
REMARK                            x       y       z     vdW  Elec       q    Type
REMARK                         _______ _______ _______ _____ _____    ______ ____
ROOT
ATOM     12  C   UNL     1      -3.644  -0.551  25.466  0.00  0.00    +0.146 C 
ATOM     13  C   UNL     1      -1.165  -1.099  25.360  0.00  0.00    +0.109 C 
ATOM     14  C   UNL     1      -2.229  -0.000  25.276  0.00  0.00    +0.069 C 
ATOM     15  C   UNL     1      -1.461  -2.255  24.396  0.00  0.00    +0.163 C 
ATOM     16  C   UNL     1      -3.932  -1.686  24.487  0.00  0.00    +0.078 C 
ATOM     17  C   UNL     1      -2.882  -2.796  24.566  0.00  0.00    +0.148 C 
ENDROOT
BRANCH  13   8
ATOM      5  O   UNL     1       0.187  -1.012  22.824  0.00  0.00    -0.253 OA
ATOM      8  N   UNL     1       0.142  -0.536  25.095  0.00  0.00    -0.294 N 
ATOM      9  N   UNL     1       1.974   0.060  23.848  0.00  0.00    -0.297 N 
ATOM     25  C   UNL     1       0.718  -0.540  23.828  0.00  0.00    +0.300 C 
ATOM     35  H   UNL     1       0.691  -0.192  25.876  0.00  0.00    +0.151 HD
ATOM     39  H   UNL     1       2.349   0.351  24.745  0.00  0.00    +0.151 HD
BRANCH   9  19
ATOM     19  C   UNL     1       2.804   0.196  22.671  0.00  0.00    +0.074 C 
ATOM     20  C   UNL     1       3.754   1.392  22.801  0.00  0.00    +0.022 C 
ATOM     21  C   UNL     1       3.575  -1.098  22.387  0.00  0.00    +0.022 C 
ATOM     22  C   UNL     1       4.873   1.141  23.812  0.00  0.00    +0.002 C 
ATOM     23  C   UNL     1       4.694  -1.344  23.398  0.00  0.00    +0.002 C 
ATOM     24  C   UNL     1       5.633  -0.146  23.503  0.00  0.00    +0.000 C 
ENDBRANCH   9  19
ENDBRANCH  13   8
BRANCH  12  18
ATOM      4  O   UNL     1      -5.629   0.420  24.559  0.00  0.00    -0.273 OA
ATOM     10  N   UNL     1      -4.356   1.657  26.065  0.00  0.00    -0.301 N 
ATOM     18  C   UNL     1      -4.661   0.541  25.306  0.00  0.00    +0.246 C 
ATOM     40  H   UNL     1      -3.483   1.694  26.581  0.00  0.00    +0.150 HD
BRANCH  10  26
ATOM     26  C   UNL     1      -5.166   2.854  26.070  0.00  0.00    +0.163 C 
BRANCH  26  28
ATOM      6  O   UNL     1      -7.083   2.530  24.613  0.00  0.00    -0.274 OA
ATOM     11  N   UNL     1      -7.253   1.884  26.810  0.00  0.00    -0.328 N 
ATOM     28  C   UNL     1      -6.590   2.433  25.734  0.00  0.00    +0.231 C 
ATOM     41  H   UNL     1      -8.205   1.547  26.717  0.00  0.00    +0.145 HD
ATOM     42  H   UNL     1      -6.831   1.806  27.730  0.00  0.00    +0.145 HD
ENDBRANCH  26  28
BRANCH  26  27
ATOM     27  C   UNL     1      -4.664   3.900  25.066  0.00  0.00    +0.067 C 
BRANCH  27  29
ATOM     29  C   UNL     1      -3.231   3.694  24.668  0.00  0.00    -0.045 A 
ATOM     30  C   UNL     1      -2.931   2.901  23.567  0.00  0.00    +0.007 A 
ATOM     31  C   UNL     1      -2.220   4.298  25.405  0.00  0.00    +0.007 A 
ATOM     32  C   UNL     1      -1.600   2.709  23.198  0.00  0.00    +0.045 A 
ATOM     33  C   UNL     1      -0.889   4.106  25.036  0.00  0.00    +0.045 A 
ATOM     34  C   UNL     1      -0.578   3.312  23.932  0.00  0.00    +0.117 A 
BRANCH  34   7
ATOM      7  O   UNL     1       0.720   3.125  23.570  0.00  0.00    -0.507 OA
ATOM     43  H   UNL     1       0.765   3.010  22.605  0.00  0.00    +0.292 HD
ENDBRANCH  34   7
ENDBRANCH  27  29
ENDBRANCH  26  27
ENDBRANCH  10  26
ENDBRANCH  12  18
BRANCH  12   1
ATOM      1  O   UNL     1      -3.819  -1.026  26.795  0.00  0.00    -0.379 OA
ATOM     36  H   UNL     1      -3.948  -0.259  27.379  0.00  0.00    +0.211 HD
ENDBRANCH  12   1
BRANCH  15   2
ATOM      2  O   UNL     1      -0.555  -3.329  24.662  0.00  0.00    -0.387 OA
ATOM     37  H   UNL     1      -0.599  -3.947  23.913  0.00  0.00    +0.210 HD
ENDBRANCH  15   2
BRANCH  17   3
ATOM      3  O   UNL     1      -3.134  -3.744  23.529  0.00  0.00    -0.389 OA
ATOM     38  H   UNL     1      -3.926  -4.250  23.778  0.00  0.00    +0.210 HD
ENDBRANCH  17   3
TORSDOF 11
ENDMDL
MODEL 3
REMARK VINA RESULT:       2.3      1.825      4.631
REMARK  Name = 7134533
REMARK  11 active torsions:
REMARK  status: ('A' for Active; 'I' for Inactive)
REMARK    1  A    between atoms: O_1  and  C_12
REMARK    2  A    between atoms: O_2  and  C_15
REMARK    3  A    between atoms: O_3  and  C_17
REMARK    4  A    between atoms: O_7  and  C_34
REMARK    5  A    between atoms: N_8  and  C_13
REMARK    6  A    between atoms: N_9  and  C_19
REMARK    7  A    between atoms: N_10  and  C_26
REMARK    8  A    between atoms: C_12  and  C_18
REMARK    9  A    between atoms: C_26  and  C_27
REMARK   10  A    between atoms: C_26  and  C_28
REMARK   11  A    between atoms: C_27  and  C_29
REMARK                            x       y       z     vdW  Elec       q    Type
REMARK                         _______ _______ _______ _____ _____    ______ ____
ROOT
ATOM     12  C   UNL     1      -2.168   3.368  24.887  0.00  0.00    +0.146 C 
ATOM     13  C   UNL     1       0.067   2.171  24.705  0.00  0.00    +0.109 C 
ATOM     14  C   UNL     1      -1.399   2.202  24.262  0.00  0.00    +0.069 C 
ATOM     15  C   UNL     1       0.201   2.188  26.234  0.00  0.00    +0.163 C 
ATOM     16  C   UNL     1      -2.042   3.361  26.409  0.00  0.00    +0.078 C 
ATOM     17  C   UNL     1      -0.582   3.340  26.866  0.00  0.00    +0.148 C 
ENDROOT
BRANCH  13   8
ATOM      5  O   UNL     1       2.566   2.118  23.286  0.00  0.00    -0.253 OA
ATOM      8  N   UNL     1       0.722   1.006  24.150  0.00  0.00    -0.294 N 
ATOM      9  N   UNL     1       2.345  -0.181  23.044  0.00  0.00    -0.297 N 
ATOM     25  C   UNL     1       1.937   1.078  23.475  0.00  0.00    +0.300 C 
ATOM     35  H   UNL     1       0.242   0.113  24.189  0.00  0.00    +0.151 HD
ATOM     39  H   UNL     1       1.714  -0.962  23.190  0.00  0.00    +0.151 HD
BRANCH   9  19
ATOM     19  C   UNL     1       3.574  -0.406  22.314  0.00  0.00    +0.074 C 
ATOM     20  C   UNL     1       4.506   0.806  22.417  0.00  0.00    +0.022 C 
ATOM     21  C   UNL     1       4.272  -1.685  22.790  0.00  0.00    +0.022 C 
ATOM     22  C   UNL     1       5.121   0.954  23.809  0.00  0.00    +0.002 C 
ATOM     23  C   UNL     1       4.886  -1.532  24.180  0.00  0.00    +0.002 C 
ATOM     24  C   UNL     1       5.818  -0.327  24.255  0.00  0.00    +0.000 C 
ENDBRANCH   9  19
ENDBRANCH  13   8
BRANCH  12  18
ATOM      4  O   UNL     1      -4.132   4.224  23.833  0.00  0.00    -0.273 OA
ATOM     10  N   UNL     1      -4.253   2.188  24.956  0.00  0.00    -0.301 N 
ATOM     18  C   UNL     1      -3.613   3.323  24.487  0.00  0.00    +0.246 C 
ATOM     40  H   UNL     1      -3.758   1.546  25.566  0.00  0.00    +0.150 HD
BRANCH  10  26
ATOM     26  C   UNL     1      -5.653   1.919  24.726  0.00  0.00    +0.163 C 
BRANCH  26  28
ATOM      6  O   UNL     1      -6.955   1.847  26.777  0.00  0.00    -0.274 OA
ATOM     11  N   UNL     1      -6.415   3.896  25.890  0.00  0.00    -0.328 N 
ATOM     28  C   UNL     1      -6.422   2.517  25.896  0.00  0.00    +0.231 C 
ATOM     41  H   UNL     1      -6.879   4.421  26.624  0.00  0.00    +0.145 HD
ATOM     42  H   UNL     1      -5.968   4.436  25.158  0.00  0.00    +0.145 HD
ENDBRANCH  26  28
BRANCH  26  27
ATOM     27  C   UNL     1      -5.944   0.417  24.605  0.00  0.00    +0.067 C 
BRANCH  27  29
ATOM     29  C   UNL     1      -4.710  -0.432  24.711  0.00  0.00    -0.045 A 
ATOM     30  C   UNL     1      -4.481  -1.431  23.773  0.00  0.00    +0.007 A 
ATOM     31  C   UNL     1      -3.811  -0.209  25.747  0.00  0.00    +0.007 A 
ATOM     32  C   UNL     1      -3.335  -2.220  23.872  0.00  0.00    +0.045 A 
ATOM     33  C   UNL     1      -2.665  -0.998  25.846  0.00  0.00    +0.045 A 
ATOM     34  C   UNL     1      -2.427  -2.004  24.909  0.00  0.00    +0.117 A 
BRANCH  34   7
ATOM      7  O   UNL     1      -1.308  -2.773  25.004  0.00  0.00    -0.507 OA
ATOM     43  H   UNL     1      -0.826  -2.734  24.161  0.00  0.00    +0.292 HD
ENDBRANCH  34   7
ENDBRANCH  27  29
ENDBRANCH  26  27
ENDBRANCH  10  26
ENDBRANCH  12  18
BRANCH  12   1
ATOM      1  O   UNL     1      -1.684   4.608  24.385  0.00  0.00    -0.379 OA
ATOM     36  H   UNL     1      -1.323   5.118  25.130  0.00  0.00    +0.211 HD
ENDBRANCH  12   1
BRANCH  15   2
ATOM      2  O   UNL     1       1.578   2.361  26.580  0.00  0.00    -0.387 OA
ATOM     37  H   UNL     1       1.903   1.517  26.935  0.00  0.00    +0.210 HD
ENDBRANCH  15   2
BRANCH  17   3
ATOM      3  O   UNL     1      -0.547   3.188  28.285  0.00  0.00    -0.389 OA
ATOM     38  H   UNL     1      -0.604   4.075  28.679  0.00  0.00    +0.210 HD
ENDBRANCH  17   3
TORSDOF 11
ENDMDL
MODEL 4
REMARK VINA RESULT:       3.7      2.105      4.854
REMARK  Name = 7134533
REMARK  11 active torsions:
REMARK  status: ('A' for Active; 'I' for Inactive)
REMARK    1  A    between atoms: O_1  and  C_12
REMARK    2  A    between atoms: O_2  and  C_15
REMARK    3  A    between atoms: O_3  and  C_17
REMARK    4  A    between atoms: O_7  and  C_34
REMARK    5  A    between atoms: N_8  and  C_13
REMARK    6  A    between atoms: N_9  and  C_19
REMARK    7  A    between atoms: N_10  and  C_26
REMARK    8  A    between atoms: C_12  and  C_18
REMARK    9  A    between atoms: C_26  and  C_27
REMARK   10  A    between atoms: C_26  and  C_28
REMARK   11  A    between atoms: C_27  and  C_29
REMARK                            x       y       z     vdW  Elec       q    Type
REMARK                         _______ _______ _______ _____ _____    ______ ____
ROOT
ATOM     12  C   UNL     1      -2.992   3.183  24.472  0.00  0.00    +0.146 C 
ATOM     13  C   UNL     1      -0.493   3.132  24.012  0.00  0.00    +0.109 C 
ATOM     14  C   UNL     1      -1.701   2.367  24.562  0.00  0.00    +0.069 C 
ATOM     15  C   UNL     1      -0.343   4.511  24.669  0.00  0.00    +0.163 C 
ATOM     16  C   UNL     1      -2.835   4.543  25.147  0.00  0.00    +0.078 C 
ATOM     17  C   UNL     1      -1.637   5.324  24.600  0.00  0.00    +0.148 C 
ENDROOT
BRANCH  13   8
ATOM      5  O   UNL     1       0.342   0.873  22.442  0.00  0.00    -0.253 OA
ATOM      8  N   UNL     1       0.709   2.347  24.195  0.00  0.00    -0.294 N 
ATOM      9  N   UNL     1       2.236   0.687  23.772  0.00  0.00    -0.297 N 
ATOM     25  C   UNL     1       1.031   1.266  23.382  0.00  0.00    +0.300 C 
ATOM     35  H   UNL     1       1.303   2.547  24.993  0.00  0.00    +0.151 HD
ATOM     39  H   UNL     1       2.687   1.045  24.607  0.00  0.00    +0.151 HD
BRANCH   9  19
ATOM     19  C   UNL     1       2.816  -0.457  23.103  0.00  0.00    +0.074 C 
ATOM     20  C   UNL     1       3.554  -0.034  21.828  0.00  0.00    +0.022 C 
ATOM     21  C   UNL     1       3.739  -1.237  24.046  0.00  0.00    +0.022 C 
ATOM     22  C   UNL     1       4.857   0.710  22.127  0.00  0.00    +0.002 C 
ATOM     23  C   UNL     1       5.040  -0.491  24.340  0.00  0.00    +0.002 C 
ATOM     24  C   UNL     1       5.762  -0.091  23.058  0.00  0.00    +0.000 C 
ENDBRANCH   9  19
ENDBRANCH  13   8
BRANCH  12  18
ATOM      4  O   UNL     1      -4.764   2.874  26.042  0.00  0.00    -0.273 OA
ATOM     10  N   UNL     1      -4.358   1.214  24.461  0.00  0.00    -0.301 N 
ATOM     18  C   UNL     1      -4.136   2.431  25.084  0.00  0.00    +0.246 C 
ATOM     40  H   UNL     1      -3.725   0.897  23.735  0.00  0.00    +0.150 HD
BRANCH  10  26
ATOM     26  C   UNL     1      -5.388   0.290  24.876  0.00  0.00    +0.163 C 
BRANCH  26  28
ATOM      6  O   UNL     1      -6.621   1.134  26.794  0.00  0.00    -0.274 OA
ATOM     11  N   UNL     1      -7.223   1.853  24.698  0.00  0.00    -0.328 N 
ATOM     28  C   UNL     1      -6.467   1.106  25.575  0.00  0.00    +0.231 C 
ATOM     41  H   UNL     1      -7.967   2.455  25.035  0.00  0.00    +0.145 HD
ATOM     42  H   UNL     1      -7.082   1.824  23.693  0.00  0.00    +0.145 HD
ENDBRANCH  26  28
BRANCH  26  27
ATOM     27  C   UNL     1      -4.849  -0.799  25.812  0.00  0.00    +0.067 C 
BRANCH  27  29
ATOM     29  C   UNL     1      -3.396  -1.102  25.587  0.00  0.00    -0.045 A 
ATOM     30  C   UNL     1      -2.433  -0.470  26.365  0.00  0.00    +0.007 A 
ATOM     31  C   UNL     1      -3.028  -2.013  24.603  0.00  0.00    +0.007 A 
ATOM     32  C   UNL     1      -1.083  -0.751  26.156  0.00  0.00    +0.045 A 
ATOM     33  C   UNL     1      -1.679  -2.294  24.394  0.00  0.00    +0.045 A 
ATOM     34  C   UNL     1      -0.706  -1.664  25.170  0.00  0.00    +0.117 A 
BRANCH  34   7
ATOM      7  O   UNL     1       0.612  -1.938  24.967  0.00  0.00    -0.507 OA
ATOM     43  H   UNL     1       1.109  -1.711  25.772  0.00  0.00    +0.292 HD
ENDBRANCH  34   7
ENDBRANCH  27  29
ENDBRANCH  26  27
ENDBRANCH  10  26
ENDBRANCH  12  18
BRANCH  12   1
ATOM      1  O   UNL     1      -3.363   3.378  23.113  0.00  0.00    -0.379 OA
ATOM     36  H   UNL     1      -3.526   2.506  22.713  0.00  0.00    +0.211 HD
ENDBRANCH  12   1
BRANCH  15   2
ATOM      2  O   UNL     1       0.668   5.250  23.978  0.00  0.00    -0.387 OA
ATOM     37  H   UNL     1       1.528   5.002  24.360  0.00  0.00    +0.210 HD
ENDBRANCH  15   2
BRANCH  17   3
ATOM      3  O   UNL     1      -1.469   6.511  25.375  0.00  0.00    -0.389 OA
ATOM     38  H   UNL     1      -2.302   7.011  25.334  0.00  0.00    +0.210 HD
ENDBRANCH  17   3
TORSDOF 11
ENDMDL
