MODEL 1
REMARK VINA RESULT:      -4.7      0.000      0.000
REMARK  Name = 75536973
REMARK  5 active torsions:
REMARK  status: ('A' for Active; 'I' for Inactive)
REMARK    1  A    between atoms: O_3  and  C_17
REMARK    2  A    between atoms: O_3  and  C_22
REMARK    3  A    between atoms: N_5  and  C_14
REMARK    4  A    between atoms: C_14  and  C_16
REMARK    5  A    between atoms: C_15  and  C_17
REMARK                            x       y       z     vdW  Elec       q    Type
REMARK                         _______ _______ _______ _____ _____    ______ ____
ROOT
ATOM      1  O   UNL     1      -2.796 -10.663  15.113  0.00  0.00    -0.252 OA
ATOM      2  O   UNL     1      -8.890  -9.643  18.317  0.00  0.00    -0.273 OA
ATOM      4  N   UNL     1      -5.070 -10.148  15.402  0.00  0.00    -0.278 N 
ATOM      5  N   UNL     1      -4.307 -10.468  13.312  0.00  0.00    -0.279 N 
ATOM      6  N   UNL     1      -7.624 -10.325  16.495  0.00  0.00    -0.296 N 
ATOM      8  C   UNL     1      -6.205  -9.843  14.547  0.00  0.00    +0.112 C 
ATOM      9  C   UNL     1      -5.737 -10.269  13.158  0.00  0.00    +0.133 C 
ATOM     10  C   UNL     1      -7.456 -10.561  15.048  0.00  0.00    +0.132 C 
ATOM     11  C   UNL     1      -5.197 -10.016  16.842  0.00  0.00    +0.128 C 
ATOM     12  C   UNL     1      -6.468 -10.715  17.318  0.00  0.00    +0.127 C 
ATOM     13  C   UNL     1      -3.916 -10.450  14.666  0.00  0.00    +0.306 C 
ATOM     15  C   UNL     1      -8.766  -9.806  17.101  0.00  0.00    +0.241 C 
ENDROOT
BRANCH   5  14
ATOM     14  C   UNL     1      -3.451 -10.781  12.189  0.00  0.00    +0.146 C 
BRANCH  14  16
ATOM      7  N   UNL     1      -5.710 -10.353   9.188  0.00  0.00    -0.263 NA
ATOM     16  C   UNL     1      -4.004 -10.254  10.897  0.00  0.00    -0.012 A 
ATOM     18  C   UNL     1      -3.369  -9.222  10.215  0.00  0.00    +0.008 A 
ATOM     19  C   UNL     1      -5.161 -10.781  10.347  0.00  0.00    +0.115 A 
ATOM     20  C   UNL     1      -3.904  -8.756   9.020  0.00  0.00    +0.020 A 
ATOM     21  C   UNL     1      -5.066  -9.349   8.553  0.00  0.00    +0.111 A 
ENDBRANCH  14  16
ENDBRANCH   5  14
BRANCH  15  17
ATOM     17  C   UNL     1      -9.902  -9.429  16.185  0.00  0.00    +0.255 C 
BRANCH  17   3
ATOM      3  O   UNL     1      -9.694  -8.088  15.817  0.00  0.00    -0.374 OA
ATOM     22  C   UNL     1     -10.562  -7.198  16.518  0.00  0.00    +0.194 C 
ENDBRANCH  17   3
ENDBRANCH  15  17
TORSDOF 4
ENDMDL
MODEL 2
REMARK VINA RESULT:      -4.0     14.856     16.527
REMARK  Name = 75536973
REMARK  5 active torsions:
REMARK  status: ('A' for Active; 'I' for Inactive)
REMARK    1  A    between atoms: O_3  and  C_17
REMARK    2  A    between atoms: O_3  and  C_22
REMARK    3  A    between atoms: N_5  and  C_14
REMARK    4  A    between atoms: C_14  and  C_16
REMARK    5  A    between atoms: C_15  and  C_17
REMARK                            x       y       z     vdW  Elec       q    Type
REMARK                         _______ _______ _______ _____ _____    ______ ____
ROOT
ATOM      1  O   UNL     1      -0.331  -2.108  24.188  0.00  0.00    -0.252 OA
ATOM      2  O   UNL     1      -4.874   2.789  26.144  0.00  0.00    -0.273 OA
ATOM      4  N   UNL     1      -1.263   0.024  24.512  0.00  0.00    -0.278 N 
ATOM      5  N   UNL     1       0.515  -0.166  23.151  0.00  0.00    -0.279 N 
ATOM      6  N   UNL     1      -3.264   1.951  24.697  0.00  0.00    -0.296 N 
ATOM      8  C   UNL     1      -0.936   1.391  24.145  0.00  0.00    +0.112 C 
ATOM      9  C   UNL     1       0.128   1.231  23.062  0.00  0.00    +0.133 C 
ATOM     10  C   UNL     1      -2.191   2.139  23.702  0.00  0.00    +0.132 C 
ATOM     11  C   UNL     1      -2.363  -0.233  25.424  0.00  0.00    +0.128 C 
ATOM     12  C   UNL     1      -3.599   0.546  24.979  0.00  0.00    +0.127 C 
ATOM     13  C   UNL     1      -0.355  -0.902  23.980  0.00  0.00    +0.306 C 
ATOM     15  C   UNL     1      -3.963   2.974  25.334  0.00  0.00    +0.241 C 
ENDROOT
BRANCH   5  14
ATOM     14  C   UNL     1       1.590  -0.716  22.355  0.00  0.00    +0.146 C 
BRANCH  14  16
ATOM      7  N   UNL     1       4.670   1.302  23.214  0.00  0.00    -0.263 NA
ATOM     16  C   UNL     1       2.939  -0.357  22.908  0.00  0.00    -0.012 A 
ATOM     18  C   UNL     1       3.700  -1.291  23.601  0.00  0.00    +0.008 A 
ATOM     19  C   UNL     1       3.464   0.915  22.743  0.00  0.00    +0.115 A 
ATOM     20  C   UNL     1       4.947  -0.929  24.100  0.00  0.00    +0.020 A 
ATOM     21  C   UNL     1       5.383   0.367  23.882  0.00  0.00    +0.111 A 
ENDBRANCH  14  16
ENDBRANCH   5  14
BRANCH  15  17
ATOM     17  C   UNL     1      -3.554   4.384  24.990  0.00  0.00    +0.255 C 
BRANCH  17   3
ATOM      3  O   UNL     1      -2.466   4.701  25.823  0.00  0.00    -0.374 OA
ATOM     22  C   UNL     1      -1.372   5.253  25.090  0.00  0.00    +0.194 C 
ENDBRANCH  17   3
ENDBRANCH  15  17
TORSDOF 4
ENDMDL
MODEL 3
REMARK VINA RESULT:      -3.8     14.865     16.519
REMARK  Name = 75536973
REMARK  5 active torsions:
REMARK  status: ('A' for Active; 'I' for Inactive)
REMARK    1  A    between atoms: O_3  and  C_17
REMARK    2  A    between atoms: O_3  and  C_22
REMARK    3  A    between atoms: N_5  and  C_14
REMARK    4  A    between atoms: C_14  and  C_16
REMARK    5  A    between atoms: C_15  and  C_17
REMARK                            x       y       z     vdW  Elec       q    Type
REMARK                         _______ _______ _______ _____ _____    ______ ____
ROOT
ATOM      1  O   UNL     1      -0.303  -2.067  24.139  0.00  0.00    -0.252 OA
ATOM      2  O   UNL     1      -4.811   2.830  26.174  0.00  0.00    -0.273 OA
ATOM      4  N   UNL     1      -1.225   0.066  24.487  0.00  0.00    -0.278 N 
ATOM      5  N   UNL     1       0.538  -0.121  23.106  0.00  0.00    -0.279 N 
ATOM      6  N   UNL     1      -3.219   1.997  24.705  0.00  0.00    -0.296 N 
ATOM      8  C   UNL     1      -0.898   1.434  24.124  0.00  0.00    +0.112 C 
ATOM      9  C   UNL     1       0.154   1.278  23.029  0.00  0.00    +0.133 C 
ATOM     10  C   UNL     1      -2.156   2.188  23.700  0.00  0.00    +0.132 C 
ATOM     11  C   UNL     1      -2.317  -0.194  25.408  0.00  0.00    +0.128 C 
ATOM     12  C   UNL     1      -3.554   0.591  24.982  0.00  0.00    +0.127 C 
ATOM     13  C   UNL     1      -0.326  -0.859  23.939  0.00  0.00    +0.306 C 
ATOM     15  C   UNL     1      -3.907   3.018  25.355  0.00  0.00    +0.241 C 
ENDROOT
BRANCH   5  14
ATOM     14  C   UNL     1       1.603  -0.669  22.295  0.00  0.00    +0.146 C 
BRANCH  14  16
ATOM      7  N   UNL     1       4.866  -1.137  24.148  0.00  0.00    -0.263 NA
ATOM     16  C   UNL     1       2.957  -0.377  22.874  0.00  0.00    -0.012 A 
ATOM     18  C   UNL     1       3.557   0.865  22.701  0.00  0.00    +0.008 A 
ATOM     19  C   UNL     1       3.646  -1.336  23.599  0.00  0.00    +0.115 A 
ATOM     20  C   UNL     1       4.811   1.106  23.250  0.00  0.00    +0.020 A 
ATOM     21  C   UNL     1       5.418   0.082  23.958  0.00  0.00    +0.111 A 
ENDBRANCH  14  16
ENDBRANCH   5  14
BRANCH  15  17
ATOM     17  C   UNL     1      -3.498   4.429  25.017  0.00  0.00    +0.255 C 
BRANCH  17   3
ATOM      3  O   UNL     1      -2.379   4.725  25.814  0.00  0.00    -0.374 OA
ATOM     22  C   UNL     1      -1.305   5.272  25.050  0.00  0.00    +0.194 C 
ENDBRANCH  17   3
ENDBRANCH  15  17
TORSDOF 4
ENDMDL
MODEL 4
REMARK VINA RESULT:      -1.8      3.162      7.045
REMARK  Name = 75536973
REMARK  5 active torsions:
REMARK  status: ('A' for Active; 'I' for Inactive)
REMARK    1  A    between atoms: O_3  and  C_17
REMARK    2  A    between atoms: O_3  and  C_22
REMARK    3  A    between atoms: N_5  and  C_14
REMARK    4  A    between atoms: C_14  and  C_16
REMARK    5  A    between atoms: C_15  and  C_17
REMARK                            x       y       z     vdW  Elec       q    Type
REMARK                         _______ _______ _______ _____ _____    ______ ____
ROOT
ATOM      1  O   UNL     1     -10.266  -8.103  16.341  0.00  0.00    -0.252 OA
ATOM      2  O   UNL     1      -9.894  -9.145   9.469  0.00  0.00    -0.273 OA
ATOM      4  N   UNL     1      -9.488  -8.917  14.278  0.00  0.00    -0.278 N 
ATOM      5  N   UNL     1      -8.687  -9.846  16.161  0.00  0.00    -0.279 N 
ATOM      6  N   UNL     1      -9.651  -9.860  11.665  0.00  0.00    -0.296 N 
ATOM      8  C   UNL     1      -8.474  -9.852  13.822  0.00  0.00    +0.112 C 
ATOM      9  C   UNL     1      -8.096 -10.622  15.085  0.00  0.00    +0.133 C 
ATOM     10  C   UNL     1      -9.019 -10.716  12.687  0.00  0.00    +0.132 C 
ATOM     11  C   UNL     1     -10.206  -8.104  13.313  0.00  0.00    +0.128 C 
ATOM     12  C   UNL     1     -10.716  -8.982  12.173  0.00  0.00    +0.127 C 
ATOM     13  C   UNL     1      -9.566  -8.857  15.676  0.00  0.00    +0.306 C 
ATOM     15  C   UNL     1      -9.332  -9.854  10.308  0.00  0.00    +0.241 C 
ENDROOT
BRANCH   5  14
ATOM     14  C   UNL     1      -8.473 -10.179  17.553  0.00  0.00    +0.146 C 
BRANCH  14  16
ATOM      7  N   UNL     1      -5.293 -10.761  19.513  0.00  0.00    -0.263 NA
ATOM     16  C   UNL     1      -7.019 -10.392  17.862  0.00  0.00    -0.012 A 
ATOM     18  C   UNL     1      -6.068 -10.418  16.850  0.00  0.00    +0.008 A 
ATOM     19  C   UNL     1      -6.585 -10.567  19.166  0.00  0.00    +0.115 A 
ATOM     20  C   UNL     1      -4.729 -10.615  17.167  0.00  0.00    +0.020 A 
ATOM     21  C   UNL     1      -4.396 -10.781  18.501  0.00  0.00    +0.111 A 
ENDBRANCH  14  16
ENDBRANCH   5  14
BRANCH  15  17
ATOM     17  C   UNL     1      -8.226 -10.780   9.872  0.00  0.00    +0.255 C 
BRANCH  17   3
ATOM      3  O   UNL     1      -7.141  -9.965   9.502  0.00  0.00    -0.374 OA
ATOM     22  C   UNL     1      -6.294  -9.663  10.611  0.00  0.00    +0.194 C 
ENDBRANCH  17   3
ENDBRANCH  15  17
TORSDOF 4
ENDMDL
