MODEL 1
REMARK VINA RESULT:      -1.6      0.000      0.000
REMARK  Name = 28963210
REMARK  9 active torsions:
REMARK  status: ('A' for Active; 'I' for Inactive)
REMARK    1  A    between atoms: S_1  and  N_6
REMARK    2  A    between atoms: S_1  and  C_25
REMARK    3  A    between atoms: O_2  and  C_11
REMARK    4  A    between atoms: N_6  and  C_15
REMARK    5  A    between atoms: C_8  and  C_18
REMARK    6  A    between atoms: C_10  and  C_20
REMARK    7  A    between atoms: C_13  and  C_19
REMARK    8  A    between atoms: C_19  and  C_21
REMARK    9  A    between atoms: C_19  and  C_22
REMARK                            x       y       z     vdW  Elec       q    Type
REMARK                         _______ _______ _______ _____ _____    ______ ____
ROOT
ATOM      8  C   UNL     1      -2.035  -1.160  25.190  0.00  0.00    -0.027 C 
ATOM      9  C   UNL     1      -1.734   0.035  24.225  0.00  0.00    +0.028 C 
ATOM     10  C   UNL     1      -0.189   0.321  24.153  0.00  0.00    +0.011 C 
ATOM     11  C   UNL     1      -2.628   1.265  24.557  0.00  0.00    +0.122 C 
ATOM     12  C   UNL     1      -3.547  -1.487  25.152  0.00  0.00    +0.007 C 
ATOM     13  C   UNL     1      -4.131   0.910  24.622  0.00  0.00    +0.029 C 
ATOM     14  C   UNL     1      -1.272  -2.411  24.697  0.00  0.00    +0.008 C 
ATOM     15  C   UNL     1       0.570  -0.966  23.729  0.00  0.00    +0.079 C 
ATOM     16  C   UNL     1      -4.422  -0.294  25.517  0.00  0.00    +0.007 C 
ATOM     17  C   UNL     1       0.229  -2.187  24.581  0.00  0.00    +0.021 C 
ATOM     18  C   UNL     1      -1.627  -0.858  26.655  0.00  0.00    +0.011 C 
ATOM     20  C   UNL     1       0.176   1.470  23.199  0.00  0.00    +0.009 C 
ENDROOT
BRANCH  11   2
ATOM      2  O   UNL     1      -2.485   2.248  23.530  0.00  0.00    -0.391 OA
ATOM     30  H   UNL     1      -2.101   1.815  22.748  0.00  0.00    +0.210 HD
ENDBRANCH  11   2
BRANCH  15   6
ATOM      6  N   UNL     1       2.041  -0.764  23.832  0.00  0.00    -0.191 NA
ATOM     29  H   UNL     1       2.576  -1.417  24.414  0.00  0.00    +0.148 HD
BRANCH   6   1
ATOM      1  S   UNL     1       2.812   0.223  22.682  0.00  0.00    +0.027 S 
ATOM      4  O   UNL     1       2.753   1.611  23.096  0.00  0.00    -0.158 OA
ATOM      5  O   UNL     1       2.356  -0.179  21.366  0.00  0.00    -0.158 OA
ATOM     25  C   UNL     1       4.496  -0.327  22.850  0.00  0.00    +0.214 C 
ENDBRANCH   6   1
ENDBRANCH  15   6
BRANCH  13  19
ATOM     19  C   UNL     1      -4.979   2.104  25.079  0.00  0.00    +0.078 C 
ATOM     21  C   UNL     1      -6.429   1.937  24.661  0.00  0.00    +0.017 C 
BRANCH  19  22
ATOM      3  O   UNL     1      -4.879   3.790  23.417  0.00  0.00    -0.275 OA
ATOM      7  N   UNL     1      -3.358   3.967  25.165  0.00  0.00    -0.301 N 
ATOM     22  C   UNL     1      -4.407   3.362  24.473  0.00  0.00    +0.219 C 
ATOM     23  C   UNL     1      -2.749   5.190  24.639  0.00  0.00    +0.108 C 
ATOM     24  C   UNL     1      -2.806   3.505  26.444  0.00  0.00    +0.108 C 
ATOM     26  C   UNL     1      -1.237   5.032  24.504  0.00  0.00    +0.019 C 
ATOM     27  C   UNL     1      -1.294   3.315  26.345  0.00  0.00    +0.019 C 
ATOM     28  C   UNL     1      -0.609   4.577  25.821  0.00  0.00    +0.003 C 
ENDBRANCH  19  22
ENDBRANCH  13  19
TORSDOF 5
ENDMDL
MODEL 2
REMARK VINA RESULT:       0.2      2.540      6.813
REMARK  Name = 28963210
REMARK  9 active torsions:
REMARK  status: ('A' for Active; 'I' for Inactive)
REMARK    1  A    between atoms: S_1  and  N_6
REMARK    2  A    between atoms: S_1  and  C_25
REMARK    3  A    between atoms: O_2  and  C_11
REMARK    4  A    between atoms: N_6  and  C_15
REMARK    5  A    between atoms: C_8  and  C_18
REMARK    6  A    between atoms: C_10  and  C_20
REMARK    7  A    between atoms: C_13  and  C_19
REMARK    8  A    between atoms: C_19  and  C_21
REMARK    9  A    between atoms: C_19  and  C_22
REMARK                            x       y       z     vdW  Elec       q    Type
REMARK                         _______ _______ _______ _____ _____    ______ ____
ROOT
ATOM      8  C   UNL     1      -0.940   3.420  25.232  0.00  0.00    -0.027 C 
ATOM      9  C   UNL     1      -1.501   2.762  23.927  0.00  0.00    +0.028 C 
ATOM     10  C   UNL     1      -3.072   2.814  23.903  0.00  0.00    +0.011 C 
ATOM     11  C   UNL     1      -0.873   1.357  23.691  0.00  0.00    +0.122 C 
ATOM     12  C   UNL     1       0.605   3.454  25.172  0.00  0.00    +0.007 C 
ATOM     13  C   UNL     1       0.672   1.379  23.738  0.00  0.00    +0.029 C 
ATOM     14  C   UNL     1      -1.439   4.882  25.314  0.00  0.00    +0.008 C 
ATOM     15  C   UNL     1      -3.558   4.280  24.062  0.00  0.00    +0.079 C 
ATOM     16  C   UNL     1       1.222   2.074  24.983  0.00  0.00    +0.007 C 
ATOM     17  C   UNL     1      -2.956   4.998  25.269  0.00  0.00    +0.021 C 
ATOM     18  C   UNL     1      -1.373   2.661  26.513  0.00  0.00    +0.011 C 
ATOM     20  C   UNL     1      -3.685   2.204  22.632  0.00  0.00    +0.009 C 
ENDROOT
BRANCH  11   2
ATOM      2  O   UNL     1      -1.235   0.886  22.392  0.00  0.00    -0.391 OA
ATOM     30  H   UNL     1      -0.821   1.468  21.733  0.00  0.00    +0.210 HD
ENDBRANCH  11   2
BRANCH  15   6
ATOM      6  N   UNL     1      -5.037   4.327  24.224  0.00  0.00    -0.191 NA
ATOM     29  H   UNL     1      -5.605   4.530  23.394  0.00  0.00    +0.148 HD
BRANCH   6   1
ATOM      1  S   UNL     1      -5.728   3.635  25.615  0.00  0.00    +0.027 S 
ATOM      4  O   UNL     1      -6.862   4.425  26.053  0.00  0.00    -0.158 OA
ATOM      5  O   UNL     1      -4.657   3.303  26.533  0.00  0.00    -0.158 OA
ATOM     25  C   UNL     1      -6.350   2.107  24.950  0.00  0.00    +0.214 C 
ENDBRANCH   6   1
ENDBRANCH  15   6
BRANCH  13  19
ATOM     19  C   UNL     1       1.264  -0.032  23.636  0.00  0.00    +0.078 C 
ATOM     21  C   UNL     1       2.410  -0.074  22.642  0.00  0.00    +0.017 C 
BRANCH  19  22
ATOM      3  O   UNL     1       0.072  -1.288  22.019  0.00  0.00    -0.275 OA
ATOM      7  N   UNL     1      -0.664  -1.464  24.216  0.00  0.00    -0.301 N 
ATOM     22  C   UNL     1       0.174  -0.984  23.210  0.00  0.00    +0.219 C 
ATOM     23  C   UNL     1      -1.748  -2.390  23.880  0.00  0.00    +0.108 C 
ATOM     24  C   UNL     1      -0.539  -1.154  25.646  0.00  0.00    +0.108 C 
ATOM     26  C   UNL     1      -3.087  -1.874  24.401  0.00  0.00    +0.019 C 
ATOM     27  C   UNL     1      -1.857  -0.615  26.200  0.00  0.00    +0.019 C 
ATOM     28  C   UNL     1      -3.017  -1.561  25.895  0.00  0.00    +0.003 C 
ENDBRANCH  19  22
ENDBRANCH  13  19
TORSDOF 5
ENDMDL
MODEL 3
REMARK VINA RESULT:       1.9      2.729      4.649
REMARK  Name = 28963210
REMARK  9 active torsions:
REMARK  status: ('A' for Active; 'I' for Inactive)
REMARK    1  A    between atoms: S_1  and  N_6
REMARK    2  A    between atoms: S_1  and  C_25
REMARK    3  A    between atoms: O_2  and  C_11
REMARK    4  A    between atoms: N_6  and  C_15
REMARK    5  A    between atoms: C_8  and  C_18
REMARK    6  A    between atoms: C_10  and  C_20
REMARK    7  A    between atoms: C_13  and  C_19
REMARK    8  A    between atoms: C_19  and  C_21
REMARK    9  A    between atoms: C_19  and  C_22
REMARK                            x       y       z     vdW  Elec       q    Type
REMARK                         _______ _______ _______ _____ _____    ______ ____
ROOT
ATOM      8  C   UNL     1      -0.043   0.965  23.782  0.00  0.00    -0.027 C 
ATOM      9  C   UNL     1      -0.954   0.989  25.056  0.00  0.00    +0.028 C 
ATOM     10  C   UNL     1      -1.719  -0.375  25.223  0.00  0.00    +0.011 C 
ATOM     11  C   UNL     1      -1.844   2.265  25.087  0.00  0.00    +0.122 C 
ATOM     12  C   UNL     1       0.778   2.274  23.709  0.00  0.00    +0.007 C 
ATOM     13  C   UNL     1      -1.029   3.566  24.907  0.00  0.00    +0.029 C 
ATOM     14  C   UNL     1       0.956  -0.210  23.898  0.00  0.00    +0.008 C 
ATOM     15  C   UNL     1      -0.706  -1.551  25.262  0.00  0.00    +0.079 C 
ATOM     16  C   UNL     1      -0.094   3.522  23.698  0.00  0.00    +0.007 C 
ATOM     17  C   UNL     1       0.272  -1.557  24.089  0.00  0.00    +0.021 C 
ATOM     18  C   UNL     1      -0.859   0.814  22.473  0.00  0.00    +0.011 C 
ATOM     20  C   UNL     1      -2.613  -0.425  26.472  0.00  0.00    +0.009 C 
ENDROOT
BRANCH  11   2
ATOM      2  O   UNL     1      -2.492   2.362  26.357  0.00  0.00    -0.391 OA
ATOM     30  H   UNL     1      -2.391   3.274  26.678  0.00  0.00    +0.210 HD
ENDBRANCH  11   2
BRANCH  15   6
ATOM      6  N   UNL     1      -1.420  -2.857  25.237  0.00  0.00    -0.191 NA
ATOM     29  H   UNL     1      -1.161  -3.560  25.938  0.00  0.00    +0.148 HD
BRANCH   6   1
ATOM      1  S   UNL     1      -2.880  -2.973  24.374  0.00  0.00    +0.027 S 
ATOM      4  O   UNL     1      -3.172  -1.713  23.719  0.00  0.00    -0.158 OA
ATOM      5  O   UNL     1      -3.861  -3.608  25.232  0.00  0.00    -0.158 OA
ATOM     25  C   UNL     1      -2.431  -4.150  23.119  0.00  0.00    +0.214 C 
ENDBRANCH   6   1
ENDBRANCH  15   6
BRANCH  13  19
ATOM     19  C   UNL     1      -1.936   4.798  24.808  0.00  0.00    +0.078 C 
ATOM     21  C   UNL     1      -1.190   6.061  25.198  0.00  0.00    +0.017 C 
BRANCH  19  22
ATOM      3  O   UNL     1      -3.070   5.008  26.878  0.00  0.00    -0.275 OA
ATOM      7  N   UNL     1      -4.226   3.941  25.168  0.00  0.00    -0.301 N 
ATOM     22  C   UNL     1      -3.123   4.597  25.717  0.00  0.00    +0.219 C 
ATOM     23  C   UNL     1      -5.416   3.707  25.988  0.00  0.00    +0.108 C 
ATOM     24  C   UNL     1      -4.335   3.480  23.779  0.00  0.00    +0.108 C 
ATOM     26  C   UNL     1      -5.802   2.229  25.979  0.00  0.00    +0.019 C 
ATOM     27  C   UNL     1      -4.701   1.998  23.727  0.00  0.00    +0.019 C 
ATOM     28  C   UNL     1      -5.954   1.706  24.552  0.00  0.00    +0.003 C 
ENDBRANCH  19  22
ENDBRANCH  13  19
TORSDOF 5
ENDMDL
