MODEL 1
REMARK VINA RESULT:      -1.6      0.000      0.000
REMARK  Name = 7049280
REMARK  8 active torsions:
REMARK  status: ('A' for Active; 'I' for Inactive)
REMARK    1  A    between atoms: O_3  and  C_12
REMARK    2  A    between atoms: O_4  and  C_14
REMARK    3  A    between atoms: N_8  and  C_13
REMARK    4  A    between atoms: N_9  and  C_20
REMARK    5  A    between atoms: N_10  and  C_23
REMARK    6  A    between atoms: C_16  and  C_18
REMARK    7  A    between atoms: C_20  and  C_21
REMARK    8  A    between atoms: C_20  and  C_22
REMARK                            x       y       z     vdW  Elec       q    Type
REMARK                         _______ _______ _______ _____ _____    ______ ____
ROOT
ATOM     12  C   UNL     1      -2.240  -2.361  24.422  0.00  0.00    +0.167 C 
ATOM     13  C   UNL     1      -1.924  -1.278  23.372  0.00  0.00    +0.129 C 
ATOM     14  C   UNL     1      -3.570  -2.082  25.134  0.00  0.00    +0.149 C 
ATOM     15  C   UNL     1      -3.600  -0.687  25.781  0.00  0.00    +0.074 C 
ATOM     16  C   UNL     1      -2.932   0.370  24.950  0.00  0.00    +0.015 C 
ATOM     17  C   UNL     1      -2.185   0.120  23.863  0.00  0.00    +0.006 C 
ENDROOT
BRANCH  13   8
ATOM      6  O   UNL     1       0.323   0.160  24.413  0.00  0.00    -0.252 OA
ATOM      8  N   UNL     1      -0.558  -1.364  22.914  0.00  0.00    -0.290 N 
ATOM     10  N   UNL     1       1.692  -0.912  22.835  0.00  0.00    -0.267 N 
ATOM     19  C   UNL     1       0.486  -0.623  23.480  0.00  0.00    +0.304 C 
ATOM     29  H   UNL     1      -0.352  -1.949  22.110  0.00  0.00    +0.151 HD
ATOM     33  H   UNL     1       1.655  -1.588  22.077  0.00  0.00    +0.156 HD
BRANCH  10  23
ATOM      1  F   UNL     1       3.634  -2.385  24.186  0.00  0.00    -0.203 F 
ATOM      2  F   UNL     1       6.706   1.202  23.891  0.00  0.00    -0.205 F 
ATOM     23  C   UNL     1       2.972  -0.375  23.107  0.00  0.00    +0.070 A 
ATOM     24  C   UNL     1       3.922  -1.138  23.784  0.00  0.00    +0.147 A 
ATOM     25  C   UNL     1       3.283   0.921  22.694  0.00  0.00    +0.029 A 
ATOM     26  C   UNL     1       5.184  -0.605  24.050  0.00  0.00    +0.078 A 
ATOM     27  C   UNL     1       4.544   1.454  22.959  0.00  0.00    +0.040 A 
ATOM     28  C   UNL     1       5.495   0.691  23.637  0.00  0.00    +0.126 A 
ENDBRANCH  10  23
ENDBRANCH  13   8
BRANCH  16  18
ATOM      5  O   UNL     1      -4.246   2.272  25.372  0.00  0.00    -0.271 OA
ATOM      9  N   UNL     1      -1.932   2.418  25.625  0.00  0.00    -0.301 N 
ATOM     18  C   UNL     1      -3.120   1.772  25.333  0.00  0.00    +0.240 C 
ATOM     32  H   UNL     1      -1.056   1.905  25.556  0.00  0.00    +0.150 HD
BRANCH   9  20
ATOM     20  C   UNL     1      -1.864   3.804  26.025  0.00  0.00    +0.156 C 
ATOM     21  C   UNL     1      -3.256   4.397  26.184  0.00  0.00    +0.038 C 
BRANCH  20  22
ATOM      7  O   UNL     1      -1.053   5.789  24.884  0.00  0.00    -0.274 OA
ATOM     11  N   UNL     1      -0.321   3.734  24.165  0.00  0.00    -0.328 N 
ATOM     22  C   UNL     1      -1.066   4.564  24.976  0.00  0.00    +0.231 C 
ATOM     34  H   UNL     1      -0.327   2.724  24.266  0.00  0.00    +0.145 HD
ATOM     35  H   UNL     1       0.266   4.115  23.430  0.00  0.00    +0.145 HD
ENDBRANCH  20  22
ENDBRANCH   9  20
ENDBRANCH  16  18
BRANCH  12   3
ATOM      3  O   UNL     1      -1.197  -2.402  25.399  0.00  0.00    -0.387 OA
ATOM     30  H   UNL     1      -0.625  -1.630  25.249  0.00  0.00    +0.210 HD
ENDBRANCH  12   3
BRANCH  14   4
ATOM      4  O   UNL     1      -4.655  -2.219  24.218  0.00  0.00    -0.389 OA
ATOM     31  H   UNL     1      -5.415  -2.571  24.712  0.00  0.00    +0.210 HD
ENDBRANCH  14   4
TORSDOF 7
ENDMDL
MODEL 2
REMARK VINA RESULT:      -1.3      1.444      1.971
REMARK  Name = 7049280
REMARK  8 active torsions:
REMARK  status: ('A' for Active; 'I' for Inactive)
REMARK    1  A    between atoms: O_3  and  C_12
REMARK    2  A    between atoms: O_4  and  C_14
REMARK    3  A    between atoms: N_8  and  C_13
REMARK    4  A    between atoms: N_9  and  C_20
REMARK    5  A    between atoms: N_10  and  C_23
REMARK    6  A    between atoms: C_16  and  C_18
REMARK    7  A    between atoms: C_20  and  C_21
REMARK    8  A    between atoms: C_20  and  C_22
REMARK                            x       y       z     vdW  Elec       q    Type
REMARK                         _______ _______ _______ _____ _____    ______ ____
ROOT
ATOM     12  C   UNL     1      -2.055  -2.152  24.805  0.00  0.00    +0.167 C 
ATOM     13  C   UNL     1      -1.823  -1.507  23.426  0.00  0.00    +0.129 C 
ATOM     14  C   UNL     1      -3.427  -1.774  25.379  0.00  0.00    +0.149 C 
ATOM     15  C   UNL     1      -3.620  -0.250  25.464  0.00  0.00    +0.074 C 
ATOM     16  C   UNL     1      -3.041   0.490  24.292  0.00  0.00    +0.015 C 
ATOM     17  C   UNL     1      -2.242  -0.063  23.367  0.00  0.00    +0.006 C 
ENDROOT
BRANCH  13   8
ATOM      6  O   UNL     1       0.349   0.140  24.305  0.00  0.00    -0.252 OA
ATOM      8  N   UNL     1      -0.443  -1.609  23.016  0.00  0.00    -0.290 N 
ATOM     10  N   UNL     1       1.794  -1.095  22.927  0.00  0.00    -0.267 N 
ATOM     19  C   UNL     1       0.562  -0.761  23.497  0.00  0.00    +0.304 C 
ATOM     29  H   UNL     1      -0.196  -2.293  22.308  0.00  0.00    +0.151 HD
ATOM     33  H   UNL     1       1.799  -1.872  22.270  0.00  0.00    +0.156 HD
BRANCH  10  23
ATOM      1  F   UNL     1       3.851  -2.425  24.256  0.00  0.00    -0.203 F 
ATOM      2  F   UNL     1       6.709   1.318  23.791  0.00  0.00    -0.205 F 
ATOM     23  C   UNL     1       3.049  -0.482  23.149  0.00  0.00    +0.070 A 
ATOM     24  C   UNL     1       4.058  -1.175  23.817  0.00  0.00    +0.147 A 
ATOM     25  C   UNL     1       3.275   0.819  22.698  0.00  0.00    +0.029 A 
ATOM     26  C   UNL     1       5.295  -0.565  24.035  0.00  0.00    +0.078 A 
ATOM     27  C   UNL     1       4.511   1.427  22.915  0.00  0.00    +0.040 A 
ATOM     28  C   UNL     1       5.521   0.735  23.583  0.00  0.00    +0.126 A 
ENDBRANCH  10  23
ENDBRANCH  13   8
BRANCH  16  18
ATOM      5  O   UNL     1      -3.330   2.448  23.026  0.00  0.00    -0.271 OA
ATOM      9  N   UNL     1      -3.757   2.511  25.317  0.00  0.00    -0.301 N 
ATOM     18  C   UNL     1      -3.385   1.905  24.130  0.00  0.00    +0.240 C 
ATOM     32  H   UNL     1      -3.764   1.964  26.175  0.00  0.00    +0.150 HD
BRANCH   9  20
ATOM     20  C   UNL     1      -4.138   3.901  25.409  0.00  0.00    +0.156 C 
ATOM     21  C   UNL     1      -3.281   4.638  26.426  0.00  0.00    +0.038 C 
BRANCH  20  22
ATOM      7  O   UNL     1      -6.295   4.983  25.689  0.00  0.00    -0.274 OA
ATOM     11  N   UNL     1      -6.109   2.755  26.213  0.00  0.00    -0.328 N 
ATOM     22  C   UNL     1      -5.611   3.968  25.788  0.00  0.00    +0.231 C 
ATOM     34  H   UNL     1      -5.536   1.919  26.272  0.00  0.00    +0.145 HD
ATOM     35  H   UNL     1      -7.082   2.659  26.486  0.00  0.00    +0.145 HD
ENDBRANCH  20  22
ENDBRANCH   9  20
ENDBRANCH  16  18
BRANCH  12   3
ATOM      3  O   UNL     1      -1.042  -1.717  25.716  0.00  0.00    -0.387 OA
ATOM     30  H   UNL     1      -0.423  -2.456  25.840  0.00  0.00    +0.210 HD
ENDBRANCH  12   3
BRANCH  14   4
ATOM      4  O   UNL     1      -4.465  -2.356  24.592  0.00  0.00    -0.389 OA
ATOM     31  H   UNL     1      -4.143  -3.214  24.268  0.00  0.00    +0.210 HD
ENDBRANCH  14   4
TORSDOF 7
ENDMDL
MODEL 3
REMARK VINA RESULT:      -1.0      1.897      2.495
REMARK  Name = 7049280
REMARK  8 active torsions:
REMARK  status: ('A' for Active; 'I' for Inactive)
REMARK    1  A    between atoms: O_3  and  C_12
REMARK    2  A    between atoms: O_4  and  C_14
REMARK    3  A    between atoms: N_8  and  C_13
REMARK    4  A    between atoms: N_9  and  C_20
REMARK    5  A    between atoms: N_10  and  C_23
REMARK    6  A    between atoms: C_16  and  C_18
REMARK    7  A    between atoms: C_20  and  C_21
REMARK    8  A    between atoms: C_20  and  C_22
REMARK                            x       y       z     vdW  Elec       q    Type
REMARK                         _______ _______ _______ _____ _____    ______ ____
ROOT
ATOM     12  C   UNL     1      -2.587  -2.165  24.712  0.00  0.00    +0.167 C 
ATOM     13  C   UNL     1      -1.647  -1.315  23.836  0.00  0.00    +0.129 C 
ATOM     14  C   UNL     1      -4.061  -1.879  24.397  0.00  0.00    +0.149 C 
ATOM     15  C   UNL     1      -4.404  -0.386  24.540  0.00  0.00    +0.074 C 
ATOM     16  C   UNL     1      -3.318   0.525  24.047  0.00  0.00    +0.015 C 
ATOM     17  C   UNL     1      -2.080   0.122  23.721  0.00  0.00    +0.006 C 
ENDROOT
BRANCH  13   8
ATOM      6  O   UNL     1       0.702  -0.507  22.411  0.00  0.00    -0.252 OA
ATOM      8  N   UNL     1      -0.288  -1.354  24.321  0.00  0.00    -0.290 N 
ATOM     10  N   UNL     1       1.993  -1.090  24.283  0.00  0.00    -0.267 N 
ATOM     19  C   UNL     1       0.809  -0.938  23.557  0.00  0.00    +0.304 C 
ATOM     29  H   UNL     1      -0.111  -1.750  25.239  0.00  0.00    +0.151 HD
ATOM     33  H   UNL     1       1.908  -1.463  25.225  0.00  0.00    +0.156 HD
BRANCH  10  23
ATOM      1  F   UNL     1       2.632   1.372  23.143  0.00  0.00    -0.203 F 
ATOM      2  F   UNL     1       7.162   0.091  22.667  0.00  0.00    -0.205 F 
ATOM     23  C   UNL     1       3.311  -0.785  23.869  0.00  0.00    +0.070 A 
ATOM     24  C   UNL     1       3.598   0.456  23.302  0.00  0.00    +0.147 A 
ATOM     25  C   UNL     1       4.324  -1.731  24.030  0.00  0.00    +0.029 A 
ATOM     26  C   UNL     1       4.900   0.752  22.896  0.00  0.00    +0.078 A 
ATOM     27  C   UNL     1       5.625  -1.435  23.623  0.00  0.00    +0.040 A 
ATOM     28  C   UNL     1       5.913  -0.194  23.056  0.00  0.00    +0.126 A 
ENDBRANCH  10  23
ENDBRANCH  13   8
BRANCH  16  18
ATOM      5  O   UNL     1      -3.622   2.480  22.780  0.00  0.00    -0.271 OA
ATOM      9  N   UNL     1      -3.910   2.576  25.092  0.00  0.00    -0.301 N 
ATOM     18  C   UNL     1      -3.628   1.949  23.891  0.00  0.00    +0.240 C 
ATOM     32  H   UNL     1      -3.883   2.038  25.954  0.00  0.00    +0.150 HD
BRANCH   9  20
ATOM     20  C   UNL     1      -4.243   3.979  25.191  0.00  0.00    +0.156 C 
ATOM     21  C   UNL     1      -3.260   4.713  26.089  0.00  0.00    +0.038 C 
BRANCH  20  22
ATOM      7  O   UNL     1      -6.314   5.136  25.711  0.00  0.00    -0.274 OA
ATOM     11  N   UNL     1      -6.158   2.896  26.193  0.00  0.00    -0.328 N 
ATOM     22  C   UNL     1      -5.663   4.095  25.727  0.00  0.00    +0.231 C 
ATOM     34  H   UNL     1      -5.614   2.039  26.182  0.00  0.00    +0.145 HD
ATOM     35  H   UNL     1      -7.099   2.832  26.569  0.00  0.00    +0.145 HD
ENDBRANCH  20  22
ENDBRANCH   9  20
ENDBRANCH  16  18
BRANCH  12   3
ATOM      3  O   UNL     1      -2.349  -1.877  26.092  0.00  0.00    -0.387 OA
ATOM     30  H   UNL     1      -2.195  -0.921  26.169  0.00  0.00    +0.210 HD
ENDBRANCH  12   3
BRANCH  14   4
ATOM      4  O   UNL     1      -4.378  -2.330  23.082  0.00  0.00    -0.389 OA
ATOM     31  H   UNL     1      -3.668  -2.929  22.797  0.00  0.00    +0.210 HD
ENDBRANCH  14   4
TORSDOF 7
ENDMDL
MODEL 4
REMARK VINA RESULT:       0.9      1.868      4.632
REMARK  Name = 7049280
REMARK  8 active torsions:
REMARK  status: ('A' for Active; 'I' for Inactive)
REMARK    1  A    between atoms: O_3  and  C_12
REMARK    2  A    between atoms: O_4  and  C_14
REMARK    3  A    between atoms: N_8  and  C_13
REMARK    4  A    between atoms: N_9  and  C_20
REMARK    5  A    between atoms: N_10  and  C_23
REMARK    6  A    between atoms: C_16  and  C_18
REMARK    7  A    between atoms: C_20  and  C_21
REMARK    8  A    between atoms: C_20  and  C_22
REMARK                            x       y       z     vdW  Elec       q    Type
REMARK                         _______ _______ _______ _____ _____    ______ ____
ROOT
ATOM     12  C   UNL     1      -2.524   4.221  24.013  0.00  0.00    +0.167 C 
ATOM     13  C   UNL     1      -1.640   3.162  24.697  0.00  0.00    +0.129 C 
ATOM     14  C   UNL     1      -3.896   4.332  24.691  0.00  0.00    +0.149 C 
ATOM     15  C   UNL     1      -4.628   2.980  24.743  0.00  0.00    +0.074 C 
ATOM     16  C   UNL     1      -3.717   1.820  25.026  0.00  0.00    +0.015 C 
ATOM     17  C   UNL     1      -2.377   1.890  25.017  0.00  0.00    +0.006 C 
ENDROOT
BRANCH  13   8
ATOM      6  O   UNL     1       0.396   1.249  25.330  0.00  0.00    -0.252 OA
ATOM      8  N   UNL     1      -0.481   2.841  23.900  0.00  0.00    -0.290 N 
ATOM     10  N   UNL     1       1.477   1.792  23.318  0.00  0.00    -0.267 N 
ATOM     19  C   UNL     1       0.471   1.888  24.283  0.00  0.00    +0.304 C 
ATOM     29  H   UNL     1      -0.318   3.367  23.047  0.00  0.00    +0.151 HD
ATOM     33  H   UNL     1       1.391   2.395  22.504  0.00  0.00    +0.156 HD
BRANCH  10  23
ATOM      1  F   UNL     1       1.237  -0.981  23.468  0.00  0.00    -0.203 F 
ATOM      2  F   UNL     1       5.940  -1.496  23.362  0.00  0.00    -0.205 F 
ATOM     23  C   UNL     1       2.614   0.950  23.330  0.00  0.00    +0.070 A 
ATOM     24  C   UNL     1       2.460  -0.434  23.406  0.00  0.00    +0.147 A 
ATOM     25  C   UNL     1       3.891   1.508  23.265  0.00  0.00    +0.029 A 
ATOM     26  C   UNL     1       3.585  -1.260  23.417  0.00  0.00    +0.078 A 
ATOM     27  C   UNL     1       5.015   0.682  23.277  0.00  0.00    +0.040 A 
ATOM     28  C   UNL     1       4.861  -0.702  23.352  0.00  0.00    +0.126 A 
ENDBRANCH  10  23
ENDBRANCH  13   8
BRANCH  16  18
ATOM      5  O   UNL     1      -5.496   0.457  25.733  0.00  0.00    -0.271 OA
ATOM      9  N   UNL     1      -3.457  -0.536  25.191  0.00  0.00    -0.301 N 
ATOM     18  C   UNL     1      -4.326   0.528  25.354  0.00  0.00    +0.240 C 
ATOM     32  H   UNL     1      -2.506  -0.360  24.874  0.00  0.00    +0.150 HD
BRANCH   9  20
ATOM     20  C   UNL     1      -3.829  -1.907  25.455  0.00  0.00    +0.156 C 
ATOM     21  C   UNL     1      -3.086  -2.453  26.664  0.00  0.00    +0.038 C 
BRANCH  20  22
ATOM      7  O   UNL     1      -4.390  -3.189  23.470  0.00  0.00    -0.274 OA
ATOM     11  N   UNL     1      -2.174  -2.872  23.980  0.00  0.00    -0.328 N 
ATOM     22  C   UNL     1      -3.525  -2.731  24.212  0.00  0.00    +0.231 C 
ATOM     34  H   UNL     1      -1.470  -2.471  24.592  0.00  0.00    +0.145 HD
ATOM     35  H   UNL     1      -1.835  -3.391  23.177  0.00  0.00    +0.145 HD
ENDBRANCH  20  22
ENDBRANCH   9  20
ENDBRANCH  16  18
BRANCH  12   3
ATOM      3  O   UNL     1      -2.719   3.871  22.641  0.00  0.00    -0.387 OA
ATOM     30  H   UNL     1      -3.613   3.500  22.557  0.00  0.00    +0.210 HD
ENDBRANCH  12   3
BRANCH  14   4
ATOM      4  O   UNL     1      -3.751   4.861  26.008  0.00  0.00    -0.389 OA
ATOM     31  H   UNL     1      -2.809   4.809  26.244  0.00  0.00    +0.210 HD
ENDBRANCH  14   4
TORSDOF 7
ENDMDL
