MODEL 1
REMARK VINA RESULT:      -7.5      0.000      0.000
REMARK  Name = 75536116
REMARK  6 active torsions:
REMARK  status: ('A' for Active; 'I' for Inactive)
REMARK    1  A    between atoms: O_1  and  C_8
REMARK    2  A    between atoms: O_2  and  C_12
REMARK    3  A    between atoms: N_3  and  C_5
REMARK    4  A    between atoms: N_3  and  C_13
REMARK    5  A    between atoms: C_6  and  C_13
REMARK    6  A    between atoms: C_7  and  C_14
REMARK                            x       y       z     vdW  Elec       q    Type
REMARK                         _______ _______ _______ _____ _____    ______ ____
ROOT
ATOM      5  C   UNL     1      -1.372   1.735  23.744  0.00  0.00    +0.092 C 
ATOM      7  C   UNL     1      -2.079   1.023  24.940  0.00  0.00    +0.042 C 
ATOM      8  C   UNL     1      -0.006   2.177  24.292  0.00  0.00    +0.160 C 
ATOM     11  C   UNL     1      -1.093   1.106  26.121  0.00  0.00    +0.043 C 
ATOM     12  C   UNL     1      -0.240   2.323  25.792  0.00  0.00    +0.145 C 
ENDROOT
BRANCH   7  14
ATOM      4  N   UNL     1      -1.986  -2.739  24.459  0.00  0.00    -0.263 NA
ATOM     14  C   UNL     1      -2.530  -0.390  24.637  0.00  0.00    -0.025 A 
ATOM     15  C   UNL     1      -3.844  -0.659  24.269  0.00  0.00    +0.007 A 
ATOM     16  C   UNL     1      -1.648  -1.455  24.716  0.00  0.00    +0.114 A 
ATOM     17  C   UNL     1      -4.230  -1.966  23.997  0.00  0.00    +0.020 A 
ATOM     18  C   UNL     1      -3.271  -2.962  24.105  0.00  0.00    +0.111 A 
ENDBRANCH   7  14
BRANCH   8   1
ATOM      1  O   UNL     1       0.942   1.144  24.027  0.00  0.00    -0.388 OA
ATOM     20  H   UNL     1       0.751   0.795  23.139  0.00  0.00    +0.210 HD
ENDBRANCH   8   1
BRANCH  12   2
ATOM      2  O   UNL     1       0.963   2.326  26.534  0.00  0.00    -0.389 OA
ATOM     21  H   UNL     1       1.589   1.738  26.078  0.00  0.00    +0.210 HD
ENDBRANCH  12   2
BRANCH   5   3
ATOM      3  N   UNL     1      -2.151   2.907  23.341  0.00  0.00    -0.310 NA
ATOM     19  H   UNL     1      -1.978   3.104  22.356  0.00  0.00    +0.122 HD
BRANCH   3  13
ATOM     13  C   UNL     1      -3.577   2.670  23.523  0.00  0.00    +0.084 C 
BRANCH  13   6
ATOM      6  C   UNL     1      -4.188   3.700  24.418  0.00  0.00    +0.003 C 
ATOM      9  C   UNL     1      -3.667   3.893  25.814  0.00  0.00    +0.005 C 
ATOM     10  C   UNL     1      -5.021   3.278  25.596  0.00  0.00    +0.005 C 
ENDBRANCH  13   6
ENDBRANCH   3  13
ENDBRANCH   5   3
TORSDOF 6
ENDMDL
MODEL 2
REMARK VINA RESULT:      -6.8      1.413      4.508
REMARK  Name = 75536116
REMARK  6 active torsions:
REMARK  status: ('A' for Active; 'I' for Inactive)
REMARK    1  A    between atoms: O_1  and  C_8
REMARK    2  A    between atoms: O_2  and  C_12
REMARK    3  A    between atoms: N_3  and  C_5
REMARK    4  A    between atoms: N_3  and  C_13
REMARK    5  A    between atoms: C_6  and  C_13
REMARK    6  A    between atoms: C_7  and  C_14
REMARK                            x       y       z     vdW  Elec       q    Type
REMARK                         _______ _______ _______ _____ _____    ______ ____
ROOT
ATOM      5  C   UNL     1      -1.594   0.364  25.678  0.00  0.00    +0.092 C 
ATOM      7  C   UNL     1      -2.360   0.951  24.452  0.00  0.00    +0.042 C 
ATOM      8  C   UNL     1      -0.124   0.757  25.458  0.00  0.00    +0.160 C 
ATOM     11  C   UNL     1      -1.293   1.637  23.578  0.00  0.00    +0.043 C 
ATOM     12  C   UNL     1      -0.007   0.911  23.945  0.00  0.00    +0.145 C 
ENDROOT
BRANCH   7  14
ATOM      4  N   UNL     1      -4.261   4.057  25.514  0.00  0.00    -0.263 NA
ATOM     14  C   UNL     1      -3.507   1.867  24.822  0.00  0.00    -0.025 A 
ATOM     15  C   UNL     1      -4.819   1.407  24.821  0.00  0.00    +0.007 A 
ATOM     16  C   UNL     1      -3.283   3.188  25.173  0.00  0.00    +0.114 A 
ATOM     17  C   UNL     1      -5.853   2.271  25.165  0.00  0.00    +0.020 A 
ATOM     18  C   UNL     1      -5.524   3.575  25.501  0.00  0.00    +0.111 A 
ENDBRANCH   7  14
BRANCH   8   1
ATOM      1  O   UNL     1       0.112   2.003  26.112  0.00  0.00    -0.388 OA
ATOM     20  H   UNL     1       0.444   2.625  25.443  0.00  0.00    +0.210 HD
ENDBRANCH   8   1
BRANCH  12   2
ATOM      2  O   UNL     1       1.133   1.652  23.560  0.00  0.00    -0.389 OA
ATOM     21  H   UNL     1       0.912   2.595  23.646  0.00  0.00    +0.210 HD
ENDBRANCH  12   2
BRANCH   5   3
ATOM      3  N   UNL     1      -1.724  -1.094  25.686  0.00  0.00    -0.310 NA
ATOM     19  H   UNL     1      -1.067  -1.487  26.360  0.00  0.00    +0.122 HD
BRANCH   3  13
ATOM     13  C   UNL     1      -3.072  -1.493  26.067  0.00  0.00    +0.084 C 
BRANCH  13   6
ATOM      6  C   UNL     1      -3.604  -2.550  25.154  0.00  0.00    +0.003 C 
ATOM      9  C   UNL     1      -2.910  -2.845  23.853  0.00  0.00    +0.005 C 
ATOM     10  C   UNL     1      -4.253  -2.169  23.852  0.00  0.00    +0.005 C 
ENDBRANCH  13   6
ENDBRANCH   3  13
ENDBRANCH   5   3
TORSDOF 6
ENDMDL
MODEL 3
REMARK VINA RESULT:      -5.8      2.041      4.466
REMARK  Name = 75536116
REMARK  6 active torsions:
REMARK  status: ('A' for Active; 'I' for Inactive)
REMARK    1  A    between atoms: O_1  and  C_8
REMARK    2  A    between atoms: O_2  and  C_12
REMARK    3  A    between atoms: N_3  and  C_5
REMARK    4  A    between atoms: N_3  and  C_13
REMARK    5  A    between atoms: C_6  and  C_13
REMARK    6  A    between atoms: C_7  and  C_14
REMARK                            x       y       z     vdW  Elec       q    Type
REMARK                         _______ _______ _______ _____ _____    ______ ____
ROOT
ATOM      5  C   UNL     1      -2.425   0.285  24.898  0.00  0.00    +0.092 C 
ATOM      7  C   UNL     1      -1.523   1.210  24.023  0.00  0.00    +0.042 C 
ATOM      8  C   UNL     1      -1.495  -0.840  25.380  0.00  0.00    +0.160 C 
ATOM     11  C   UNL     1      -0.125   0.564  24.030  0.00  0.00    +0.043 C 
ATOM     12  C   UNL     1      -0.409  -0.904  24.312  0.00  0.00    +0.145 C 
ENDROOT
BRANCH   7  14
ATOM      4  N   UNL     1      -2.617   4.476  25.614  0.00  0.00    -0.263 NA
ATOM     14  C   UNL     1      -1.513   2.659  24.464  0.00  0.00    -0.025 A 
ATOM     15  C   UNL     1      -0.447   3.495  24.150  0.00  0.00    +0.007 A 
ATOM     16  C   UNL     1      -2.564   3.193  25.191  0.00  0.00    +0.114 A 
ATOM     17  C   UNL     1      -0.464   4.821  24.568  0.00  0.00    +0.020 A 
ATOM     18  C   UNL     1      -1.563   5.259  25.291  0.00  0.00    +0.111 A 
ENDBRANCH   7  14
BRANCH   8   1
ATOM      1  O   UNL     1      -0.943  -0.459  26.640  0.00  0.00    -0.388 OA
ATOM     20  H   UNL     1      -0.700   0.481  26.578  0.00  0.00    +0.210 HD
ENDBRANCH   8   1
BRANCH  12   2
ATOM      2  O   UNL     1       0.751  -1.580  24.754  0.00  0.00    -0.389 OA
ATOM     21  H   UNL     1       1.518  -1.134  24.357  0.00  0.00    +0.210 HD
ENDBRANCH  12   2
BRANCH   5   3
ATOM      3  N   UNL     1      -3.499  -0.274  24.075  0.00  0.00    -0.310 NA
ATOM     19  H   UNL     1      -3.348  -1.276  23.960  0.00  0.00    +0.122 HD
BRANCH   3  13
ATOM     13  C   UNL     1      -4.796  -0.071  24.706  0.00  0.00    +0.084 C 
BRANCH  13   6
ATOM      6  C   UNL     1      -5.129   1.383  24.805  0.00  0.00    +0.003 C 
ATOM      9  C   UNL     1      -5.810   1.921  26.032  0.00  0.00    +0.005 C 
ATOM     10  C   UNL     1      -6.561   1.837  24.734  0.00  0.00    +0.005 C 
ENDBRANCH  13   6
ENDBRANCH   3  13
ENDBRANCH   5   3
TORSDOF 6
ENDMDL
MODEL 4
REMARK VINA RESULT:      -5.7      2.382      4.281
REMARK  Name = 75536116
REMARK  6 active torsions:
REMARK  status: ('A' for Active; 'I' for Inactive)
REMARK    1  A    between atoms: O_1  and  C_8
REMARK    2  A    between atoms: O_2  and  C_12
REMARK    3  A    between atoms: N_3  and  C_5
REMARK    4  A    between atoms: N_3  and  C_13
REMARK    5  A    between atoms: C_6  and  C_13
REMARK    6  A    between atoms: C_7  and  C_14
REMARK                            x       y       z     vdW  Elec       q    Type
REMARK                         _______ _______ _______ _____ _____    ______ ____
ROOT
ATOM      5  C   UNL     1       0.020   1.256  24.458  0.00  0.00    +0.092 C 
ATOM      7  C   UNL     1      -1.410   1.227  23.835  0.00  0.00    +0.042 C 
ATOM      8  C   UNL     1       0.060   2.533  25.312  0.00  0.00    +0.160 C 
ATOM     11  C   UNL     1      -2.117   2.496  24.346  0.00  0.00    +0.043 C 
ATOM     12  C   UNL     1      -0.970   3.447  24.655  0.00  0.00    +0.145 C 
ENDROOT
BRANCH   7  14
ATOM      4  N   UNL     1      -2.169  -2.355  24.828  0.00  0.00    -0.263 NA
ATOM     14  C   UNL     1      -2.183  -0.043  24.122  0.00  0.00    -0.025 A 
ATOM     15  C   UNL     1      -3.563  -0.094  23.958  0.00  0.00    +0.007 A 
ATOM     16  C   UNL     1      -1.539  -1.190  24.555  0.00  0.00    +0.114 A 
ATOM     17  C   UNL     1      -4.247  -1.274  24.230  0.00  0.00    +0.020 A 
ATOM     18  C   UNL     1      -3.510  -2.367  24.658  0.00  0.00    +0.111 A 
ENDBRANCH   7  14
BRANCH   8   1
ATOM      1  O   UNL     1      -0.337   2.198  26.641  0.00  0.00    -0.388 OA
ATOM     20  H   UNL     1      -1.308   2.139  26.649  0.00  0.00    +0.210 HD
ENDBRANCH   8   1
BRANCH  12   2
ATOM      2  O   UNL     1      -1.384   4.498  25.504  0.00  0.00    -0.389 OA
ATOM     21  H   UNL     1      -0.599   4.816  25.981  0.00  0.00    +0.210 HD
ENDBRANCH  12   2
BRANCH   5   3
ATOM      3  N   UNL     1       1.019   1.339  23.390  0.00  0.00    -0.310 NA
ATOM     19  H   UNL     1       1.774   1.958  23.683  0.00  0.00    +0.122 HD
BRANCH   3  13
ATOM     13  C   UNL     1       1.581   0.027  23.102  0.00  0.00    +0.084 C 
BRANCH  13   6
ATOM      6  C   UNL     1       2.888   0.142  22.386  0.00  0.00    +0.003 C 
ATOM      9  C   UNL     1       4.157  -0.312  23.051  0.00  0.00    +0.005 C 
ATOM     10  C   UNL     1       3.907   1.154  22.831  0.00  0.00    +0.005 C 
ENDBRANCH  13   6
ENDBRANCH   3  13
ENDBRANCH   5   3
TORSDOF 6
ENDMDL
MODEL 5
REMARK VINA RESULT:      -5.7      2.560      4.649
REMARK  Name = 75536116
REMARK  6 active torsions:
REMARK  status: ('A' for Active; 'I' for Inactive)
REMARK    1  A    between atoms: O_1  and  C_8
REMARK    2  A    between atoms: O_2  and  C_12
REMARK    3  A    between atoms: N_3  and  C_5
REMARK    4  A    between atoms: N_3  and  C_13
REMARK    5  A    between atoms: C_6  and  C_13
REMARK    6  A    between atoms: C_7  and  C_14
REMARK                            x       y       z     vdW  Elec       q    Type
REMARK                         _______ _______ _______ _____ _____    ______ ____
ROOT
ATOM      5  C   UNL     1      -3.560   1.044  24.079  0.00  0.00    +0.092 C 
ATOM      7  C   UNL     1      -2.388   1.321  25.072  0.00  0.00    +0.042 C 
ATOM      8  C   UNL     1      -4.388   2.339  24.066  0.00  0.00    +0.160 C 
ATOM     11  C   UNL     1      -2.608   2.753  25.593  0.00  0.00    +0.043 C 
ATOM     12  C   UNL     1      -4.105   2.971  25.424  0.00  0.00    +0.145 C 
ENDROOT
BRANCH   7  14
ATOM      4  N   UNL     1       1.187   1.984  23.990  0.00  0.00    -0.263 NA
ATOM     14  C   UNL     1      -1.012   1.107  24.476  0.00  0.00    -0.025 A 
ATOM     15  C   UNL     1      -0.669  -0.104  23.884  0.00  0.00    +0.007 A 
ATOM     16  C   UNL     1      -0.058   2.110  24.503  0.00  0.00    +0.114 A 
ATOM     17  C   UNL     1       0.602  -0.272  23.345  0.00  0.00    +0.020 A 
ATOM     18  C   UNL     1       1.485   0.794  23.423  0.00  0.00    +0.111 A 
ENDBRANCH   7  14
BRANCH   8   1
ATOM      1  O   UNL     1      -3.906   3.170  23.011  0.00  0.00    -0.388 OA
ATOM     20  H   UNL     1      -2.947   3.271  23.135  0.00  0.00    +0.210 HD
ENDBRANCH   8   1
BRANCH  12   2
ATOM      2  O   UNL     1      -4.434   4.345  25.465  0.00  0.00    -0.389 OA
ATOM     21  H   UNL     1      -3.666   4.820  25.826  0.00  0.00    +0.210 HD
ENDBRANCH  12   2
BRANCH   5   3
ATOM      3  N   UNL     1      -4.376  -0.064  24.581  0.00  0.00    -0.310 NA
ATOM     19  H   UNL     1      -5.353   0.224  24.611  0.00  0.00    +0.122 HD
BRANCH   3  13
ATOM     13  C   UNL     1      -4.263  -1.227  23.712  0.00  0.00    +0.084 C 
BRANCH  13   6
ATOM      6  C   UNL     1      -3.858  -2.443  24.481  0.00  0.00    +0.003 C 
ATOM      9  C   UNL     1      -3.050  -2.306  25.741  0.00  0.00    +0.005 C 
ATOM     10  C   UNL     1      -2.419  -2.879  24.504  0.00  0.00    +0.005 C 
ENDBRANCH  13   6
ENDBRANCH   3  13
ENDBRANCH   5   3
TORSDOF 6
ENDMDL
MODEL 6
REMARK VINA RESULT:      -5.6      1.966      2.545
REMARK  Name = 75536116
REMARK  6 active torsions:
REMARK  status: ('A' for Active; 'I' for Inactive)
REMARK    1  A    between atoms: O_1  and  C_8
REMARK    2  A    between atoms: O_2  and  C_12
REMARK    3  A    between atoms: N_3  and  C_5
REMARK    4  A    between atoms: N_3  and  C_13
REMARK    5  A    between atoms: C_6  and  C_13
REMARK    6  A    between atoms: C_7  and  C_14
REMARK                            x       y       z     vdW  Elec       q    Type
REMARK                         _______ _______ _______ _____ _____    ______ ____
ROOT
ATOM      5  C   UNL     1      -0.627   1.078  24.853  0.00  0.00    +0.092 C 
ATOM      7  C   UNL     1      -0.638  -0.479  24.756  0.00  0.00    +0.042 C 
ATOM      8  C   UNL     1       0.365   1.540  23.774  0.00  0.00    +0.160 C 
ATOM     11  C   UNL     1       0.360  -0.838  23.639  0.00  0.00    +0.043 C 
ATOM     12  C   UNL     1       1.308   0.352  23.607  0.00  0.00    +0.145 C 
ENDROOT
BRANCH   7  14
ATOM      4  N   UNL     1      -3.403  -3.040  24.319  0.00  0.00    -0.263 NA
ATOM     14  C   UNL     1      -2.013  -1.074  24.541  0.00  0.00    -0.025 A 
ATOM     15  C   UNL     1      -3.127  -0.259  24.368  0.00  0.00    +0.007 A 
ATOM     16  C   UNL     1      -2.203  -2.446  24.508  0.00  0.00    +0.114 A 
ATOM     17  C   UNL     1      -4.378  -0.833  24.172  0.00  0.00    +0.020 A 
ATOM     18  C   UNL     1      -4.462  -2.216  24.156  0.00  0.00    +0.111 A 
ENDBRANCH   7  14
BRANCH   8   1
ATOM      1  O   UNL     1      -0.360   1.782  22.570  0.00  0.00    -0.388 OA
ATOM     20  H   UNL     1      -1.104   1.155  22.546  0.00  0.00    +0.210 HD
ENDBRANCH   8   1
BRANCH  12   2
ATOM      2  O   UNL     1       2.036   0.401  22.398  0.00  0.00    -0.389 OA
ATOM     21  H   UNL     1       2.819  -0.166  22.504  0.00  0.00    +0.210 HD
ENDBRANCH  12   2
BRANCH   5   3
ATOM      3  N   UNL     1      -0.149   1.483  26.177  0.00  0.00    -0.310 NA
ATOM     19  H   UNL     1       0.865   1.382  26.213  0.00  0.00    +0.122 HD
BRANCH   3  13
ATOM     13  C   UNL     1      -0.485   2.874  26.447  0.00  0.00    +0.084 C 
BRANCH  13   6
ATOM      6  C   UNL     1      -1.563   3.359  25.532  0.00  0.00    +0.003 C 
ATOM      9  C   UNL     1      -1.702   4.827  25.239  0.00  0.00    +0.005 C 
ATOM     10  C   UNL     1      -2.732   4.129  26.082  0.00  0.00    +0.005 C 
ENDBRANCH  13   6
ENDBRANCH   3  13
ENDBRANCH   5   3
TORSDOF 6
ENDMDL
MODEL 7
REMARK VINA RESULT:      -5.6      1.462      2.050
REMARK  Name = 75536116
REMARK  6 active torsions:
REMARK  status: ('A' for Active; 'I' for Inactive)
REMARK    1  A    between atoms: O_1  and  C_8
REMARK    2  A    between atoms: O_2  and  C_12
REMARK    3  A    between atoms: N_3  and  C_5
REMARK    4  A    between atoms: N_3  and  C_13
REMARK    5  A    between atoms: C_6  and  C_13
REMARK    6  A    between atoms: C_7  and  C_14
REMARK                            x       y       z     vdW  Elec       q    Type
REMARK                         _______ _______ _______ _____ _____    ______ ____
ROOT
ATOM      5  C   UNL     1      -2.283   1.845  24.497  0.00  0.00    +0.092 C 
ATOM      7  C   UNL     1      -1.787   0.527  25.168  0.00  0.00    +0.042 C 
ATOM      8  C   UNL     1      -1.053   2.414  23.772  0.00  0.00    +0.160 C 
ATOM     11  C   UNL     1      -0.293   0.409  24.810  0.00  0.00    +0.043 C 
ATOM     12  C   UNL     1       0.129   1.849  24.553  0.00  0.00    +0.145 C 
ENDROOT
BRANCH   7  14
ATOM      4  N   UNL     1      -4.577  -1.636  23.779  0.00  0.00    -0.263 NA
ATOM     14  C   UNL     1      -2.589  -0.699  24.786  0.00  0.00    -0.025 A 
ATOM     15  C   UNL     1      -2.121  -1.978  25.070  0.00  0.00    +0.007 A 
ATOM     16  C   UNL     1      -3.812  -0.583  24.146  0.00  0.00    +0.114 A 
ATOM     17  C   UNL     1      -2.879  -3.086  24.708  0.00  0.00    +0.020 A 
ATOM     18  C   UNL     1      -4.090  -2.863  24.070  0.00  0.00    +0.111 A 
ENDBRANCH   7  14
BRANCH   8   1
ATOM      1  O   UNL     1      -1.054   1.923  22.432  0.00  0.00    -0.388 OA
ATOM     20  H   UNL     1      -1.931   2.109  22.055  0.00  0.00    +0.210 HD
ENDBRANCH   8   1
BRANCH  12   2
ATOM      2  O   UNL     1       1.341   1.910  23.828  0.00  0.00    -0.389 OA
ATOM     21  H   UNL     1       2.065   1.967  24.474  0.00  0.00    +0.210 HD
ENDBRANCH  12   2
BRANCH   5   3
ATOM      3  N   UNL     1      -2.730   2.782  25.530  0.00  0.00    -0.310 NA
ATOM     19  H   UNL     1      -2.153   3.623  25.494  0.00  0.00    +0.122 HD
BRANCH   3  13
ATOM     13  C   UNL     1      -4.119   3.165  25.318  0.00  0.00    +0.084 C 
BRANCH  13   6
ATOM      6  C   UNL     1      -5.033   1.990  25.456  0.00  0.00    +0.003 C 
ATOM      9  C   UNL     1      -6.394   2.012  24.820  0.00  0.00    +0.005 C 
ATOM     10  C   UNL     1      -6.263   2.086  26.315  0.00  0.00    +0.005 C 
ENDBRANCH  13   6
ENDBRANCH   3  13
ENDBRANCH   5   3
TORSDOF 6
ENDMDL
MODEL 8
REMARK VINA RESULT:      -5.1      2.068      4.274
REMARK  Name = 75536116
REMARK  6 active torsions:
REMARK  status: ('A' for Active; 'I' for Inactive)
REMARK    1  A    between atoms: O_1  and  C_8
REMARK    2  A    between atoms: O_2  and  C_12
REMARK    3  A    between atoms: N_3  and  C_5
REMARK    4  A    between atoms: N_3  and  C_13
REMARK    5  A    between atoms: C_6  and  C_13
REMARK    6  A    between atoms: C_7  and  C_14
REMARK                            x       y       z     vdW  Elec       q    Type
REMARK                         _______ _______ _______ _____ _____    ______ ____
ROOT
ATOM      5  C   UNL     1      -1.455   1.898  24.562  0.00  0.00    +0.092 C 
ATOM      7  C   UNL     1      -2.678   2.774  24.147  0.00  0.00    +0.042 C 
ATOM      8  C   UNL     1      -0.418   2.890  25.109  0.00  0.00    +0.160 C 
ATOM     11  C   UNL     1      -2.278   4.229  24.461  0.00  0.00    +0.043 C 
ATOM     12  C   UNL     1      -0.757   4.202  24.409  0.00  0.00    +0.145 C 
ENDROOT
BRANCH   7  14
ATOM      4  N   UNL     1      -5.885   2.949  26.167  0.00  0.00    -0.263 NA
ATOM     14  C   UNL     1      -3.982   2.361  24.797  0.00  0.00    -0.025 A 
ATOM     15  C   UNL     1      -4.479   1.071  24.647  0.00  0.00    +0.007 A 
ATOM     16  C   UNL     1      -4.715   3.254  25.560  0.00  0.00    +0.114 A 
ATOM     17  C   UNL     1      -5.679   0.719  25.255  0.00  0.00    +0.020 A 
ATOM     18  C   UNL     1      -6.337   1.687  25.998  0.00  0.00    +0.111 A 
ENDBRANCH   7  14
BRANCH   8   1
ATOM      1  O   UNL     1      -0.606   3.006  26.519  0.00  0.00    -0.388 OA
ATOM     20  H   UNL     1      -0.832   3.934  26.707  0.00  0.00    +0.210 HD
ENDBRANCH   8   1
BRANCH  12   2
ATOM      2  O   UNL     1      -0.199   5.326  25.058  0.00  0.00    -0.389 OA
ATOM     21  H   UNL     1       0.768   5.226  25.036  0.00  0.00    +0.210 HD
ENDBRANCH  12   2
BRANCH   5   3
ATOM      3  N   UNL     1      -0.919   1.216  23.382  0.00  0.00    -0.310 NA
ATOM     19  H   UNL     1      -0.232   1.818  22.929  0.00  0.00    +0.122 HD
BRANCH   3  13
ATOM     13  C   UNL     1      -0.267  -0.032  23.755  0.00  0.00    +0.084 C 
BRANCH  13   6
ATOM      6  C   UNL     1      -0.994  -0.712  24.870  0.00  0.00    +0.003 C 
ATOM      9  C   UNL     1      -0.493  -2.022  25.412  0.00  0.00    +0.005 C 
ATOM     10  C   UNL     1      -1.764  -1.977  24.611  0.00  0.00    +0.005 C 
ENDBRANCH  13   6
ENDBRANCH   3  13
ENDBRANCH   5   3
TORSDOF 6
ENDMDL
MODEL 9
REMARK VINA RESULT:      -5.0      2.639      4.659
REMARK  Name = 75536116
REMARK  6 active torsions:
REMARK  status: ('A' for Active; 'I' for Inactive)
REMARK    1  A    between atoms: O_1  and  C_8
REMARK    2  A    between atoms: O_2  and  C_12
REMARK    3  A    between atoms: N_3  and  C_5
REMARK    4  A    between atoms: N_3  and  C_13
REMARK    5  A    between atoms: C_6  and  C_13
REMARK    6  A    between atoms: C_7  and  C_14
REMARK                            x       y       z     vdW  Elec       q    Type
REMARK                         _______ _______ _______ _____ _____    ______ ____
ROOT
ATOM      5  C   UNL     1      -2.454  -0.008  24.035  0.00  0.00    +0.092 C 
ATOM      7  C   UNL     1      -3.017   0.365  25.442  0.00  0.00    +0.042 C 
ATOM      8  C   UNL     1      -2.759  -1.504  23.865  0.00  0.00    +0.160 C 
ATOM     11  C   UNL     1      -3.603  -0.937  26.019  0.00  0.00    +0.043 C 
ATOM     12  C   UNL     1      -2.831  -2.031  25.295  0.00  0.00    +0.145 C 
ENDROOT
BRANCH   7  14
ATOM      4  N   UNL     1      -4.413   3.893  25.447  0.00  0.00    -0.263 NA
ATOM     14  C   UNL     1      -4.008   1.510  25.426  0.00  0.00    -0.025 A 
ATOM     15  C   UNL     1      -5.377   1.270  25.379  0.00  0.00    +0.007 A 
ATOM     16  C   UNL     1      -3.581   2.827  25.459  0.00  0.00    +0.114 A 
ATOM     17  C   UNL     1      -6.265   2.340  25.365  0.00  0.00    +0.020 A 
ATOM     18  C   UNL     1      -5.737   3.622  25.401  0.00  0.00    +0.111 A 
ENDBRANCH   7  14
BRANCH   8   1
ATOM      1  O   UNL     1      -4.022  -1.635  23.215  0.00  0.00    -0.388 OA
ATOM     20  H   UNL     1      -4.569  -0.877  23.486  0.00  0.00    +0.210 HD
ENDBRANCH   8   1
BRANCH  12   2
ATOM      2  O   UNL     1      -3.493  -3.276  25.384  0.00  0.00    -0.389 OA
ATOM     21  H   UNL     1      -3.846  -3.483  24.502  0.00  0.00    +0.210 HD
ENDBRANCH  12   2
BRANCH   5   3
ATOM      3  N   UNL     1      -1.006   0.211  24.014  0.00  0.00    -0.310 NA
ATOM     19  H   UNL     1      -0.575  -0.451  23.369  0.00  0.00    +0.122 HD
BRANCH   3  13
ATOM     13  C   UNL     1      -0.692   1.562  23.568  0.00  0.00    +0.084 C 
BRANCH  13   6
ATOM      6  C   UNL     1       0.214   2.255  24.534  0.00  0.00    +0.003 C 
ATOM      9  C   UNL     1      -0.099   2.248  26.004  0.00  0.00    +0.005 C 
ATOM     10  C   UNL     1      -0.230   3.520  25.214  0.00  0.00    +0.005 C 
ENDBRANCH  13   6
ENDBRANCH   3  13
ENDBRANCH   5   3
TORSDOF 6
ENDMDL
MODEL 10
REMARK VINA RESULT:      -4.5      1.856      5.180
REMARK  Name = 75536116
REMARK  6 active torsions:
REMARK  status: ('A' for Active; 'I' for Inactive)
REMARK    1  A    between atoms: O_1  and  C_8
REMARK    2  A    between atoms: O_2  and  C_12
REMARK    3  A    between atoms: N_3  and  C_5
REMARK    4  A    between atoms: N_3  and  C_13
REMARK    5  A    between atoms: C_6  and  C_13
REMARK    6  A    between atoms: C_7  and  C_14
REMARK                            x       y       z     vdW  Elec       q    Type
REMARK                         _______ _______ _______ _____ _____    ______ ____
ROOT
ATOM      5  C   UNL     1      -2.500   0.520  25.575  0.00  0.00    +0.092 C 
ATOM      7  C   UNL     1      -2.026   1.374  24.358  0.00  0.00    +0.042 C 
ATOM      8  C   UNL     1      -1.422  -0.562  25.749  0.00  0.00    +0.160 C 
ATOM     11  C   UNL     1      -0.709   0.734  23.882  0.00  0.00    +0.043 C 
ATOM     12  C   UNL     1      -0.818  -0.708  24.356  0.00  0.00    +0.145 C 
ENDROOT
BRANCH   7  14
ATOM      4  N   UNL     1      -2.912   4.897  25.454  0.00  0.00    -0.263 NA
ATOM     14  C   UNL     1      -1.896   2.853  24.656  0.00  0.00    -0.025 A 
ATOM     15  C   UNL     1      -0.703   3.528  24.424  0.00  0.00    +0.007 A 
ATOM     16  C   UNL     1      -2.961   3.576  25.167  0.00  0.00    +0.114 A 
ATOM     17  C   UNL     1      -0.612   4.886  24.707  0.00  0.00    +0.020 A 
ATOM     18  C   UNL     1      -1.736   5.519  25.216  0.00  0.00    +0.111 A 
ENDBRANCH   7  14
BRANCH   8   1
ATOM      1  O   UNL     1      -0.447  -0.081  26.673  0.00  0.00    -0.388 OA
ATOM     20  H   UNL     1      -0.920   0.416  27.363  0.00  0.00    +0.210 HD
ENDBRANCH   8   1
BRANCH  12   2
ATOM      2  O   UNL     1       0.444  -1.344  24.373  0.00  0.00    -0.389 OA
ATOM     21  H   UNL     1       0.906  -1.098  23.554  0.00  0.00    +0.210 HD
ENDBRANCH  12   2
BRANCH   5   3
ATOM      3  N   UNL     1      -3.787  -0.105  25.263  0.00  0.00    -0.310 NA
ATOM     19  H   UNL     1      -4.526   0.593  25.336  0.00  0.00    +0.122 HD
BRANCH   3  13
ATOM     13  C   UNL     1      -3.789  -0.643  23.910  0.00  0.00    +0.084 C 
BRANCH  13   6
ATOM      6  C   UNL     1      -4.176  -2.087  23.900  0.00  0.00    +0.003 C 
ATOM      9  C   UNL     1      -3.719  -3.000  25.003  0.00  0.00    +0.005 C 
ATOM     10  C   UNL     1      -3.145  -3.145  23.622  0.00  0.00    +0.005 C 
ENDBRANCH  13   6
ENDBRANCH   3  13
ENDBRANCH   5   3
TORSDOF 6
ENDMDL
