MODEL 1
REMARK VINA RESULT:      -1.1      0.000      0.000
REMARK  Name = 28960506
REMARK  8 active torsions:
REMARK  status: ('A' for Active; 'I' for Inactive)
REMARK    1  A    between atoms: O_6  and  C_13
REMARK    2  A    between atoms: O_8  and  C_30
REMARK    3  A    between atoms: O_8  and  C_31
REMARK    4  A    between atoms: N_9  and  C_12
REMARK    5  A    between atoms: N_10  and  C_14
REMARK    6  A    between atoms: N_10  and  C_23
REMARK    7  A    between atoms: C_22  and  C_24
REMARK    8  A    between atoms: C_23  and  C_25
REMARK                            x       y       z     vdW  Elec       q    Type
REMARK                         _______ _______ _______ _____ _____    ______ ____
ROOT
ATOM      4  O   UNL     1      -5.381   2.788  26.418  0.00  0.00    -0.343 OA
ATOM      5  O   UNL     1      -6.434   4.012  24.753  0.00  0.00    -0.347 OA
ATOM     12  C   UNL     1      -4.554   2.614  24.156  0.00  0.00    +0.143 C 
ATOM     13  C   UNL     1      -3.576   3.785  24.408  0.00  0.00    +0.156 C 
ATOM     14  C   UNL     1      -3.567   4.291  25.871  0.00  0.00    +0.116 C 
ATOM     15  C   UNL     1      -5.802   2.755  25.047  0.00  0.00    +0.270 C 
ATOM     16  C   UNL     1      -4.945   4.145  26.557  0.00  0.00    +0.166 C 
ATOM     17  C   UNL     1      -6.075   4.869  25.847  0.00  0.00    +0.196 C 
ENDROOT
BRANCH  12   9
ATOM      9  N   UNL     1      -3.900   1.329  24.411  0.00  0.00    -0.293 NA
ATOM     18  C   UNL     1      -4.761   0.469  25.235  0.00  0.00    +0.085 C 
ATOM     19  C   UNL     1      -3.549   0.671  23.145  0.00  0.00    +0.085 C 
ATOM     20  C   UNL     1      -4.069  -0.856  25.556  0.00  0.00    +0.028 C 
ATOM     21  C   UNL     1      -2.816  -0.648  23.393  0.00  0.00    +0.028 C 
ATOM     22  C   UNL     1      -3.639  -1.580  24.282  0.00  0.00    +0.077 C 
BRANCH  22  24
ATOM      7  O   UNL     1      -3.300  -3.736  25.252  0.00  0.00    -0.276 OA
ATOM     11  N   UNL     1      -1.527  -2.731  24.184  0.00  0.00    -0.329 N 
ATOM     24  C   UNL     1      -2.829  -2.792  24.622  0.00  0.00    +0.214 C 
ATOM     34  H   UNL     1      -1.160  -1.933  23.676  0.00  0.00    +0.145 HD
ATOM     35  H   UNL     1      -0.882  -3.493  24.361  0.00  0.00    +0.145 HD
ENDBRANCH  22  24
ENDBRANCH  12   9
BRANCH  13   6
ATOM      6  O   UNL     1      -3.969   4.869  23.553  0.00  0.00    -0.388 OA
ATOM     33  H   UNL     1      -3.732   4.626  22.642  0.00  0.00    +0.210 HD
ENDBRANCH  13   6
BRANCH  14  10
ATOM     10  N   UNL     1      -2.581   3.552  26.666  0.00  0.00    -0.305 NA
ATOM     32  H   UNL     1      -2.750   2.551  26.576  0.00  0.00    +0.123 HD
BRANCH  10  23
ATOM     23  C   UNL     1      -1.232   3.875  26.232  0.00  0.00    +0.116 C 
BRANCH  23  25
ATOM     25  C   UNL     1      -0.631   2.772  25.403  0.00  0.00    -0.033 A 
ATOM     26  C   UNL     1       0.081   3.078  24.243  0.00  0.00    +0.008 A 
ATOM     27  C   UNL     1      -0.784   1.442  25.796  0.00  0.00    +0.008 A 
ATOM     28  C   UNL     1       0.638   2.056  23.476  0.00  0.00    +0.046 A 
ATOM     29  C   UNL     1      -0.227   0.420  25.029  0.00  0.00    +0.046 A 
ATOM     30  C   UNL     1       0.484   0.726  23.868  0.00  0.00    +0.130 A 
BRANCH  30   8
ATOM      8  O   UNL     1       1.029  -0.271  23.120  0.00  0.00    -0.406 OA
BRANCH   8  31
ATOM      1  F   UNL     1       3.139  -1.062  22.994  0.00  0.00    -0.133 F 
ATOM      2  F   UNL     1       2.289  -0.113  21.218  0.00  0.00    -0.133 F 
ATOM      3  F   UNL     1       2.851   1.104  22.976  0.00  0.00    -0.133 F 
ATOM     31  C   UNL     1       2.325  -0.070  22.568  0.00  0.00    +0.575 C 
ENDBRANCH   8  31
ENDBRANCH  30   8
ENDBRANCH  23  25
ENDBRANCH  10  23
ENDBRANCH  14  10
TORSDOF 8
ENDMDL
MODEL 2
REMARK VINA RESULT:      -0.9      1.965      2.983
REMARK  Name = 28960506
REMARK  8 active torsions:
REMARK  status: ('A' for Active; 'I' for Inactive)
REMARK    1  A    between atoms: O_6  and  C_13
REMARK    2  A    between atoms: O_8  and  C_30
REMARK    3  A    between atoms: O_8  and  C_31
REMARK    4  A    between atoms: N_9  and  C_12
REMARK    5  A    between atoms: N_10  and  C_14
REMARK    6  A    between atoms: N_10  and  C_23
REMARK    7  A    between atoms: C_22  and  C_24
REMARK    8  A    between atoms: C_23  and  C_25
REMARK                            x       y       z     vdW  Elec       q    Type
REMARK                         _______ _______ _______ _____ _____    ______ ____
ROOT
ATOM      4  O   UNL     1      -1.707   2.626  25.741  0.00  0.00    -0.343 OA
ATOM      5  O   UNL     1      -2.906   4.572  26.125  0.00  0.00    -0.347 OA
ATOM     12  C   UNL     1      -4.037   2.692  25.109  0.00  0.00    +0.143 C 
ATOM     13  C   UNL     1      -3.655   3.198  23.699  0.00  0.00    +0.156 C 
ATOM     14  C   UNL     1      -2.128   3.251  23.443  0.00  0.00    +0.116 C 
ATOM     15  C   UNL     1      -2.985   3.138  26.143  0.00  0.00    +0.270 C 
ATOM     16  C   UNL     1      -1.323   3.560  24.726  0.00  0.00    +0.166 C 
ATOM     17  C   UNL     1      -1.703   4.867  25.400  0.00  0.00    +0.196 C 
ENDROOT
BRANCH  12   9
ATOM      9  N   UNL     1      -4.163   1.234  25.120  0.00  0.00    -0.293 NA
ATOM     18  C   UNL     1      -4.241   0.714  23.748  0.00  0.00    +0.085 C 
ATOM     19  C   UNL     1      -3.044   0.627  25.854  0.00  0.00    +0.085 C 
ATOM     20  C   UNL     1      -4.428  -0.803  23.744  0.00  0.00    +0.028 C 
ATOM     21  C   UNL     1      -3.189  -0.893  25.923  0.00  0.00    +0.028 C 
ATOM     22  C   UNL     1      -3.318  -1.501  24.526  0.00  0.00    +0.077 C 
BRANCH  22  24
ATOM      7  O   UNL     1      -3.207  -3.637  25.590  0.00  0.00    -0.276 OA
ATOM     11  N   UNL     1      -4.329  -3.473  23.588  0.00  0.00    -0.329 N 
ATOM     24  C   UNL     1      -3.606  -2.965  24.641  0.00  0.00    +0.214 C 
ATOM     34  H   UNL     1      -4.636  -2.898  22.809  0.00  0.00    +0.145 HD
ATOM     35  H   UNL     1      -4.581  -4.455  23.554  0.00  0.00    +0.145 HD
ENDBRANCH  22  24
ENDBRANCH  12   9
BRANCH  13   6
ATOM      6  O   UNL     1      -4.187   4.523  23.554  0.00  0.00    -0.388 OA
ATOM     33  H   UNL     1      -4.707   4.719  24.351  0.00  0.00    +0.210 HD
ENDBRANCH  13   6
BRANCH  14  10
ATOM     10  N   UNL     1      -1.652   1.973  22.902  0.00  0.00    -0.305 NA
ATOM     32  H   UNL     1      -1.045   2.148  22.100  0.00  0.00    +0.123 HD
BRANCH  10  23
ATOM     23  C   UNL     1      -0.936   1.224  23.921  0.00  0.00    +0.116 C 
BRANCH  23  25
ATOM     25  C   UNL     1       0.487   0.944  23.515  0.00  0.00    -0.033 A 
ATOM     26  C   UNL     1       0.841  -0.317  23.034  0.00  0.00    +0.008 A 
ATOM     27  C   UNL     1       1.450   1.947  23.617  0.00  0.00    +0.008 A 
ATOM     28  C   UNL     1       2.158  -0.575  22.658  0.00  0.00    +0.046 A 
ATOM     29  C   UNL     1       2.768   1.688  23.240  0.00  0.00    +0.046 A 
ATOM     30  C   UNL     1       3.122   0.427  22.761  0.00  0.00    +0.130 A 
BRANCH  30   8
ATOM      8  O   UNL     1       4.408   0.175  22.392  0.00  0.00    -0.406 OA
BRANCH   8  31
ATOM      1  F   UNL     1       6.569  -0.292  22.848  0.00  0.00    -0.133 F 
ATOM      2  F   UNL     1       5.402   0.760  24.367  0.00  0.00    -0.133 F 
ATOM      3  F   UNL     1       5.029  -1.379  23.953  0.00  0.00    -0.133 F 
ATOM     31  C   UNL     1       5.341  -0.186  23.405  0.00  0.00    +0.575 C 
ENDBRANCH   8  31
ENDBRANCH  30   8
ENDBRANCH  23  25
ENDBRANCH  10  23
ENDBRANCH  14  10
TORSDOF 8
ENDMDL
MODEL 3
REMARK VINA RESULT:      -0.5      1.523      2.044
REMARK  Name = 28960506
REMARK  8 active torsions:
REMARK  status: ('A' for Active; 'I' for Inactive)
REMARK    1  A    between atoms: O_6  and  C_13
REMARK    2  A    between atoms: O_8  and  C_30
REMARK    3  A    between atoms: O_8  and  C_31
REMARK    4  A    between atoms: N_9  and  C_12
REMARK    5  A    between atoms: N_10  and  C_14
REMARK    6  A    between atoms: N_10  and  C_23
REMARK    7  A    between atoms: C_22  and  C_24
REMARK    8  A    between atoms: C_23  and  C_25
REMARK                            x       y       z     vdW  Elec       q    Type
REMARK                         _______ _______ _______ _____ _____    ______ ____
ROOT
ATOM      4  O   UNL     1      -4.070   2.925  26.086  0.00  0.00    -0.343 OA
ATOM      5  O   UNL     1      -6.239   2.694  26.874  0.00  0.00    -0.347 OA
ATOM     12  C   UNL     1      -5.372   1.027  25.352  0.00  0.00    +0.143 C 
ATOM     13  C   UNL     1      -5.891   1.833  24.140  0.00  0.00    +0.156 C 
ATOM     14  C   UNL     1      -5.250   3.236  23.998  0.00  0.00    +0.116 C 
ATOM     15  C   UNL     1      -5.047   1.970  26.526  0.00  0.00    +0.270 C 
ATOM     16  C   UNL     1      -4.879   3.860  25.363  0.00  0.00    +0.166 C 
ATOM     17  C   UNL     1      -6.050   4.005  26.320  0.00  0.00    +0.196 C 
ENDROOT
BRANCH  12   9
ATOM      9  N   UNL     1      -4.184   0.253  24.990  0.00  0.00    -0.293 NA
ATOM     18  C   UNL     1      -3.437  -0.137  26.194  0.00  0.00    +0.085 C 
ATOM     19  C   UNL     1      -4.560  -0.924  24.195  0.00  0.00    +0.085 C 
ATOM     20  C   UNL     1      -2.163  -0.900  25.829  0.00  0.00    +0.028 C 
ATOM     21  C   UNL     1      -3.326  -1.715  23.761  0.00  0.00    +0.028 C 
ATOM     22  C   UNL     1      -2.476  -2.120  24.966  0.00  0.00    +0.077 C 
BRANCH  22  24
ATOM      7  O   UNL     1      -1.165  -3.452  23.479  0.00  0.00    -0.276 OA
ATOM     11  N   UNL     1      -0.125  -2.511  25.304  0.00  0.00    -0.329 N 
ATOM     24  C   UNL     1      -1.208  -2.759  24.493  0.00  0.00    +0.214 C 
ATOM     34  H   UNL     1      -0.191  -1.945  26.144  0.00  0.00    +0.145 HD
ATOM     35  H   UNL     1       0.788  -2.896  25.086  0.00  0.00    +0.145 HD
ENDBRANCH  22  24
ENDBRANCH  12   9
BRANCH  13   6
ATOM      6  O   UNL     1      -7.308   1.995  24.301  0.00  0.00    -0.388 OA
ATOM     33  H   UNL     1      -7.469   2.281  25.216  0.00  0.00    +0.210 HD
ENDBRANCH  13   6
BRANCH  14  10
ATOM     10  N   UNL     1      -4.032   3.165  23.183  0.00  0.00    -0.305 NA
ATOM     32  H   UNL     1      -4.128   3.777  22.372  0.00  0.00    +0.123 HD
BRANCH  10  23
ATOM     23  C   UNL     1      -2.871   3.551  23.967  0.00  0.00    +0.116 C 
BRANCH  23  25
ATOM     25  C   UNL     1      -1.759   2.543  23.856  0.00  0.00    -0.033 A 
ATOM     26  C   UNL     1      -0.655   2.624  24.705  0.00  0.00    +0.008 A 
ATOM     27  C   UNL     1      -1.833   1.526  22.904  0.00  0.00    +0.008 A 
ATOM     28  C   UNL     1       0.374   1.690  24.602  0.00  0.00    +0.046 A 
ATOM     29  C   UNL     1      -0.803   0.591  22.801  0.00  0.00    +0.046 A 
ATOM     30  C   UNL     1       0.301   0.673  23.650  0.00  0.00    +0.130 A 
BRANCH  30   8
ATOM      8  O   UNL     1       1.305  -0.239  23.550  0.00  0.00    -0.406 OA
BRANCH   8  31
ATOM      1  F   UNL     1       3.436  -0.776  23.033  0.00  0.00    -0.133 F 
ATOM      2  F   UNL     1       2.145  -0.039  21.432  0.00  0.00    -0.133 F 
ATOM      3  F   UNL     1       2.873   1.335  23.003  0.00  0.00    -0.133 F 
ATOM     31  C   UNL     1       2.434   0.085  22.745  0.00  0.00    +0.575 C 
ENDBRANCH   8  31
ENDBRANCH  30   8
ENDBRANCH  23  25
ENDBRANCH  10  23
ENDBRANCH  14  10
TORSDOF 8
ENDMDL
MODEL 4
REMARK VINA RESULT:      -0.2      2.349      5.273
REMARK  Name = 28960506
REMARK  8 active torsions:
REMARK  status: ('A' for Active; 'I' for Inactive)
REMARK    1  A    between atoms: O_6  and  C_13
REMARK    2  A    between atoms: O_8  and  C_30
REMARK    3  A    between atoms: O_8  and  C_31
REMARK    4  A    between atoms: N_9  and  C_12
REMARK    5  A    between atoms: N_10  and  C_14
REMARK    6  A    between atoms: N_10  and  C_23
REMARK    7  A    between atoms: C_22  and  C_24
REMARK    8  A    between atoms: C_23  and  C_25
REMARK                            x       y       z     vdW  Elec       q    Type
REMARK                         _______ _______ _______ _____ _____    ______ ____
ROOT
ATOM      4  O   UNL     1      -2.796  -0.969  23.266  0.00  0.00    -0.343 OA
ATOM      5  O   UNL     1      -4.742  -1.885  24.134  0.00  0.00    -0.347 OA
ATOM     12  C   UNL     1      -3.842   0.114  25.155  0.00  0.00    +0.143 C 
ATOM     13  C   UNL     1      -2.997  -0.739  26.129  0.00  0.00    +0.156 C 
ATOM     14  C   UNL     1      -1.948  -1.637  25.430  0.00  0.00    +0.116 C 
ATOM     15  C   UNL     1      -4.073  -0.648  23.836  0.00  0.00    +0.270 C 
ATOM     16  C   UNL     1      -2.412  -2.115  24.034  0.00  0.00    +0.166 C 
ATOM     17  C   UNL     1      -3.719  -2.888  24.044  0.00  0.00    +0.196 C 
ENDROOT
BRANCH  12   9
ATOM      9  N   UNL     1      -3.185   1.394  24.884  0.00  0.00    -0.293 NA
ATOM     18  C   UNL     1      -4.149   2.498  24.992  0.00  0.00    +0.085 C 
ATOM     19  C   UNL     1      -2.048   1.591  25.793  0.00  0.00    +0.085 C 
ATOM     20  C   UNL     1      -3.491   3.837  24.658  0.00  0.00    +0.028 C 
ATOM     21  C   UNL     1      -1.318   2.899  25.487  0.00  0.00    +0.028 C 
ATOM     22  C   UNL     1      -2.272   4.092  25.542  0.00  0.00    +0.077 C 
BRANCH  22  24
ATOM      7  O   UNL     1      -2.085   6.436  25.123  0.00  0.00    -0.276 OA
ATOM     11  N   UNL     1      -0.280   5.095  24.636  0.00  0.00    -0.329 N 
ATOM     24  C   UNL     1      -1.556   5.328  25.093  0.00  0.00    +0.214 C 
ATOM     34  H   UNL     1       0.129   4.166  24.610  0.00  0.00    +0.145 HD
ATOM     35  H   UNL     1       0.300   5.856  24.302  0.00  0.00    +0.145 HD
ENDBRANCH  22  24
ENDBRANCH  12   9
BRANCH  13   6
ATOM      6  O   UNL     1      -3.899  -1.580  26.864  0.00  0.00    -0.388 OA
ATOM     33  H   UNL     1      -4.666  -1.038  27.116  0.00  0.00    +0.210 HD
ENDBRANCH  13   6
BRANCH  14  10
ATOM     10  N   UNL     1      -0.680  -0.918  25.268  0.00  0.00    -0.305 NA
ATOM     32  H   UNL     1       0.097  -1.543  25.484  0.00  0.00    +0.123 HD
BRANCH  10  23
ATOM     23  C   UNL     1      -0.552  -0.410  23.912  0.00  0.00    +0.116 C 
BRANCH  23  25
ATOM     25  C   UNL     1       0.884  -0.150  23.543  0.00  0.00    -0.033 A 
ATOM     26  C   UNL     1       1.368   1.158  23.500  0.00  0.00    +0.008 A 
ATOM     27  C   UNL     1       1.731  -1.218  23.246  0.00  0.00    +0.008 A 
ATOM     28  C   UNL     1       2.698   1.397  23.159  0.00  0.00    +0.046 A 
ATOM     29  C   UNL     1       3.062  -0.977  22.905  0.00  0.00    +0.046 A 
ATOM     30  C   UNL     1       3.545   0.330  22.861  0.00  0.00    +0.130 A 
BRANCH  30   8
ATOM      8  O   UNL     1       4.844   0.565  22.529  0.00  0.00    -0.406 OA
BRANCH   8  31
ATOM      1  F   UNL     1       6.162   1.165  24.260  0.00  0.00    -0.133 F 
ATOM      2  F   UNL     1       5.432  -0.893  24.190  0.00  0.00    -0.133 F 
ATOM      3  F   UNL     1       6.984  -0.209  22.772  0.00  0.00    -0.133 F 
ATOM     31  C   UNL     1       5.859   0.140  23.432  0.00  0.00    +0.575 C 
ENDBRANCH   8  31
ENDBRANCH  30   8
ENDBRANCH  23  25
ENDBRANCH  10  23
ENDBRANCH  14  10
TORSDOF 8
ENDMDL
MODEL 5
REMARK VINA RESULT:      -0.1      2.111      5.222
REMARK  Name = 28960506
REMARK  8 active torsions:
REMARK  status: ('A' for Active; 'I' for Inactive)
REMARK    1  A    between atoms: O_6  and  C_13
REMARK    2  A    between atoms: O_8  and  C_30
REMARK    3  A    between atoms: O_8  and  C_31
REMARK    4  A    between atoms: N_9  and  C_12
REMARK    5  A    between atoms: N_10  and  C_14
REMARK    6  A    between atoms: N_10  and  C_23
REMARK    7  A    between atoms: C_22  and  C_24
REMARK    8  A    between atoms: C_23  and  C_25
REMARK                            x       y       z     vdW  Elec       q    Type
REMARK                         _______ _______ _______ _____ _____    ______ ____
ROOT
ATOM      4  O   UNL     1      -2.955  -1.083  23.352  0.00  0.00    -0.343 OA
ATOM      5  O   UNL     1      -3.808  -2.954  24.422  0.00  0.00    -0.347 OA
ATOM     12  C   UNL     1      -4.265  -0.772  25.357  0.00  0.00    +0.143 C 
ATOM     13  C   UNL     1      -2.986  -0.851  26.222  0.00  0.00    +0.156 C 
ATOM     14  C   UNL     1      -1.677  -0.943  25.400  0.00  0.00    +0.116 C 
ATOM     15  C   UNL     1      -4.092  -1.591  24.065  0.00  0.00    +0.270 C 
ATOM     16  C   UNL     1      -1.869  -1.691  24.060  0.00  0.00    +0.166 C 
ATOM     17  C   UNL     1      -2.397  -3.106  24.208  0.00  0.00    +0.196 C 
ENDROOT
BRANCH  12   9
ATOM      9  N   UNL     1      -4.582   0.619  25.028  0.00  0.00    -0.293 NA
ATOM     18  C   UNL     1      -5.858   1.013  25.641  0.00  0.00    +0.085 C 
ATOM     19  C   UNL     1      -3.493   1.509  25.453  0.00  0.00    +0.085 C 
ATOM     20  C   UNL     1      -6.231   2.447  25.261  0.00  0.00    +0.028 C 
ATOM     21  C   UNL     1      -3.784   2.960  25.068  0.00  0.00    +0.028 C 
ATOM     22  C   UNL     1      -5.123   3.427  25.638  0.00  0.00    +0.077 C 
BRANCH  22  24
ATOM      7  O   UNL     1      -4.740   5.351  24.276  0.00  0.00    -0.276 OA
ATOM     11  N   UNL     1      -6.560   5.357  25.685  0.00  0.00    -0.329 N 
ATOM     24  C   UNL     1      -5.440   4.794  25.119  0.00  0.00    +0.214 C 
ATOM     34  H   UNL     1      -7.114   4.880  26.389  0.00  0.00    +0.145 HD
ATOM     35  H   UNL     1      -6.870   6.284  25.414  0.00  0.00    +0.145 HD
ENDBRANCH  22  24
ENDBRANCH  12   9
BRANCH  13   6
ATOM      6  O   UNL     1      -3.090  -2.024  27.044  0.00  0.00    -0.388 OA
ATOM     33  H   UNL     1      -4.035  -2.190  27.199  0.00  0.00    +0.210 HD
ENDBRANCH  13   6
BRANCH  14  10
ATOM     10  N   UNL     1      -1.159   0.397  25.105  0.00  0.00    -0.305 NA
ATOM     32  H   UNL     1      -0.287   0.546  25.613  0.00  0.00    +0.123 HD
BRANCH  10  23
ATOM     23  C   UNL     1      -0.943   0.556  23.677  0.00  0.00    +0.116 C 
BRANCH  23  25
ATOM     25  C   UNL     1       0.522   0.548  23.327  0.00  0.00    -0.033 A 
ATOM     26  C   UNL     1       1.362   1.550  23.811  0.00  0.00    +0.008 A 
ATOM     27  C   UNL     1       1.038  -0.466  22.520  0.00  0.00    +0.008 A 
ATOM     28  C   UNL     1       2.717   1.541  23.486  0.00  0.00    +0.046 A 
ATOM     29  C   UNL     1       2.395  -0.475  22.196  0.00  0.00    +0.046 A 
ATOM     30  C   UNL     1       3.235   0.529  22.679  0.00  0.00    +0.130 A 
BRANCH  30   8
ATOM      8  O   UNL     1       4.558   0.519  22.364  0.00  0.00    -0.406 OA
BRANCH   8  31
ATOM      1  F   UNL     1       6.637  -0.299  22.687  0.00  0.00    -0.133 F 
ATOM      2  F   UNL     1       5.740   0.891  24.286  0.00  0.00    -0.133 F 
ATOM      3  F   UNL     1       5.004  -1.150  23.864  0.00  0.00    -0.133 F 
ATOM     31  C   UNL     1       5.475  -0.010  23.315  0.00  0.00    +0.575 C 
ENDBRANCH   8  31
ENDBRANCH  30   8
ENDBRANCH  23  25
ENDBRANCH  10  23
ENDBRANCH  14  10
TORSDOF 8
ENDMDL
MODEL 6
REMARK VINA RESULT:       0.5      4.122      7.051
REMARK  Name = 28960506
REMARK  8 active torsions:
REMARK  status: ('A' for Active; 'I' for Inactive)
REMARK    1  A    between atoms: O_6  and  C_13
REMARK    2  A    between atoms: O_8  and  C_30
REMARK    3  A    between atoms: O_8  and  C_31
REMARK    4  A    between atoms: N_9  and  C_12
REMARK    5  A    between atoms: N_10  and  C_14
REMARK    6  A    between atoms: N_10  and  C_23
REMARK    7  A    between atoms: C_22  and  C_24
REMARK    8  A    between atoms: C_23  and  C_25
REMARK                            x       y       z     vdW  Elec       q    Type
REMARK                         _______ _______ _______ _____ _____    ______ ____
ROOT
ATOM      4  O   UNL     1      -0.174  -0.121  25.549  0.00  0.00    -0.343 OA
ATOM      5  O   UNL     1      -1.602  -1.331  24.180  0.00  0.00    -0.347 OA
ATOM     12  C   UNL     1       0.450  -0.464  23.242  0.00  0.00    +0.143 C 
ATOM     13  C   UNL     1      -0.263   0.846  22.839  0.00  0.00    +0.156 C 
ATOM     14  C   UNL     1      -0.817   1.654  24.038  0.00  0.00    +0.116 C 
ATOM     15  C   UNL     1      -0.220  -1.081  24.484  0.00  0.00    +0.270 C 
ATOM     16  C   UNL     1      -1.261   0.746  25.209  0.00  0.00    +0.166 C 
ATOM     17  C   UNL     1      -2.321  -0.276  24.837  0.00  0.00    +0.196 C 
ENDROOT
BRANCH  12   9
ATOM      9  N   UNL     1       1.869  -0.222  23.508  0.00  0.00    -0.293 NA
ATOM     18  C   UNL     1       2.611  -1.490  23.532  0.00  0.00    +0.085 C 
ATOM     19  C   UNL     1       2.429   0.701  22.511  0.00  0.00    +0.085 C 
ATOM     20  C   UNL     1       4.086  -1.259  23.864  0.00  0.00    +0.028 C 
ATOM     21  C   UNL     1       3.897   1.008  22.807  0.00  0.00    +0.028 C 
ATOM     22  C   UNL     1       4.726  -0.274  22.888  0.00  0.00    +0.077 C 
BRANCH  22  24
ATOM      7  O   UNL     1       7.107  -0.384  22.740  0.00  0.00    -0.276 OA
ATOM     11  N   UNL     1       6.177   0.867  24.432  0.00  0.00    -0.329 N 
ATOM     24  C   UNL     1       6.119   0.056  23.323  0.00  0.00    +0.214 C 
ATOM     34  H   UNL     1       5.344   1.207  24.903  0.00  0.00    +0.145 HD
ATOM     35  H   UNL     1       7.068   1.155  24.821  0.00  0.00    +0.145 HD
ENDBRANCH  22  24
ENDBRANCH  12   9
BRANCH  13   6
ATOM      6  O   UNL     1      -1.358   0.498  21.979  0.00  0.00    -0.388 OA
ATOM     33  H   UNL     1      -1.643   1.309  21.524  0.00  0.00    +0.210 HD
ENDBRANCH  13   6
BRANCH  14  10
ATOM     10  N   UNL     1       0.195   2.588  24.543  0.00  0.00    -0.305 NA
ATOM     32  H   UNL     1       0.921   2.717  23.839  0.00  0.00    +0.123 HD
BRANCH  10  23
ATOM     23  C   UNL     1      -0.413   3.865  24.878  0.00  0.00    +0.116 C 
BRANCH  23  25
ATOM     25  C   UNL     1      -1.893   3.735  25.120  0.00  0.00    -0.033 A 
ATOM     26  C   UNL     1      -2.404   3.864  26.412  0.00  0.00    +0.008 A 
ATOM     27  C   UNL     1      -2.754   3.489  24.051  0.00  0.00    +0.008 A 
ATOM     28  C   UNL     1      -3.774   3.744  26.635  0.00  0.00    +0.046 A 
ATOM     29  C   UNL     1      -4.126   3.370  24.275  0.00  0.00    +0.046 A 
ATOM     30  C   UNL     1      -4.636   3.497  25.567  0.00  0.00    +0.130 A 
BRANCH  30   8
ATOM      8  O   UNL     1      -5.975   3.381  25.784  0.00  0.00    -0.406 OA
BRANCH   8  31
ATOM      1  F   UNL     1      -5.545   1.165  25.772  0.00  0.00    -0.133 F 
ATOM      2  F   UNL     1      -7.237   1.878  26.957  0.00  0.00    -0.133 F 
ATOM      3  F   UNL     1      -7.344   1.869  24.749  0.00  0.00    -0.133 F 
ATOM     31  C   UNL     1      -6.543   2.077  25.816  0.00  0.00    +0.575 C 
ENDBRANCH   8  31
ENDBRANCH  30   8
ENDBRANCH  23  25
ENDBRANCH  10  23
ENDBRANCH  14  10
TORSDOF 8
ENDMDL
MODEL 7
REMARK VINA RESULT:       1.5      2.447      5.457
REMARK  Name = 28960506
REMARK  8 active torsions:
REMARK  status: ('A' for Active; 'I' for Inactive)
REMARK    1  A    between atoms: O_6  and  C_13
REMARK    2  A    between atoms: O_8  and  C_30
REMARK    3  A    between atoms: O_8  and  C_31
REMARK    4  A    between atoms: N_9  and  C_12
REMARK    5  A    between atoms: N_10  and  C_14
REMARK    6  A    between atoms: N_10  and  C_23
REMARK    7  A    between atoms: C_22  and  C_24
REMARK    8  A    between atoms: C_23  and  C_25
REMARK                            x       y       z     vdW  Elec       q    Type
REMARK                         _______ _______ _______ _____ _____    ______ ____
ROOT
ATOM      4  O   UNL     1      -3.863  -0.611  24.487  0.00  0.00    -0.343 OA
ATOM      5  O   UNL     1      -3.566  -2.463  25.851  0.00  0.00    -0.347 OA
ATOM     12  C   UNL     1      -2.076  -0.576  26.112  0.00  0.00    +0.143 C 
ATOM     13  C   UNL     1      -1.101  -1.176  25.074  0.00  0.00    +0.156 C 
ATOM     14  C   UNL     1      -1.708  -1.330  23.658  0.00  0.00    +0.116 C 
ATOM     15  C   UNL     1      -3.519  -1.027  25.817  0.00  0.00    +0.270 C 
ATOM     16  C   UNL     1      -3.227  -1.618  23.692  0.00  0.00    +0.166 C 
ATOM     17  C   UNL     1      -3.607  -2.863  24.474  0.00  0.00    +0.196 C 
ENDROOT
BRANCH  12   9
ATOM      9  N   UNL     1      -1.999   0.885  26.112  0.00  0.00    -0.293 NA
ATOM     18  C   UNL     1      -0.616   1.327  25.886  0.00  0.00    +0.085 C 
ATOM     19  C   UNL     1      -2.907   1.448  25.103  0.00  0.00    +0.085 C 
ATOM     20  C   UNL     1      -0.509   2.851  25.938  0.00  0.00    +0.028 C 
ATOM     21  C   UNL     1      -2.879   2.977  25.127  0.00  0.00    +0.028 C 
ATOM     22  C   UNL     1      -1.458   3.508  24.939  0.00  0.00    +0.077 C 
BRANCH  22  24
ATOM      7  O   UNL     1      -0.525   5.695  24.714  0.00  0.00    -0.276 OA
ATOM     11  N   UNL     1      -2.553   5.479  25.780  0.00  0.00    -0.329 N 
ATOM     24  C   UNL     1      -1.451   4.994  25.116  0.00  0.00    +0.214 C 
ATOM     34  H   UNL     1      -3.298   4.876  26.113  0.00  0.00    +0.145 HD
ATOM     35  H   UNL     1      -2.656   6.472  25.962  0.00  0.00    +0.145 HD
ENDBRANCH  22  24
ENDBRANCH  12   9
BRANCH  13   6
ATOM      6  O   UNL     1      -0.710  -2.475  25.545  0.00  0.00    -0.388 OA
ATOM     33  H   UNL     1      -1.171  -3.135  25.001  0.00  0.00    +0.210 HD
ENDBRANCH  13   6
BRANCH  14  10
ATOM     10  N   UNL     1      -1.492  -0.113  22.869  0.00  0.00    -0.305 NA
ATOM     32  H   UNL     1      -1.144   0.630  23.475  0.00  0.00    +0.123 HD
BRANCH  10  23
ATOM     23  C   UNL     1      -0.550  -0.364  21.791  0.00  0.00    +0.116 C 
BRANCH  23  25
ATOM     25  C   UNL     1       0.856   0.011  22.176  0.00  0.00    -0.033 A 
ATOM     26  C   UNL     1       1.934  -0.451  21.421  0.00  0.00    +0.008 A 
ATOM     27  C   UNL     1       1.079   0.824  23.287  0.00  0.00    +0.008 A 
ATOM     28  C   UNL     1       3.235  -0.103  21.779  0.00  0.00    +0.046 A 
ATOM     29  C   UNL     1       2.382   1.173  23.644  0.00  0.00    +0.046 A 
ATOM     30  C   UNL     1       3.460   0.710  22.890  0.00  0.00    +0.130 A 
BRANCH  30   8
ATOM      8  O   UNL     1       4.731   1.051  23.237  0.00  0.00    -0.406 OA
BRANCH   8  31
ATOM      1  F   UNL     1       5.789   0.439  25.135  0.00  0.00    -0.133 F 
ATOM      2  F   UNL     1       4.926  -1.133  23.887  0.00  0.00    -0.133 F 
ATOM      3  F   UNL     1       6.736  -0.050  23.227  0.00  0.00    -0.133 F 
ATOM     31  C   UNL     1       5.549   0.065  23.858  0.00  0.00    +0.575 C 
ENDBRANCH   8  31
ENDBRANCH  30   8
ENDBRANCH  23  25
ENDBRANCH  10  23
ENDBRANCH  14  10
TORSDOF 8
ENDMDL
MODEL 8
REMARK VINA RESULT:       2.0      3.033      6.031
REMARK  Name = 28960506
REMARK  8 active torsions:
REMARK  status: ('A' for Active; 'I' for Inactive)
REMARK    1  A    between atoms: O_6  and  C_13
REMARK    2  A    between atoms: O_8  and  C_30
REMARK    3  A    between atoms: O_8  and  C_31
REMARK    4  A    between atoms: N_9  and  C_12
REMARK    5  A    between atoms: N_10  and  C_14
REMARK    6  A    between atoms: N_10  and  C_23
REMARK    7  A    between atoms: C_22  and  C_24
REMARK    8  A    between atoms: C_23  and  C_25
REMARK                            x       y       z     vdW  Elec       q    Type
REMARK                         _______ _______ _______ _____ _____    ______ ____
ROOT
ATOM      4  O   UNL     1      -2.261  -1.316  23.447  0.00  0.00    -0.343 OA
ATOM      5  O   UNL     1      -3.510  -3.269  23.464  0.00  0.00    -0.347 OA
ATOM     12  C   UNL     1      -4.066  -1.520  25.038  0.00  0.00    +0.143 C 
ATOM     13  C   UNL     1      -3.098  -2.122  26.081  0.00  0.00    +0.156 C 
ATOM     14  C   UNL     1      -1.617  -2.138  25.628  0.00  0.00    +0.116 C 
ATOM     15  C   UNL     1      -3.586  -1.842  23.610  0.00  0.00    +0.270 C 
ATOM     16  C   UNL     1      -1.467  -2.313  24.099  0.00  0.00    +0.166 C 
ATOM     17  C   UNL     1      -2.110  -3.575  23.551  0.00  0.00    +0.196 C 
ENDROOT
BRANCH  12   9
ATOM      9  N   UNL     1      -4.181  -0.071  25.212  0.00  0.00    -0.293 NA
ATOM     18  C   UNL     1      -3.754   0.628  23.992  0.00  0.00    +0.085 C 
ATOM     19  C   UNL     1      -5.556   0.294  25.578  0.00  0.00    +0.085 C 
ATOM     20  C   UNL     1      -3.816   2.145  24.177  0.00  0.00    +0.028 C 
ATOM     21  C   UNL     1      -5.682   1.800  25.818  0.00  0.00    +0.028 C 
ATOM     22  C   UNL     1      -5.213   2.595  24.600  0.00  0.00    +0.077 C 
BRANCH  22  24
ATOM      7  O   UNL     1      -4.616   4.878  24.232  0.00  0.00    -0.276 OA
ATOM     11  N   UNL     1      -5.908   4.371  26.068  0.00  0.00    -0.329 N 
ATOM     24  C   UNL     1      -5.210   4.056  24.926  0.00  0.00    +0.214 C 
ATOM     34  H   UNL     1      -6.380   3.670  26.630  0.00  0.00    +0.145 HD
ATOM     35  H   UNL     1      -5.972   5.331  26.391  0.00  0.00    +0.145 HD
ENDBRANCH  22  24
ENDBRANCH  12   9
BRANCH  13   6
ATOM      6  O   UNL     1      -3.512  -3.473  26.330  0.00  0.00    -0.388 OA
ATOM     33  H   UNL     1      -3.491  -3.615  27.291  0.00  0.00    +0.210 HD
ENDBRANCH  13   6
BRANCH  14  10
ATOM     10  N   UNL     1      -0.947  -0.890  26.012  0.00  0.00    -0.305 NA
ATOM     32  H   UNL     1      -0.306  -1.072  26.784  0.00  0.00    +0.123 HD
BRANCH  10  23
ATOM     23  C   UNL     1      -0.226  -0.331  24.881  0.00  0.00    +0.116 C 
BRANCH  23  25
ATOM     25  C   UNL     1      -0.292   1.173  24.863  0.00  0.00    -0.033 A 
ATOM     26  C   UNL     1      -0.346   1.885  26.061  0.00  0.00    +0.008 A 
ATOM     27  C   UNL     1      -0.295   1.855  23.646  0.00  0.00    +0.008 A 
ATOM     28  C   UNL     1      -0.406   3.277  26.044  0.00  0.00    +0.046 A 
ATOM     29  C   UNL     1      -0.355   3.249  23.629  0.00  0.00    +0.046 A 
ATOM     30  C   UNL     1      -0.410   3.960  24.828  0.00  0.00    +0.130 A 
BRANCH  30   8
ATOM      8  O   UNL     1      -0.468   5.320  24.811  0.00  0.00    -0.406 OA
BRANCH   8  31
ATOM      1  F   UNL     1      -2.417   5.284  25.948  0.00  0.00    -0.133 F 
ATOM      2  F   UNL     1      -1.593   7.227  25.381  0.00  0.00    -0.133 F 
ATOM      3  F   UNL     1      -2.463   5.892  23.849  0.00  0.00    -0.133 F 
ATOM     31  C   UNL     1      -1.735   5.944  24.985  0.00  0.00    +0.575 C 
ENDBRANCH   8  31
ENDBRANCH  30   8
ENDBRANCH  23  25
ENDBRANCH  10  23
ENDBRANCH  14  10
TORSDOF 8
ENDMDL
