MODEL 1
REMARK VINA RESULT:      -5.9      0.000      0.000
REMARK  Name = 75536711
REMARK  10 active torsions:
REMARK  status: ('A' for Active; 'I' for Inactive)
REMARK    1  A    between atoms: S_1  and  N_8
REMARK    2  A    between atoms: S_1  and  C_16
REMARK    3  A    between atoms: O_3  and  C_10
REMARK    4  A    between atoms: O_6  and  C_17
REMARK    5  A    between atoms: N_7  and  C_9
REMARK    6  A    between atoms: N_7  and  C_14
REMARK    7  A    between atoms: N_8  and  C_13
REMARK    8  A    between atoms: C_11  and  C_13
REMARK    9  A    between atoms: C_14  and  C_15
REMARK   10  A    between atoms: C_25  and  C_27
REMARK                            x       y       z     vdW  Elec       q    Type
REMARK                         _______ _______ _______ _____ _____    ______ ____
ROOT
ATOM      2  O   UNL     1       1.624   1.512  23.955  0.00  0.00    -0.371 OA
ATOM      9  C   UNL     1       0.316  -0.402  23.474  0.00  0.00    +0.111 C 
ATOM     10  C   UNL     1      -0.629   0.762  23.707  0.00  0.00    +0.164 C 
ATOM     11  C   UNL     1       0.260   1.892  24.223  0.00  0.00    +0.164 C 
ATOM     12  C   UNL     1       1.623   0.313  23.171  0.00  0.00    +0.181 C 
ENDROOT
BRANCH  10   3
ATOM      3  O   UNL     1      -1.176   1.140  22.441  0.00  0.00    -0.388 OA
ATOM     29  H   UNL     1      -1.652   0.368  22.089  0.00  0.00    +0.210 HD
ENDBRANCH  10   3
BRANCH   9   7
ATOM      7  N   UNL     1       0.448  -1.238  24.666  0.00  0.00    -0.305 NA
ATOM     28  H   UNL     1       0.253  -0.672  25.493  0.00  0.00    +0.123 HD
BRANCH   7  14
ATOM     14  C   UNL     1      -0.488  -2.354  24.631  0.00  0.00    +0.120 C 
BRANCH  14  15
ATOM     15  C   UNL     1      -1.917  -1.891  24.733  0.00  0.00    +0.008 A 
ATOM     17  C   UNL     1      -2.316  -1.029  25.755  0.00  0.00    +0.121 A 
ATOM     18  C   UNL     1      -2.846  -2.333  23.790  0.00  0.00    +0.008 A 
ATOM     21  C   UNL     1      -3.644  -0.610  25.834  0.00  0.00    +0.046 A 
ATOM     22  C   UNL     1      -4.174  -1.913  23.870  0.00  0.00    +0.001 A 
ATOM     26  C   UNL     1      -4.573  -1.052  24.892  0.00  0.00    +0.004 A 
BRANCH  17   6
ATOM      6  O   UNL     1      -1.421  -0.587  26.682  0.00  0.00    -0.506 OA
ATOM     31  H   UNL     1      -0.593  -0.346  26.234  0.00  0.00    +0.292 HD
ENDBRANCH  17   6
ENDBRANCH  14  15
ENDBRANCH   7  14
ENDBRANCH   9   7
BRANCH  11  13
ATOM     13  C   UNL     1       0.119   2.143  25.717  0.00  0.00    +0.140 C 
BRANCH  13   8
ATOM      8  N   UNL     1      -0.263   3.549  25.949  0.00  0.00    -0.187 NA
ATOM     30  H   UNL     1      -0.481   3.785  26.925  0.00  0.00    +0.148 HD
BRANCH   8   1
ATOM      1  S   UNL     1      -1.106   4.413  24.749  0.00  0.00    +0.058 S 
ATOM      4  O   UNL     1      -0.548   4.095  23.448  0.00  0.00    -0.153 OA
ATOM      5  O   UNL     1      -1.239   5.794  25.167  0.00  0.00    -0.153 OA
BRANCH   1  16
ATOM     16  C   UNL     1      -2.715   3.688  24.844  0.00  0.00    +0.105 A 
ATOM     19  C   UNL     1      -3.470   3.816  26.010  0.00  0.00    +0.029 A 
ATOM     20  C   UNL     1      -3.228   2.984  23.754  0.00  0.00    +0.029 A 
ATOM     23  C   UNL     1      -4.739   3.242  26.086  0.00  0.00    +0.005 A 
ATOM     24  C   UNL     1      -4.497   2.410  23.831  0.00  0.00    +0.005 A 
ATOM     25  C   UNL     1      -5.252   2.538  24.997  0.00  0.00    -0.050 A 
ATOM     27  C   UNL     1      -6.609   1.924  25.078  0.00  0.00    +0.044 C 
ENDBRANCH   1  16
ENDBRANCH   8   1
ENDBRANCH  13   8
ENDBRANCH  11  13
TORSDOF 9
ENDMDL
MODEL 2
REMARK VINA RESULT:      -4.8      2.161      4.881
REMARK  Name = 75536711
REMARK  10 active torsions:
REMARK  status: ('A' for Active; 'I' for Inactive)
REMARK    1  A    between atoms: S_1  and  N_8
REMARK    2  A    between atoms: S_1  and  C_16
REMARK    3  A    between atoms: O_3  and  C_10
REMARK    4  A    between atoms: O_6  and  C_17
REMARK    5  A    between atoms: N_7  and  C_9
REMARK    6  A    between atoms: N_7  and  C_14
REMARK    7  A    between atoms: N_8  and  C_13
REMARK    8  A    between atoms: C_11  and  C_13
REMARK    9  A    between atoms: C_14  and  C_15
REMARK   10  A    between atoms: C_25  and  C_27
REMARK                            x       y       z     vdW  Elec       q    Type
REMARK                         _______ _______ _______ _____ _____    ______ ____
ROOT
ATOM      2  O   UNL     1      -3.736   3.475  24.115  0.00  0.00    -0.371 OA
ATOM      9  C   UNL     1      -5.391   2.119  25.128  0.00  0.00    +0.111 C 
ATOM     10  C   UNL     1      -5.284   3.402  25.931  0.00  0.00    +0.164 C 
ATOM     11  C   UNL     1      -4.063   4.121  25.361  0.00  0.00    +0.164 C 
ATOM     12  C   UNL     1      -4.763   2.525  23.805  0.00  0.00    +0.181 C 
ENDROOT
BRANCH  10   3
ATOM      3  O   UNL     1      -6.452   4.182  25.662  0.00  0.00    -0.388 OA
ATOM     29  H   UNL     1      -6.695   4.635  26.488  0.00  0.00    +0.210 HD
ENDBRANCH  10   3
BRANCH   9   7
ATOM      7  N   UNL     1      -4.635   1.031  25.747  0.00  0.00    -0.305 NA
ATOM     28  H   UNL     1      -5.036   0.824  26.662  0.00  0.00    +0.123 HD
BRANCH   7  14
ATOM     14  C   UNL     1      -4.687  -0.176  24.930  0.00  0.00    +0.120 C 
BRANCH  14  15
ATOM     15  C   UNL     1      -3.393  -0.944  24.983  0.00  0.00    +0.008 A 
ATOM     17  C   UNL     1      -3.230  -2.116  24.243  0.00  0.00    +0.121 A 
ATOM     18  C   UNL     1      -2.351  -0.473  25.782  0.00  0.00    +0.008 A 
ATOM     21  C   UNL     1      -2.025  -2.816  24.303  0.00  0.00    +0.046 A 
ATOM     22  C   UNL     1      -1.146  -1.172  25.842  0.00  0.00    +0.001 A 
ATOM     26  C   UNL     1      -0.983  -2.344  25.102  0.00  0.00    +0.004 A 
BRANCH  17   6
ATOM      6  O   UNL     1      -4.237  -2.589  23.457  0.00  0.00    -0.506 OA
ATOM     31  H   UNL     1      -5.059  -2.121  23.678  0.00  0.00    +0.292 HD
ENDBRANCH  17   6
ENDBRANCH  14  15
ENDBRANCH   7  14
ENDBRANCH   9   7
BRANCH  11  13
ATOM     13  C   UNL     1      -2.842   4.056  26.266  0.00  0.00    +0.140 C 
BRANCH  13   8
ATOM      8  N   UNL     1      -1.978   2.932  25.855  0.00  0.00    -0.187 NA
ATOM     30  H   UNL     1      -2.248   2.016  26.234  0.00  0.00    +0.148 HD
BRANCH   8   1
ATOM      1  S   UNL     1      -0.319   3.188  25.581  0.00  0.00    +0.058 S 
ATOM      4  O   UNL     1       0.424   2.847  26.780  0.00  0.00    -0.153 OA
ATOM      5  O   UNL     1      -0.138   4.483  24.955  0.00  0.00    -0.153 OA
BRANCH   1  16
ATOM     16  C   UNL     1       0.038   1.968  24.353  0.00  0.00    +0.105 A 
ATOM     19  C   UNL     1       1.342   1.503  24.191  0.00  0.00    +0.029 A 
ATOM     20  C   UNL     1      -0.986   1.472  23.545  0.00  0.00    +0.029 A 
ATOM     23  C   UNL     1       1.625   0.541  23.220  0.00  0.00    +0.005 A 
ATOM     24  C   UNL     1      -0.703   0.511  22.574  0.00  0.00    +0.005 A 
ATOM     25  C   UNL     1       0.602   0.046  22.412  0.00  0.00    -0.050 A 
ATOM     27  C   UNL     1       0.904  -0.982  21.374  0.00  0.00    +0.044 C 
ENDBRANCH   1  16
ENDBRANCH   8   1
ENDBRANCH  13   8
ENDBRANCH  11  13
TORSDOF 9
ENDMDL
MODEL 3
REMARK VINA RESULT:      -4.8      2.660      6.676
REMARK  Name = 75536711
REMARK  10 active torsions:
REMARK  status: ('A' for Active; 'I' for Inactive)
REMARK    1  A    between atoms: S_1  and  N_8
REMARK    2  A    between atoms: S_1  and  C_16
REMARK    3  A    between atoms: O_3  and  C_10
REMARK    4  A    between atoms: O_6  and  C_17
REMARK    5  A    between atoms: N_7  and  C_9
REMARK    6  A    between atoms: N_7  and  C_14
REMARK    7  A    between atoms: N_8  and  C_13
REMARK    8  A    between atoms: C_11  and  C_13
REMARK    9  A    between atoms: C_14  and  C_15
REMARK   10  A    between atoms: C_25  and  C_27
REMARK                            x       y       z     vdW  Elec       q    Type
REMARK                         _______ _______ _______ _____ _____    ______ ____
ROOT
ATOM      2  O   UNL     1      -2.634  -0.992  26.345  0.00  0.00    -0.371 OA
ATOM      9  C   UNL     1      -3.786  -1.141  24.282  0.00  0.00    +0.111 C 
ATOM     10  C   UNL     1      -2.465  -1.875  24.133  0.00  0.00    +0.164 C 
ATOM     11  C   UNL     1      -1.692  -1.552  25.410  0.00  0.00    +0.164 C 
ATOM     12  C   UNL     1      -3.951  -1.099  25.793  0.00  0.00    +0.181 C 
ENDROOT
BRANCH  10   3
ATOM      3  O   UNL     1      -2.748  -3.276  24.100  0.00  0.00    -0.388 OA
ATOM     29  H   UNL     1      -3.441  -3.447  24.761  0.00  0.00    +0.210 HD
ENDBRANCH  10   3
BRANCH   9   7
ATOM      7  N   UNL     1      -3.716   0.212  23.733  0.00  0.00    -0.305 NA
ATOM     28  H   UNL     1      -4.071   0.203  22.776  0.00  0.00    +0.123 HD
BRANCH   7  14
ATOM     14  C   UNL     1      -4.517   1.141  24.520  0.00  0.00    +0.120 C 
BRANCH  14  15
ATOM     15  C   UNL     1      -3.718   2.343  24.953  0.00  0.00    +0.008 A 
ATOM     17  C   UNL     1      -4.315   3.369  25.685  0.00  0.00    +0.121 A 
ATOM     18  C   UNL     1      -2.367   2.421  24.614  0.00  0.00    +0.008 A 
ATOM     21  C   UNL     1      -3.561   4.475  26.078  0.00  0.00    +0.046 A 
ATOM     22  C   UNL     1      -1.613   3.527  25.007  0.00  0.00    +0.001 A 
ATOM     26  C   UNL     1      -2.210   4.554  25.739  0.00  0.00    +0.004 A 
BRANCH  17   6
ATOM      6  O   UNL     1      -5.632   3.307  26.026  0.00  0.00    -0.506 OA
ATOM     31  H   UNL     1      -5.904   4.162  26.399  0.00  0.00    +0.292 HD
ENDBRANCH  17   6
ENDBRANCH  14  15
ENDBRANCH   7  14
ENDBRANCH   9   7
BRANCH  11  13
ATOM     13  C   UNL     1      -0.569  -0.546  25.203  0.00  0.00    +0.140 C 
BRANCH  13   8
ATOM      8  N   UNL     1       0.348  -1.036  24.155  0.00  0.00    -0.187 NA
ATOM     30  H   UNL     1       1.001  -1.769  24.458  0.00  0.00    +0.148 HD
BRANCH   8   1
ATOM      1  S   UNL     1       0.895   0.022  22.940  0.00  0.00    +0.058 S 
ATOM      4  O   UNL     1       0.483   1.376  23.260  0.00  0.00    -0.153 OA
ATOM      5  O   UNL     1       0.585  -0.548  21.644  0.00  0.00    -0.153 OA
BRANCH   1  16
ATOM     16  C   UNL     1       2.649  -0.075  23.140  0.00  0.00    +0.105 A 
ATOM     19  C   UNL     1       3.231  -1.241  23.636  0.00  0.00    +0.029 A 
ATOM     20  C   UNL     1       3.450   1.017  22.803  0.00  0.00    +0.029 A 
ATOM     23  C   UNL     1       4.615  -1.317  23.796  0.00  0.00    +0.005 A 
ATOM     24  C   UNL     1       4.834   0.941  22.964  0.00  0.00    +0.005 A 
ATOM     25  C   UNL     1       5.416  -0.226  23.461  0.00  0.00    -0.050 A 
ATOM     27  C   UNL     1       6.895  -0.307  23.631  0.00  0.00    +0.044 C 
ENDBRANCH   1  16
ENDBRANCH   8   1
ENDBRANCH  13   8
ENDBRANCH  11  13
TORSDOF 9
ENDMDL
MODEL 4
REMARK VINA RESULT:      -4.6      2.452      6.090
REMARK  Name = 75536711
REMARK  10 active torsions:
REMARK  status: ('A' for Active; 'I' for Inactive)
REMARK    1  A    between atoms: S_1  and  N_8
REMARK    2  A    between atoms: S_1  and  C_16
REMARK    3  A    between atoms: O_3  and  C_10
REMARK    4  A    between atoms: O_6  and  C_17
REMARK    5  A    between atoms: N_7  and  C_9
REMARK    6  A    between atoms: N_7  and  C_14
REMARK    7  A    between atoms: N_8  and  C_13
REMARK    8  A    between atoms: C_11  and  C_13
REMARK    9  A    between atoms: C_14  and  C_15
REMARK   10  A    between atoms: C_25  and  C_27
REMARK                            x       y       z     vdW  Elec       q    Type
REMARK                         _______ _______ _______ _____ _____    ______ ____
ROOT
ATOM      2  O   UNL     1      -1.867   2.717  23.150  0.00  0.00    -0.371 OA
ATOM      9  C   UNL     1      -3.085   3.067  25.149  0.00  0.00    +0.111 C 
ATOM     10  C   UNL     1      -1.677   3.593  25.362  0.00  0.00    +0.164 C 
ATOM     11  C   UNL     1      -0.898   3.139  24.129  0.00  0.00    +0.164 C 
ATOM     12  C   UNL     1      -3.178   3.031  23.633  0.00  0.00    +0.181 C 
ENDROOT
BRANCH  10   3
ATOM      3  O   UNL     1      -1.744   5.021  25.373  0.00  0.00    -0.388 OA
ATOM     29  H   UNL     1      -2.623   5.267  25.709  0.00  0.00    +0.210 HD
ENDBRANCH  10   3
BRANCH   9   7
ATOM      7  N   UNL     1      -3.250   1.726  25.709  0.00  0.00    -0.305 NA
ATOM     28  H   UNL     1      -3.536   1.806  26.686  0.00  0.00    +0.123 HD
BRANCH   7  14
ATOM     14  C   UNL     1      -4.267   0.976  24.983  0.00  0.00    +0.120 C 
BRANCH  14  15
ATOM     15  C   UNL     1      -3.846  -0.451  24.744  0.00  0.00    +0.008 A 
ATOM     17  C   UNL     1      -2.652  -0.940  25.273  0.00  0.00    +0.121 A 
ATOM     18  C   UNL     1      -4.665  -1.285  23.982  0.00  0.00    +0.008 A 
ATOM     21  C   UNL     1      -2.277  -2.264  25.042  0.00  0.00    +0.046 A 
ATOM     22  C   UNL     1      -4.291  -2.608  23.751  0.00  0.00    +0.001 A 
ATOM     26  C   UNL     1      -3.097  -3.098  24.281  0.00  0.00    +0.004 A 
BRANCH  17   6
ATOM      6  O   UNL     1      -1.841  -0.139  26.020  0.00  0.00    -0.506 OA
ATOM     31  H   UNL     1      -1.980   0.786  25.757  0.00  0.00    +0.292 HD
ENDBRANCH  17   6
ENDBRANCH  14  15
ENDBRANCH   7  14
ENDBRANCH   9   7
BRANCH  11  13
ATOM     13  C   UNL     1       0.046   1.977  24.399  0.00  0.00    +0.140 C 
BRANCH  13   8
ATOM      8  N   UNL     1       0.629   1.506  23.128  0.00  0.00    -0.187 NA
ATOM     30  H   UNL     1       0.330   2.027  22.294  0.00  0.00    +0.148 HD
BRANCH   8   1
ATOM      1  S   UNL     1       0.982  -0.144  22.912  0.00  0.00    +0.058 S 
ATOM      4  O   UNL     1       0.697  -0.520  21.540  0.00  0.00    -0.153 OA
ATOM      5  O   UNL     1       0.406  -0.898  24.009  0.00  0.00    -0.153 OA
BRANCH   1  16
ATOM     16  C   UNL     1       2.735  -0.171  23.132  0.00  0.00    +0.105 A 
ATOM     19  C   UNL     1       3.357  -1.313  23.634  0.00  0.00    +0.029 A 
ATOM     20  C   UNL     1       3.496   0.952  22.806  0.00  0.00    +0.029 A 
ATOM     23  C   UNL     1       4.741  -1.334  23.810  0.00  0.00    +0.005 A 
ATOM     24  C   UNL     1       4.880   0.932  22.982  0.00  0.00    +0.005 A 
ATOM     25  C   UNL     1       5.502  -0.212  23.485  0.00  0.00    -0.050 A 
ATOM     27  C   UNL     1       6.981  -0.233  23.673  0.00  0.00    +0.044 C 
ENDBRANCH   1  16
ENDBRANCH   8   1
ENDBRANCH  13   8
ENDBRANCH  11  13
TORSDOF 9
ENDMDL
MODEL 5
REMARK VINA RESULT:      -4.3      2.548      5.281
REMARK  Name = 75536711
REMARK  10 active torsions:
REMARK  status: ('A' for Active; 'I' for Inactive)
REMARK    1  A    between atoms: S_1  and  N_8
REMARK    2  A    between atoms: S_1  and  C_16
REMARK    3  A    between atoms: O_3  and  C_10
REMARK    4  A    between atoms: O_6  and  C_17
REMARK    5  A    between atoms: N_7  and  C_9
REMARK    6  A    between atoms: N_7  and  C_14
REMARK    7  A    between atoms: N_8  and  C_13
REMARK    8  A    between atoms: C_11  and  C_13
REMARK    9  A    between atoms: C_14  and  C_15
REMARK   10  A    between atoms: C_25  and  C_27
REMARK                            x       y       z     vdW  Elec       q    Type
REMARK                         _______ _______ _______ _____ _____    ______ ____
ROOT
ATOM      2  O   UNL     1      -1.530   2.237  25.460  0.00  0.00    -0.371 OA
ATOM      9  C   UNL     1       0.551   1.832  24.408  0.00  0.00    +0.111 C 
ATOM     10  C   UNL     1      -0.214   2.831  23.559  0.00  0.00    +0.164 C 
ATOM     11  C   UNL     1      -1.613   2.874  24.171  0.00  0.00    +0.164 C 
ATOM     12  C   UNL     1      -0.156   1.955  25.748  0.00  0.00    +0.181 C 
ENDROOT
BRANCH  10   3
ATOM      3  O   UNL     1       0.407   4.108  23.723  0.00  0.00    -0.388 OA
ATOM     29  H   UNL     1       0.335   4.346  24.664  0.00  0.00    +0.210 HD
ENDBRANCH  10   3
BRANCH   9   7
ATOM      7  N   UNL     1       0.430   0.473  23.882  0.00  0.00    -0.305 NA
ATOM     28  H   UNL     1      -0.541   0.301  23.621  0.00  0.00    +0.123 HD
BRANCH   7  14
ATOM     14  C   UNL     1       1.271   0.287  22.706  0.00  0.00    +0.120 C 
BRANCH  14  15
ATOM     15  C   UNL     1       2.695  -0.030  23.080  0.00  0.00    +0.008 A 
ATOM     17  C   UNL     1       3.686   0.950  23.006  0.00  0.00    +0.121 A 
ATOM     18  C   UNL     1       3.019  -1.319  23.504  0.00  0.00    +0.008 A 
ATOM     21  C   UNL     1       5.000   0.640  23.356  0.00  0.00    +0.046 A 
ATOM     22  C   UNL     1       4.333  -1.629  23.854  0.00  0.00    +0.001 A 
ATOM     26  C   UNL     1       5.324  -0.650  23.780  0.00  0.00    +0.004 A 
BRANCH  17   6
ATOM      6  O   UNL     1       3.387   2.214  22.596  0.00  0.00    -0.506 OA
ATOM     31  H   UNL     1       3.448   2.817  23.356  0.00  0.00    +0.292 HD
ENDBRANCH  17   6
ENDBRANCH  14  15
ENDBRANCH   7  14
ENDBRANCH   9   7
BRANCH  11  13
ATOM     13  C   UNL     1      -2.662   2.144  23.344  0.00  0.00    +0.140 C 
BRANCH  13   8
ATOM      8  N   UNL     1      -3.996   2.708  23.627  0.00  0.00    -0.187 NA
ATOM     30  H   UNL     1      -4.084   3.719  23.466  0.00  0.00    +0.148 HD
BRANCH   8   1
ATOM      1  S   UNL     1      -4.956   2.045  24.866  0.00  0.00    +0.058 S 
ATOM      4  O   UNL     1      -6.348   2.059  24.453  0.00  0.00    -0.153 OA
ATOM      5  O   UNL     1      -4.565   2.633  26.132  0.00  0.00    -0.153 OA
BRANCH   1  16
ATOM     16  C   UNL     1      -4.411   0.364  24.887  0.00  0.00    +0.105 A 
ATOM     19  C   UNL     1      -3.744  -0.138  26.004  0.00  0.00    +0.029 A 
ATOM     20  C   UNL     1      -4.644  -0.458  23.784  0.00  0.00    +0.029 A 
ATOM     23  C   UNL     1      -3.311  -1.464  26.020  0.00  0.00    +0.005 A 
ATOM     24  C   UNL     1      -4.211  -1.785  23.800  0.00  0.00    +0.005 A 
ATOM     25  C   UNL     1      -3.544  -2.287  24.918  0.00  0.00    -0.050 A 
ATOM     27  C   UNL     1      -3.082  -3.705  24.935  0.00  0.00    +0.044 C 
ENDBRANCH   1  16
ENDBRANCH   8   1
ENDBRANCH  13   8
ENDBRANCH  11  13
TORSDOF 9
ENDMDL
MODEL 6
REMARK VINA RESULT:      -4.2      2.517      4.903
REMARK  Name = 75536711
REMARK  10 active torsions:
REMARK  status: ('A' for Active; 'I' for Inactive)
REMARK    1  A    between atoms: S_1  and  N_8
REMARK    2  A    between atoms: S_1  and  C_16
REMARK    3  A    between atoms: O_3  and  C_10
REMARK    4  A    between atoms: O_6  and  C_17
REMARK    5  A    between atoms: N_7  and  C_9
REMARK    6  A    between atoms: N_7  and  C_14
REMARK    7  A    between atoms: N_8  and  C_13
REMARK    8  A    between atoms: C_11  and  C_13
REMARK    9  A    between atoms: C_14  and  C_15
REMARK   10  A    between atoms: C_25  and  C_27
REMARK                            x       y       z     vdW  Elec       q    Type
REMARK                         _______ _______ _______ _____ _____    ______ ____
ROOT
ATOM      2  O   UNL     1      -3.165  -2.352  25.260  0.00  0.00    -0.371 OA
ATOM      9  C   UNL     1      -0.967  -1.619  24.777  0.00  0.00    +0.111 C 
ATOM     10  C   UNL     1      -1.624  -0.574  25.660  0.00  0.00    +0.164 C 
ATOM     11  C   UNL     1      -3.089  -0.998  25.746  0.00  0.00    +0.164 C 
ATOM     12  C   UNL     1      -1.836  -2.838  25.037  0.00  0.00    +0.181 C 
ENDROOT
BRANCH  10   3
ATOM      3  O   UNL     1      -1.033  -0.668  26.959  0.00  0.00    -0.388 OA
ATOM     29  H   UNL     1      -0.884   0.240  27.275  0.00  0.00    +0.210 HD
ENDBRANCH  10   3
BRANCH   9   7
ATOM      7  N   UNL     1      -1.015  -1.241  23.365  0.00  0.00    -0.305 NA
ATOM     28  H   UNL     1      -1.961  -1.391  23.012  0.00  0.00    +0.123 HD
BRANCH   7  14
ATOM     14  C   UNL     1      -0.666   0.163  23.185  0.00  0.00    +0.120 C 
BRANCH  14  15
ATOM     15  C   UNL     1       0.806   0.345  22.926  0.00  0.00    +0.008 A 
ATOM     17  C   UNL     1       1.574   1.186  23.732  0.00  0.00    +0.121 A 
ATOM     18  C   UNL     1       1.402  -0.338  21.865  0.00  0.00    +0.008 A 
ATOM     21  C   UNL     1       2.936   1.344  23.478  0.00  0.00    +0.046 A 
ATOM     22  C   UNL     1       2.764  -0.181  21.611  0.00  0.00    +0.001 A 
ATOM     26  C   UNL     1       3.531   0.660  22.418  0.00  0.00    +0.004 A 
BRANCH  17   6
ATOM      6  O   UNL     1       1.008   1.859  24.773  0.00  0.00    -0.506 OA
ATOM     31  H   UNL     1       1.180   1.373  25.597  0.00  0.00    +0.292 HD
ENDBRANCH  17   6
ENDBRANCH  14  15
ENDBRANCH   7  14
ENDBRANCH   9   7
BRANCH  11  13
ATOM     13  C   UNL     1      -4.022  -0.137  24.909  0.00  0.00    +0.140 C 
BRANCH  13   8
ATOM      8  N   UNL     1      -5.127   0.361  25.751  0.00  0.00    -0.187 NA
ATOM     30  H   UNL     1      -5.824  -0.347  26.015  0.00  0.00    +0.148 HD
BRANCH   8   1
ATOM      1  S   UNL     1      -5.689   1.956  25.566  0.00  0.00    +0.058 S 
ATOM      4  O   UNL     1      -6.261   2.412  26.820  0.00  0.00    -0.153 OA
ATOM      5  O   UNL     1      -6.456   2.046  24.339  0.00  0.00    -0.153 OA
BRANCH   1  16
ATOM     16  C   UNL     1      -4.183   2.841  25.300  0.00  0.00    +0.105 A 
ATOM     19  C   UNL     1      -3.663   3.651  26.309  0.00  0.00    +0.029 A 
ATOM     20  C   UNL     1      -3.517   2.733  24.079  0.00  0.00    +0.029 A 
ATOM     23  C   UNL     1      -2.475   4.352  26.098  0.00  0.00    +0.005 A 
ATOM     24  C   UNL     1      -2.329   3.434  23.868  0.00  0.00    +0.005 A 
ATOM     25  C   UNL     1      -1.809   4.244  24.878  0.00  0.00    -0.050 A 
ATOM     27  C   UNL     1      -0.539   4.993  24.653  0.00  0.00    +0.044 C 
ENDBRANCH   1  16
ENDBRANCH   8   1
ENDBRANCH  13   8
ENDBRANCH  11  13
TORSDOF 9
ENDMDL
MODEL 7
REMARK VINA RESULT:      -4.2      1.921      4.675
REMARK  Name = 75536711
REMARK  10 active torsions:
REMARK  status: ('A' for Active; 'I' for Inactive)
REMARK    1  A    between atoms: S_1  and  N_8
REMARK    2  A    between atoms: S_1  and  C_16
REMARK    3  A    between atoms: O_3  and  C_10
REMARK    4  A    between atoms: O_6  and  C_17
REMARK    5  A    between atoms: N_7  and  C_9
REMARK    6  A    between atoms: N_7  and  C_14
REMARK    7  A    between atoms: N_8  and  C_13
REMARK    8  A    between atoms: C_11  and  C_13
REMARK    9  A    between atoms: C_14  and  C_15
REMARK   10  A    between atoms: C_25  and  C_27
REMARK                            x       y       z     vdW  Elec       q    Type
REMARK                         _______ _______ _______ _____ _____    ______ ____
ROOT
ATOM      2  O   UNL     1      -1.752  -1.350  26.400  0.00  0.00    -0.371 OA
ATOM      9  C   UNL     1      -3.375  -1.195  24.685  0.00  0.00    +0.111 C 
ATOM     10  C   UNL     1      -2.464  -2.364  24.360  0.00  0.00    +0.164 C 
ATOM     11  C   UNL     1      -1.326  -2.268  25.374  0.00  0.00    +0.164 C 
ATOM     12  C   UNL     1      -3.124  -1.007  26.172  0.00  0.00    +0.181 C 
ENDROOT
BRANCH  10   3
ATOM      3  O   UNL     1      -3.199  -3.567  24.596  0.00  0.00    -0.388 OA
ATOM     29  H   UNL     1      -2.916  -3.915  25.459  0.00  0.00    +0.210 HD
ENDBRANCH  10   3
BRANCH   9   7
ATOM      7  N   UNL     1      -2.999   0.006  23.940  0.00  0.00    -0.305 NA
ATOM     28  H   UNL     1      -2.358  -0.254  23.190  0.00  0.00    +0.123 HD
BRANCH   7  14
ATOM     14  C   UNL     1      -4.169   0.650  23.356  0.00  0.00    +0.120 C 
BRANCH  14  15
ATOM     15  C   UNL     1      -4.648   1.808  24.191  0.00  0.00    +0.008 A 
ATOM     17  C   UNL     1      -4.349   3.121  23.827  0.00  0.00    +0.121 A 
ATOM     18  C   UNL     1      -5.398   1.555  25.340  0.00  0.00    +0.008 A 
ATOM     21  C   UNL     1      -4.801   4.182  24.612  0.00  0.00    +0.046 A 
ATOM     22  C   UNL     1      -5.850   2.616  26.125  0.00  0.00    +0.001 A 
ATOM     26  C   UNL     1      -5.551   3.930  25.761  0.00  0.00    +0.004 A 
BRANCH  17   6
ATOM      6  O   UNL     1      -3.619   3.384  22.708  0.00  0.00    -0.506 OA
ATOM     31  H   UNL     1      -4.222   3.480  21.951  0.00  0.00    +0.292 HD
ENDBRANCH  17   6
ENDBRANCH  14  15
ENDBRANCH   7  14
ENDBRANCH   9   7
BRANCH  11  13
ATOM     13  C   UNL     1      -0.024  -1.750  24.781  0.00  0.00    +0.140 C 
BRANCH  13   8
ATOM      8  N   UNL     1       0.100  -0.303  25.044  0.00  0.00    -0.187 NA
ATOM     30  H   UNL     1      -0.514   0.057  25.786  0.00  0.00    +0.148 HD
BRANCH   8   1
ATOM      1  S   UNL     1       0.473   0.765  23.774  0.00  0.00    +0.058 S 
ATOM      4  O   UNL     1      -0.217   0.340  22.571  0.00  0.00    -0.153 OA
ATOM      5  O   UNL     1       1.905   0.990  23.752  0.00  0.00    -0.153 OA
BRANCH   1  16
ATOM     16  C   UNL     1      -0.276   2.266  24.331  0.00  0.00    +0.105 A 
ATOM     19  C   UNL     1      -0.095   3.445  23.610  0.00  0.00    +0.029 A 
ATOM     20  C   UNL     1      -1.047   2.270  25.494  0.00  0.00    +0.029 A 
ATOM     23  C   UNL     1      -0.684   4.631  24.051  0.00  0.00    +0.005 A 
ATOM     24  C   UNL     1      -1.636   3.455  25.935  0.00  0.00    +0.005 A 
ATOM     25  C   UNL     1      -1.454   4.636  25.213  0.00  0.00    -0.050 A 
ATOM     27  C   UNL     1      -2.085   5.902  25.685  0.00  0.00    +0.044 C 
ENDBRANCH   1  16
ENDBRANCH   8   1
ENDBRANCH  13   8
ENDBRANCH  11  13
TORSDOF 9
ENDMDL
MODEL 8
REMARK VINA RESULT:      -3.6      2.463      6.289
REMARK  Name = 75536711
REMARK  10 active torsions:
REMARK  status: ('A' for Active; 'I' for Inactive)
REMARK    1  A    between atoms: S_1  and  N_8
REMARK    2  A    between atoms: S_1  and  C_16
REMARK    3  A    between atoms: O_3  and  C_10
REMARK    4  A    between atoms: O_6  and  C_17
REMARK    5  A    between atoms: N_7  and  C_9
REMARK    6  A    between atoms: N_7  and  C_14
REMARK    7  A    between atoms: N_8  and  C_13
REMARK    8  A    between atoms: C_11  and  C_13
REMARK    9  A    between atoms: C_14  and  C_15
REMARK   10  A    between atoms: C_25  and  C_27
REMARK                            x       y       z     vdW  Elec       q    Type
REMARK                         _______ _______ _______ _____ _____    ______ ____
ROOT
ATOM      2  O   UNL     1      -0.373   4.794  24.697  0.00  0.00    -0.371 OA
ATOM      9  C   UNL     1      -2.586   4.235  25.322  0.00  0.00    +0.111 C 
ATOM     10  C   UNL     1      -1.670   3.127  25.809  0.00  0.00    +0.164 C 
ATOM     11  C   UNL     1      -0.311   3.441  25.186  0.00  0.00    +0.164 C 
ATOM     12  C   UNL     1      -1.609   5.382  25.119  0.00  0.00    +0.181 C 
ENDROOT
BRANCH  10   3
ATOM      3  O   UNL     1      -1.569   3.240  27.231  0.00  0.00    -0.388 OA
ATOM     29  H   UNL     1      -2.428   2.976  27.604  0.00  0.00    +0.210 HD
ENDBRANCH  10   3
BRANCH   9   7
ATOM      7  N   UNL     1      -3.238   3.882  24.062  0.00  0.00    -0.305 NA
ATOM     28  H   UNL     1      -2.588   3.339  23.491  0.00  0.00    +0.123 HD
BRANCH   7  14
ATOM     14  C   UNL     1      -4.434   3.083  24.295  0.00  0.00    +0.120 C 
BRANCH  14  15
ATOM     15  C   UNL     1      -4.124   1.610  24.346  0.00  0.00    +0.008 A 
ATOM     17  C   UNL     1      -3.314   1.018  23.378  0.00  0.00    +0.121 A 
ATOM     18  C   UNL     1      -4.658   0.837  25.378  0.00  0.00    +0.008 A 
ATOM     21  C   UNL     1      -3.036  -0.348  23.440  0.00  0.00    +0.046 A 
ATOM     22  C   UNL     1      -4.380  -0.529  25.441  0.00  0.00    +0.001 A 
ATOM     26  C   UNL     1      -3.570  -1.121  24.472  0.00  0.00    +0.004 A 
BRANCH  17   6
ATOM      6  O   UNL     1      -2.784   1.759  22.365  0.00  0.00    -0.506 OA
ATOM     31  H   UNL     1      -2.245   1.182  21.797  0.00  0.00    +0.292 HD
ENDBRANCH  17   6
ENDBRANCH  14  15
ENDBRANCH   7  14
ENDBRANCH   9   7
BRANCH  11  13
ATOM     13  C   UNL     1       0.050   2.529  24.023  0.00  0.00    +0.140 C 
BRANCH  13   8
ATOM      8  N   UNL     1       0.363   1.179  24.531  0.00  0.00    -0.187 NA
ATOM     30  H   UNL     1       0.891   1.158  25.412  0.00  0.00    +0.148 HD
BRANCH   8   1
ATOM      1  S   UNL     1       0.644  -0.098  23.441  0.00  0.00    +0.058 S 
ATOM      4  O   UNL     1       0.158   0.278  22.127  0.00  0.00    -0.153 OA
ATOM      5  O   UNL     1       0.214  -1.341  24.050  0.00  0.00    -0.153 OA
BRANCH   1  16
ATOM     16  C   UNL     1       2.410  -0.138  23.378  0.00  0.00    +0.105 A 
ATOM     19  C   UNL     1       3.116   0.970  22.910  0.00  0.00    +0.029 A 
ATOM     20  C   UNL     1       3.097  -1.279  23.793  0.00  0.00    +0.029 A 
ATOM     23  C   UNL     1       4.510   0.938  22.857  0.00  0.00    +0.005 A 
ATOM     24  C   UNL     1       4.491  -1.311  23.741  0.00  0.00    +0.005 A 
ATOM     25  C   UNL     1       5.197  -0.202  23.272  0.00  0.00    -0.050 A 
ATOM     27  C   UNL     1       6.686  -0.237  23.216  0.00  0.00    +0.044 C 
ENDBRANCH   1  16
ENDBRANCH   8   1
ENDBRANCH  13   8
ENDBRANCH  11  13
TORSDOF 9
ENDMDL
MODEL 9
REMARK VINA RESULT:      -3.3      2.264      4.961
REMARK  Name = 75536711
REMARK  10 active torsions:
REMARK  status: ('A' for Active; 'I' for Inactive)
REMARK    1  A    between atoms: S_1  and  N_8
REMARK    2  A    between atoms: S_1  and  C_16
REMARK    3  A    between atoms: O_3  and  C_10
REMARK    4  A    between atoms: O_6  and  C_17
REMARK    5  A    between atoms: N_7  and  C_9
REMARK    6  A    between atoms: N_7  and  C_14
REMARK    7  A    between atoms: N_8  and  C_13
REMARK    8  A    between atoms: C_11  and  C_13
REMARK    9  A    between atoms: C_14  and  C_15
REMARK   10  A    between atoms: C_25  and  C_27
REMARK                            x       y       z     vdW  Elec       q    Type
REMARK                         _______ _______ _______ _____ _____    ______ ____
ROOT
ATOM      2  O   UNL     1       0.028   4.645  24.446  0.00  0.00    -0.371 OA
ATOM      9  C   UNL     1      -2.150   4.479  25.359  0.00  0.00    +0.111 C 
ATOM     10  C   UNL     1      -1.398   3.208  25.711  0.00  0.00    +0.164 C 
ATOM     11  C   UNL     1      -0.098   3.288  24.913  0.00  0.00    +0.164 C 
ATOM     12  C   UNL     1      -1.013   5.434  25.034  0.00  0.00    +0.181 C 
ENDROOT
BRANCH  10   3
ATOM      3  O   UNL     1      -1.093   3.256  27.107  0.00  0.00    -0.388 OA
ATOM     29  H   UNL     1      -1.418   4.108  27.445  0.00  0.00    +0.210 HD
ENDBRANCH  10   3
BRANCH   9   7
ATOM      7  N   UNL     1      -3.015   4.289  24.195  0.00  0.00    -0.305 NA
ATOM     28  H   UNL     1      -2.588   3.605  23.570  0.00  0.00    +0.123 HD
BRANCH   7  14
ATOM     14  C   UNL     1      -4.330   3.804  24.592  0.00  0.00    +0.120 C 
BRANCH  14  15
ATOM     15  C   UNL     1      -4.445   2.310  24.444  0.00  0.00    +0.008 A 
ATOM     17  C   UNL     1      -5.349   1.584  25.220  0.00  0.00    +0.121 A 
ATOM     18  C   UNL     1      -3.635   1.652  23.518  0.00  0.00    +0.008 A 
ATOM     21  C   UNL     1      -5.443   0.200  25.070  0.00  0.00    +0.046 A 
ATOM     22  C   UNL     1      -3.728   0.269  23.368  0.00  0.00    +0.001 A 
ATOM     26  C   UNL     1      -4.632  -0.457  24.144  0.00  0.00    +0.004 A 
BRANCH  17   6
ATOM      6  O   UNL     1      -6.148   2.211  26.127  0.00  0.00    -0.506 OA
ATOM     31  H   UNL     1      -7.000   2.422  25.708  0.00  0.00    +0.292 HD
ENDBRANCH  17   6
ENDBRANCH  14  15
ENDBRANCH   7  14
ENDBRANCH   9   7
BRANCH  11  13
ATOM     13  C   UNL     1      -0.067   2.363  23.706  0.00  0.00    +0.140 C 
BRANCH  13   8
ATOM      8  N   UNL     1       1.192   1.592  23.705  0.00  0.00    -0.187 NA
ATOM     30  H   UNL     1       2.043   2.149  23.558  0.00  0.00    +0.148 HD
BRANCH   8   1
ATOM      1  S   UNL     1       1.213  -0.005  23.117  0.00  0.00    +0.058 S 
ATOM      4  O   UNL     1       2.462  -0.639  23.496  0.00  0.00    -0.153 OA
ATOM      5  O   UNL     1       0.787  -0.003  21.731  0.00  0.00    -0.153 OA
BRANCH   1  16
ATOM     16  C   UNL     1      -0.085  -0.753  24.055  0.00  0.00    +0.105 A 
ATOM     19  C   UNL     1      -0.694  -1.920  23.595  0.00  0.00    +0.029 A 
ATOM     20  C   UNL     1      -0.502  -0.173  25.254  0.00  0.00    +0.029 A 
ATOM     23  C   UNL     1      -1.720  -2.509  24.333  0.00  0.00    +0.005 A 
ATOM     24  C   UNL     1      -1.529  -0.763  25.992  0.00  0.00    +0.005 A 
ATOM     25  C   UNL     1      -2.138  -1.931  25.531  0.00  0.00    -0.050 A 
ATOM     27  C   UNL     1      -3.235  -2.561  26.321  0.00  0.00    +0.044 C 
ENDBRANCH   1  16
ENDBRANCH   8   1
ENDBRANCH  13   8
ENDBRANCH  11  13
TORSDOF 9
ENDMDL
MODEL 10
REMARK VINA RESULT:      -3.2      2.715      5.314
REMARK  Name = 75536711
REMARK  10 active torsions:
REMARK  status: ('A' for Active; 'I' for Inactive)
REMARK    1  A    between atoms: S_1  and  N_8
REMARK    2  A    between atoms: S_1  and  C_16
REMARK    3  A    between atoms: O_3  and  C_10
REMARK    4  A    between atoms: O_6  and  C_17
REMARK    5  A    between atoms: N_7  and  C_9
REMARK    6  A    between atoms: N_7  and  C_14
REMARK    7  A    between atoms: N_8  and  C_13
REMARK    8  A    between atoms: C_11  and  C_13
REMARK    9  A    between atoms: C_14  and  C_15
REMARK   10  A    between atoms: C_25  and  C_27
REMARK                            x       y       z     vdW  Elec       q    Type
REMARK                         _______ _______ _______ _____ _____    ______ ____
ROOT
ATOM      2  O   UNL     1      -1.588  -1.825  23.770  0.00  0.00    -0.371 OA
ATOM      9  C   UNL     1       0.184  -0.544  24.678  0.00  0.00    +0.111 C 
ATOM     10  C   UNL     1      -1.109  -0.075  25.322  0.00  0.00    +0.164 C 
ATOM     11  C   UNL     1      -2.215  -0.780  24.538  0.00  0.00    +0.164 C 
ATOM     12  C   UNL     1      -0.210  -1.914  24.151  0.00  0.00    +0.181 C 
ENDROOT
BRANCH  10   3
ATOM      3  O   UNL     1      -1.119  -0.547  26.671  0.00  0.00    -0.388 OA
ATOM     29  H   UNL     1      -0.510  -1.304  26.718  0.00  0.00    +0.210 HD
ENDBRANCH  10   3
BRANCH   9   7
ATOM      7  N   UNL     1       0.591   0.334  23.583  0.00  0.00    -0.305 NA
ATOM     28  H   UNL     1       1.094   1.135  23.967  0.00  0.00    +0.123 HD
BRANCH   7  14
ATOM     14  C   UNL     1       1.465  -0.363  22.648  0.00  0.00    +0.120 C 
BRANCH  14  15
ATOM     15  C   UNL     1       2.896  -0.370  23.116  0.00  0.00    +0.008 A 
ATOM     17  C   UNL     1       3.652   0.803  23.116  0.00  0.00    +0.121 A 
ATOM     18  C   UNL     1       3.465  -1.566  23.554  0.00  0.00    +0.008 A 
ATOM     21  C   UNL     1       4.976   0.780  23.553  0.00  0.00    +0.046 A 
ATOM     22  C   UNL     1       4.790  -1.590  23.991  0.00  0.00    +0.001 A 
ATOM     26  C   UNL     1       5.545  -0.417  23.991  0.00  0.00    +0.004 A 
BRANCH  17   6
ATOM      6  O   UNL     1       3.111   1.980  22.693  0.00  0.00    -0.506 OA
ATOM     31  H   UNL     1       2.885   1.905  21.750  0.00  0.00    +0.292 HD
ENDBRANCH  17   6
ENDBRANCH  14  15
ENDBRANCH   7  14
ENDBRANCH   9   7
BRANCH  11  13
ATOM     13  C   UNL     1      -2.959   0.137  23.579  0.00  0.00    +0.140 C 
BRANCH  13   8
ATOM      8  N   UNL     1      -4.400   0.121  23.896  0.00  0.00    -0.187 NA
ATOM     30  H   UNL     1      -5.016  -0.107  23.105  0.00  0.00    +0.148 HD
BRANCH   8   1
ATOM      1  S   UNL     1      -5.026   1.179  25.072  0.00  0.00    +0.058 S 
ATOM      4  O   UNL     1      -4.919   0.560  26.380  0.00  0.00    -0.153 OA
ATOM      5  O   UNL     1      -6.300   1.695  24.612  0.00  0.00    -0.153 OA
BRANCH   1  16
ATOM     16  C   UNL     1      -3.873   2.516  25.006  0.00  0.00    +0.105 A 
ATOM     19  C   UNL     1      -3.952   3.455  23.978  0.00  0.00    +0.029 A 
ATOM     20  C   UNL     1      -2.882   2.631  25.982  0.00  0.00    +0.029 A 
ATOM     23  C   UNL     1      -3.040   4.509  23.924  0.00  0.00    +0.005 A 
ATOM     24  C   UNL     1      -1.970   3.686  25.928  0.00  0.00    +0.005 A 
ATOM     25  C   UNL     1      -2.049   4.625  24.898  0.00  0.00    -0.050 A 
ATOM     27  C   UNL     1      -1.075   5.752  24.842  0.00  0.00    +0.044 C 
ENDBRANCH   1  16
ENDBRANCH   8   1
ENDBRANCH  13   8
ENDBRANCH  11  13
TORSDOF 9
ENDMDL
