MODEL 1
REMARK VINA RESULT:       1.3      0.000      0.000
REMARK  Name = 26745257
REMARK  4 active torsions:
REMARK  status: ('A' for Active; 'I' for Inactive)
REMARK    1  A    between atoms: N_5  and  C_9
REMARK    2  A    between atoms: N_8  and  C_23
REMARK    3  A    between atoms: C_15  and  C_21
REMARK    4  A    between atoms: C_23  and  C_24
REMARK                            x       y       z     vdW  Elec       q    Type
REMARK                         _______ _______ _______ _____ _____    ______ ____
ROOT
ATOM      2  O   UNL     1      -0.295   1.232  26.482  0.00  0.00    -0.253 OA
ATOM      4  N   UNL     1      -1.849   0.061  25.195  0.00  0.00    -0.268 N 
ATOM      5  N   UNL     1      -2.092   2.379  25.624  0.00  0.00    -0.296 N 
ATOM      6  N   UNL     1      -4.758  -1.700  23.593  0.00  0.00    -0.347 N 
ATOM      7  N   UNL     1      -3.762  -3.567  24.308  0.00  0.00    -0.240 NA
ATOM     15  C   UNL     1      -0.991  -1.154  25.185  0.00  0.00    +0.170 C 
ATOM     16  C   UNL     1      -1.744  -2.486  25.383  0.00  0.00    +0.089 C 
ATOM     17  C   UNL     1      -3.111   0.067  24.397  0.00  0.00    +0.165 C 
ATOM     18  C   UNL     1      -1.337   1.226  25.820  0.00  0.00    +0.303 C 
ATOM     19  C   UNL     1      -3.612  -1.308  24.221  0.00  0.00    +0.056 A 
ATOM     20  C   UNL     1      -3.021  -2.471  24.647  0.00  0.00    +0.066 A 
ATOM     22  C   UNL     1      -4.803  -3.069  23.671  0.00  0.00    +0.197 A 
ATOM     30  H   UNL     1      -2.850   2.379  24.954  0.00  0.00    +0.151 HD
ATOM     31  H   UNL     1      -5.442  -1.100  23.152  0.00  0.00    +0.167 HD
ENDROOT
BRANCH   5   9
ATOM      9  C   UNL     1      -1.706   3.655  26.185  0.00  0.00    +0.074 C 
ATOM     10  C   UNL     1      -0.465   4.212  25.480  0.00  0.00    +0.022 C 
ATOM     11  C   UNL     1      -2.868   4.653  26.136  0.00  0.00    +0.022 C 
ATOM     12  C   UNL     1      -0.765   4.696  24.061  0.00  0.00    +0.002 C 
ATOM     13  C   UNL     1      -3.165   5.136  24.717  0.00  0.00    +0.002 C 
ATOM     14  C   UNL     1      -1.917   5.697  24.039  0.00  0.00    +0.000 C 
ENDBRANCH   5   9
BRANCH  15  21
ATOM      3  O   UNL     1      -0.378  -2.003  23.037  0.00  0.00    -0.274 OA
ATOM      8  N   UNL     1       0.577  -0.012  23.775  0.00  0.00    -0.310 N 
ATOM     21  C   UNL     1      -0.249  -1.119  23.878  0.00  0.00    +0.234 C 
ATOM     32  H   UNL     1       0.591   0.674  24.523  0.00  0.00    +0.149 HD
BRANCH   8  23
ATOM     23  C   UNL     1       1.415   0.244  22.625  0.00  0.00    +0.139 C 
BRANCH  23  24
ATOM      1 CL   UNL     1       7.253  -0.410  23.903  0.00  0.00    -0.084 Cl
ATOM     24  C   UNL     1       2.872   0.081  22.944  0.00  0.00    -0.030 A 
ATOM     25  C   UNL     1       3.345  -1.130  23.451  0.00  0.00    +0.006 A 
ATOM     26  C   UNL     1       3.756   1.141  22.734  0.00  0.00    +0.006 A 
ATOM     27  C   UNL     1       4.698  -1.281  23.748  0.00  0.00    +0.020 A 
ATOM     28  C   UNL     1       5.109   0.989  23.031  0.00  0.00    +0.020 A 
ATOM     29  C   UNL     1       5.581  -0.221  23.539  0.00  0.00    +0.041 A 
ENDBRANCH  23  24
ENDBRANCH   8  23
ENDBRANCH  15  21
TORSDOF 4
ENDMDL
MODEL 2
REMARK VINA RESULT:       1.5      1.158      1.632
REMARK  Name = 26745257
REMARK  4 active torsions:
REMARK  status: ('A' for Active; 'I' for Inactive)
REMARK    1  A    between atoms: N_5  and  C_9
REMARK    2  A    between atoms: N_8  and  C_23
REMARK    3  A    between atoms: C_15  and  C_21
REMARK    4  A    between atoms: C_23  and  C_24
REMARK                            x       y       z     vdW  Elec       q    Type
REMARK                         _______ _______ _______ _____ _____    ______ ____
ROOT
ATOM      2  O   UNL     1      -1.769   2.596  26.298  0.00  0.00    -0.253 OA
ATOM      4  N   UNL     1      -2.602   0.764  25.118  0.00  0.00    -0.268 N 
ATOM      5  N   UNL     1      -3.861   2.757  25.360  0.00  0.00    -0.296 N 
ATOM      6  N   UNL     1      -4.374  -2.220  23.678  0.00  0.00    -0.347 N 
ATOM      7  N   UNL     1      -2.677  -3.391  24.536  0.00  0.00    -0.240 NA
ATOM     15  C   UNL     1      -1.293   0.061  25.202  0.00  0.00    +0.170 C 
ATOM     16  C   UNL     1      -1.383  -1.448  25.510  0.00  0.00    +0.089 C 
ATOM     17  C   UNL     1      -3.709   0.149  24.328  0.00  0.00    +0.165 C 
ATOM     18  C   UNL     1      -2.679   2.078  25.644  0.00  0.00    +0.303 C 
ATOM     19  C   UNL     1      -3.542  -1.314  24.266  0.00  0.00    +0.056 A 
ATOM     20  C   UNL     1      -2.510  -2.058  24.782  0.00  0.00    +0.066 A 
ATOM     22  C   UNL     1      -3.810  -3.457  23.866  0.00  0.00    +0.197 A 
ATOM     30  H   UNL     1      -4.518   2.369  24.695  0.00  0.00    +0.151 HD
ATOM     31  H   UNL     1      -5.240  -2.023  23.193  0.00  0.00    +0.167 HD
ENDROOT
BRANCH   5   9
ATOM      9  C   UNL     1      -4.099   4.110  25.813  0.00  0.00    +0.074 C 
ATOM     10  C   UNL     1      -2.809   4.749  26.339  0.00  0.00    +0.022 C 
ATOM     11  C   UNL     1      -4.728   4.960  24.704  0.00  0.00    +0.022 C 
ATOM     12  C   UNL     1      -1.822   5.080  25.220  0.00  0.00    +0.002 C 
ATOM     13  C   UNL     1      -3.738   5.291  23.588  0.00  0.00    +0.002 C 
ATOM     14  C   UNL     1      -2.467   5.937  24.134  0.00  0.00    +0.000 C 
ENDBRANCH   5   9
BRANCH  15  21
ATOM      3  O   UNL     1      -1.033   1.145  23.088  0.00  0.00    -0.274 OA
ATOM      8  N   UNL     1       0.520  -0.469  23.724  0.00  0.00    -0.310 N 
ATOM     21  C   UNL     1      -0.603   0.324  23.893  0.00  0.00    +0.234 C 
ATOM     32  H   UNL     1       0.802  -1.101  24.466  0.00  0.00    +0.149 HD
BRANCH   8  23
ATOM     23  C   UNL     1       1.348  -0.424  22.540  0.00  0.00    +0.139 C 
BRANCH  23  24
ATOM      1 CL   UNL     1       7.183   0.089  23.895  0.00  0.00    -0.084 Cl
ATOM     24  C   UNL     1       2.805  -0.297  22.878  0.00  0.00    -0.030 A 
ATOM     25  C   UNL     1       3.493   0.876  22.566  0.00  0.00    +0.006 A 
ATOM     26  C   UNL     1       3.471  -1.350  23.505  0.00  0.00    +0.006 A 
ATOM     27  C   UNL     1       4.847   0.994  22.880  0.00  0.00    +0.020 A 
ATOM     28  C   UNL     1       4.825  -1.232  23.818  0.00  0.00    +0.020 A 
ATOM     29  C   UNL     1       5.513  -0.059  23.505  0.00  0.00    +0.041 A 
ENDBRANCH  23  24
ENDBRANCH   8  23
ENDBRANCH  15  21
TORSDOF 4
ENDMDL
MODEL 3
REMARK VINA RESULT:       2.4      3.413      7.283
REMARK  Name = 26745257
REMARK  4 active torsions:
REMARK  status: ('A' for Active; 'I' for Inactive)
REMARK    1  A    between atoms: N_5  and  C_9
REMARK    2  A    between atoms: N_8  and  C_23
REMARK    3  A    between atoms: C_15  and  C_21
REMARK    4  A    between atoms: C_23  and  C_24
REMARK                            x       y       z     vdW  Elec       q    Type
REMARK                         _______ _______ _______ _____ _____    ______ ____
ROOT
ATOM      2  O   UNL     1      -0.807  -0.417  26.351  0.00  0.00    -0.253 OA
ATOM      4  N   UNL     1       0.324  -0.081  24.339  0.00  0.00    -0.268 N 
ATOM      5  N   UNL     1      -1.424  -1.670  24.526  0.00  0.00    -0.296 N 
ATOM      6  N   UNL     1       2.355  -0.131  21.177  0.00  0.00    -0.347 N 
ATOM      7  N   UNL     1       3.839   1.058  22.349  0.00  0.00    -0.240 NA
ATOM     15  C   UNL     1       1.043   1.100  24.890  0.00  0.00    +0.170 C 
ATOM     16  C   UNL     1       2.537   1.186  24.514  0.00  0.00    +0.089 C 
ATOM     17  C   UNL     1       0.508  -0.438  22.901  0.00  0.00    +0.165 C 
ATOM     18  C   UNL     1      -0.646  -0.705  25.161  0.00  0.00    +0.303 C 
ATOM     19  C   UNL     1       1.813   0.045  22.416  0.00  0.00    +0.056 A 
ATOM     20  C   UNL     1       2.741   0.778  23.112  0.00  0.00    +0.066 A 
ATOM     22  C   UNL     1       3.574   0.498  21.185  0.00  0.00    +0.197 A 
ATOM     30  H   UNL     1      -1.377  -1.774  23.521  0.00  0.00    +0.151 HD
ATOM     31  H   UNL     1       1.940  -0.626  20.399  0.00  0.00    +0.167 HD
ENDROOT
BRANCH   5   9
ATOM      9  C   UNL     1      -2.466  -2.396  25.219  0.00  0.00    +0.074 C 
ATOM     10  C   UNL     1      -3.224  -1.481  26.186  0.00  0.00    +0.022 C 
ATOM     11  C   UNL     1      -3.421  -3.069  24.227  0.00  0.00    +0.022 C 
ATOM     12  C   UNL     1      -4.122  -0.479  25.462  0.00  0.00    +0.002 C 
ATOM     13  C   UNL     1      -4.318  -2.065  23.505  0.00  0.00    +0.002 C 
ATOM     14  C   UNL     1      -5.071  -1.173  24.489  0.00  0.00    +0.000 C 
ENDBRANCH   5   9
BRANCH  15  21
ATOM      3  O   UNL     1       0.530   2.855  23.352  0.00  0.00    -0.274 OA
ATOM      8  N   UNL     1      -0.695   2.693  25.325  0.00  0.00    -0.310 N 
ATOM     21  C   UNL     1       0.276   2.302  24.418  0.00  0.00    +0.234 C 
ATOM     32  H   UNL     1      -0.839   2.148  26.170  0.00  0.00    +0.149 HD
BRANCH   8  23
ATOM     23  C   UNL     1      -1.556   3.835  25.118  0.00  0.00    +0.139 C 
BRANCH  23  24
ATOM      1 CL   UNL     1      -7.324   2.233  24.567  0.00  0.00    -0.084 Cl
ATOM     24  C   UNL     1      -2.997   3.436  24.980  0.00  0.00    -0.030 A 
ATOM     25  C   UNL     1      -3.434   2.787  23.825  0.00  0.00    +0.006 A 
ATOM     26  C   UNL     1      -3.899   3.712  26.008  0.00  0.00    +0.006 A 
ATOM     27  C   UNL     1      -4.772   2.417  23.697  0.00  0.00    +0.020 A 
ATOM     28  C   UNL     1      -5.237   3.341  25.880  0.00  0.00    +0.020 A 
ATOM     29  C   UNL     1      -5.674   2.694  24.724  0.00  0.00    +0.041 A 
ENDBRANCH  23  24
ENDBRANCH   8  23
ENDBRANCH  15  21
TORSDOF 4
ENDMDL
MODEL 4
REMARK VINA RESULT:       4.6      3.316      6.952
REMARK  Name = 26745257
REMARK  4 active torsions:
REMARK  status: ('A' for Active; 'I' for Inactive)
REMARK    1  A    between atoms: N_5  and  C_9
REMARK    2  A    between atoms: N_8  and  C_23
REMARK    3  A    between atoms: C_15  and  C_21
REMARK    4  A    between atoms: C_23  and  C_24
REMARK                            x       y       z     vdW  Elec       q    Type
REMARK                         _______ _______ _______ _____ _____    ______ ____
ROOT
ATOM      2  O   UNL     1       1.161  -0.499  21.346  0.00  0.00    -0.253 OA
ATOM      4  N   UNL     1       0.079  -0.523  23.413  0.00  0.00    -0.268 N 
ATOM      5  N   UNL     1       2.439  -0.655  23.250  0.00  0.00    -0.296 N 
ATOM      6  N   UNL     1      -1.444  -1.153  26.790  0.00  0.00    -0.347 N 
ATOM      7  N   UNL     1      -3.346  -1.448  25.655  0.00  0.00    -0.240 NA
ATOM     15  C   UNL     1      -1.231  -0.210  22.779  0.00  0.00    +0.170 C 
ATOM     16  C   UNL     1      -2.430  -1.002  23.339  0.00  0.00    +0.089 C 
ATOM     17  C   UNL     1       0.168  -0.595  24.901  0.00  0.00    +0.165 C 
ATOM     18  C   UNL     1       1.224  -0.559  22.578  0.00  0.00    +0.303 C 
ATOM     19  C   UNL     1      -1.143  -0.948  25.476  0.00  0.00    +0.056 A 
ATOM     20  C   UNL     1      -2.325  -1.132  24.804  0.00  0.00    +0.066 A 
ATOM     22  C   UNL     1      -2.783  -1.450  26.847  0.00  0.00    +0.197 A 
ATOM     30  H   UNL     1       2.471  -0.545  24.255  0.00  0.00    +0.151 HD
ATOM     31  H   UNL     1      -0.808  -1.095  27.574  0.00  0.00    +0.167 HD
ENDROOT
BRANCH   5   9
ATOM      9  C   UNL     1       3.704  -0.693  22.549  0.00  0.00    +0.074 C 
ATOM     10  C   UNL     1       4.181   0.720  22.197  0.00  0.00    +0.022 C 
ATOM     11  C   UNL     1       4.761  -1.450  23.360  0.00  0.00    +0.022 C 
ATOM     12  C   UNL     1       4.652   1.501  23.423  0.00  0.00    +0.002 C 
ATOM     13  C   UNL     1       5.231  -0.666  24.585  0.00  0.00    +0.002 C 
ATOM     14  C   UNL     1       5.712   0.733  24.208  0.00  0.00    +0.000 C 
ENDBRANCH   5   9
BRANCH  15  21
ATOM      3  O   UNL     1      -1.976   1.949  22.078  0.00  0.00    -0.274 OA
ATOM      8  N   UNL     1      -0.872   1.747  24.117  0.00  0.00    -0.310 N 
ATOM     21  C   UNL     1      -1.416   1.273  22.935  0.00  0.00    +0.234 C 
ATOM     32  H   UNL     1      -0.450   1.094  24.771  0.00  0.00    +0.149 HD
BRANCH   8  23
ATOM     23  C   UNL     1      -0.898   3.141  24.496  0.00  0.00    +0.139 C 
BRANCH  23  24
ATOM      1 CL   UNL     1      -6.443   4.980  25.918  0.00  0.00    -0.084 Cl
ATOM     24  C   UNL     1      -2.283   3.601  24.851  0.00  0.00    -0.030 A 
ATOM     25  C   UNL     1      -3.323   3.454  23.934  0.00  0.00    +0.006 A 
ATOM     26  C   UNL     1      -2.529   4.175  26.099  0.00  0.00    +0.006 A 
ATOM     27  C   UNL     1      -4.609   3.881  24.264  0.00  0.00    +0.020 A 
ATOM     28  C   UNL     1      -3.815   4.602  26.429  0.00  0.00    +0.020 A 
ATOM     29  C   UNL     1      -4.855   4.456  25.511  0.00  0.00    +0.041 A 
ENDBRANCH  23  24
ENDBRANCH   8  23
ENDBRANCH  15  21
TORSDOF 4
ENDMDL
MODEL 5
REMARK VINA RESULT:       5.3      3.893      6.386
REMARK  Name = 26745257
REMARK  4 active torsions:
REMARK  status: ('A' for Active; 'I' for Inactive)
REMARK    1  A    between atoms: N_5  and  C_9
REMARK    2  A    between atoms: N_8  and  C_23
REMARK    3  A    between atoms: C_15  and  C_21
REMARK    4  A    between atoms: C_23  and  C_24
REMARK                            x       y       z     vdW  Elec       q    Type
REMARK                         _______ _______ _______ _____ _____    ______ ____
ROOT
ATOM      2  O   UNL     1      -2.112   3.696  24.040  0.00  0.00    -0.253 OA
ATOM      4  N   UNL     1      -1.083   2.959  26.000  0.00  0.00    -0.268 N 
ATOM      5  N   UNL     1      -3.397   3.464  25.931  0.00  0.00    -0.296 N 
ATOM      6  N   UNL     1       0.439   2.347  29.381  0.00  0.00    -0.347 N 
ATOM      7  N   UNL     1       2.387   2.692  28.345  0.00  0.00    -0.240 NA
ATOM     15  C   UNL     1       0.184   2.666  25.276  0.00  0.00    +0.170 C 
ATOM     16  C   UNL     1       1.470   3.081  26.019  0.00  0.00    +0.089 C 
ATOM     17  C   UNL     1      -1.194   2.602  27.445  0.00  0.00    +0.165 C 
ATOM     18  C   UNL     1      -2.192   3.399  25.236  0.00  0.00    +0.303 C 
ATOM     19  C   UNL     1       0.141   2.583  28.072  0.00  0.00    +0.056 A 
ATOM     20  C   UNL     1       1.351   2.788  27.460  0.00  0.00    +0.066 A 
ATOM     22  C   UNL     1       1.804   2.423  29.496  0.00  0.00    +0.197 A 
ATOM     30  H   UNL     1      -3.466   3.068  26.860  0.00  0.00    +0.151 HD
ATOM     31  H   UNL     1      -0.216   2.151  30.126  0.00  0.00    +0.167 HD
ENDROOT
BRANCH   5   9
ATOM      9  C   UNL     1      -4.628   3.883  25.298  0.00  0.00    +0.074 C 
ATOM     10  C   UNL     1      -4.784   3.241  23.916  0.00  0.00    +0.022 C 
ATOM     11  C   UNL     1      -5.837   3.581  26.191  0.00  0.00    +0.022 C 
ATOM     12  C   UNL     1      -5.096   1.747  23.997  0.00  0.00    +0.002 C 
ATOM     13  C   UNL     1      -6.148   2.087  26.268  0.00  0.00    +0.002 C 
ATOM     14  C   UNL     1      -6.310   1.472  24.880  0.00  0.00    +0.000 C 
ENDBRANCH   5   9
BRANCH  15  21
ATOM      3  O   UNL     1       0.478   0.742  23.889  0.00  0.00    -0.274 OA
ATOM      8  N   UNL     1      -0.283   0.452  26.070  0.00  0.00    -0.310 N 
ATOM     21  C   UNL     1       0.157   1.192  24.985  0.00  0.00    +0.234 C 
ATOM     32  H   UNL     1      -0.502   0.925  26.942  0.00  0.00    +0.149 HD
BRANCH   8  23
ATOM     23  C   UNL     1      -0.421  -0.986  26.042  0.00  0.00    +0.139 C 
BRANCH  23  24
ATOM      1 CL   UNL     1      -5.492  -2.710  23.311  0.00  0.00    -0.084 Cl
ATOM     24  C   UNL     1      -1.687  -1.416  25.360  0.00  0.00    -0.030 A 
ATOM     25  C   UNL     1      -1.681  -2.523  24.511  0.00  0.00    +0.006 A 
ATOM     26  C   UNL     1      -2.871  -0.709  25.575  0.00  0.00    +0.006 A 
ATOM     27  C   UNL     1      -2.857  -2.922  23.877  0.00  0.00    +0.020 A 
ATOM     28  C   UNL     1      -4.047  -1.108  24.941  0.00  0.00    +0.020 A 
ATOM     29  C   UNL     1      -4.040  -2.215  24.091  0.00  0.00    +0.041 A 
ENDBRANCH  23  24
ENDBRANCH   8  23
ENDBRANCH  15  21
TORSDOF 4
ENDMDL
