MODEL 1
REMARK VINA RESULT:      22.6      0.000      0.000
REMARK  Name = 11941380
REMARK  7 active torsions:
REMARK  status: ('A' for Active; 'I' for Inactive)
REMARK    1  A    between atoms: O_4  and  C_26
REMARK    2  A    between atoms: O_4  and  C_34
REMARK    3  A    between atoms: O_5  and  C_31
REMARK    4  A    between atoms: O_5  and  C_35
REMARK    5  A    between atoms: N_7  and  C_12
REMARK    6  A    between atoms: C_19  and  C_24
REMARK    7  A    between atoms: C_22  and  C_25
REMARK                            x       y       z     vdW  Elec       q    Type
REMARK                         _______ _______ _______ _____ _____    ______ ____
ROOT
ATOM      1  O   UNL     1      -3.800  -2.497  25.726  0.00  0.00    -0.273 OA
ATOM      2  O   UNL     1      -0.948  -0.471  21.787  0.00  0.00    -0.270 OA
ATOM      6  N   UNL     1      -2.437  -0.443  23.539  0.00  0.00    -0.284 N 
ATOM      8  N   UNL     1      -1.558  -2.598  25.339  0.00  0.00    -0.283 N 
ATOM     11  C   UNL     1      -2.739  -0.472  24.958  0.00  0.00    +0.183 C 
ATOM     12  C   UNL     1      -4.098   0.230  25.082  0.00  0.00    +0.104 C 
ATOM     13  C   UNL     1      -4.746  -0.005  23.715  0.00  0.00    +0.043 C 
ATOM     14  C   UNL     1      -3.566   0.034  22.756  0.00  0.00    +0.111 C 
ATOM     15  C   UNL     1      -2.770  -1.940  25.339  0.00  0.00    +0.240 C 
ATOM     16  C   UNL     1      -1.198  -0.665  22.976  0.00  0.00    +0.249 C 
ATOM     17  C   UNL     1      -0.115  -1.189  23.850  0.00  0.00    +0.059 A 
ATOM     18  C   UNL     1      -0.309  -2.141  24.865  0.00  0.00    +0.046 A 
ATOM     20  C   UNL     1       1.193  -0.811  23.496  0.00  0.00    +0.023 A 
ATOM     21  C   UNL     1       0.818  -2.739  25.456  0.00  0.00    +0.024 A 
ATOM     22  C   UNL     1       2.297  -1.382  24.127  0.00  0.00    -0.014 A 
ATOM     23  C   UNL     1       2.110  -2.356  25.099  0.00  0.00    +0.010 A 
ATOM     37  H   UNL     1      -1.549  -3.496  25.817  0.00  0.00    +0.155 HD
ENDROOT
BRANCH  22  25
ATOM     25  C   UNL     1       3.635  -0.977  23.754  0.00  0.00    +0.024 A 
ATOM     26  C   UNL     1       3.847   0.125  22.924  0.00  0.00    +0.131 A 
ATOM     28  C   UNL     1       4.726  -1.703  24.236  0.00  0.00    +0.016 A 
ATOM     29  C   UNL     1       5.146   0.499  22.577  0.00  0.00    +0.091 A 
ATOM     30  C   UNL     1       6.024  -1.329  23.890  0.00  0.00    +0.046 A 
ATOM     31  C   UNL     1       6.234  -0.228  23.059  0.00  0.00    +0.124 A 
BRANCH  26   4
ATOM      4  O   UNL     1       2.802   0.853  22.438  0.00  0.00    -0.494 OA
ATOM     34  C   UNL     1       2.339   1.936  23.242  0.00  0.00    +0.277 C 
ENDBRANCH  26   4
BRANCH  31   5
ATOM      5  O   UNL     1       7.500   0.138  22.721  0.00  0.00    -0.495 OA
ATOM     35  C   UNL     1       8.497  -0.883  22.740  0.00  0.00    +0.277 C 
ENDBRANCH  31   5
ENDBRANCH  22  25
BRANCH  12   7
ATOM      3  O   UNL     1      -1.665   1.738  24.846  0.00  0.00    -0.268 OA
ATOM      7  N   UNL     1      -3.928   1.642  25.344  0.00  0.00    -0.305 N 
ATOM     19  C   UNL     1      -2.707   2.282  25.201  0.00  0.00    +0.264 C 
ATOM     36  H   UNL     1      -4.723   2.168  25.694  0.00  0.00    +0.149 HD
BRANCH  19  24
ATOM      9  N   UNL     1      -3.644   4.129  26.376  0.00  0.00    -0.247 NA
ATOM     10  N   UNL     1      -1.727   5.861  25.285  0.00  0.00    -0.259 NA
ATOM     24  C   UNL     1      -2.692   3.729  25.534  0.00  0.00    +0.143 A 
ATOM     27  C   UNL     1      -1.751   4.546  24.991  0.00  0.00    +0.143 A 
ATOM     32  C   UNL     1      -3.620   5.444  26.672  0.00  0.00    +0.131 A 
ATOM     33  C   UNL     1      -2.679   6.295  26.135  0.00  0.00    +0.130 A 
ENDBRANCH  19  24
ENDBRANCH  12   7
TORSDOF 5
ENDMDL
MODEL 2
REMARK VINA RESULT:      25.0      2.721      8.181
REMARK  Name = 11941380
REMARK  7 active torsions:
REMARK  status: ('A' for Active; 'I' for Inactive)
REMARK    1  A    between atoms: O_4  and  C_26
REMARK    2  A    between atoms: O_4  and  C_34
REMARK    3  A    between atoms: O_5  and  C_31
REMARK    4  A    between atoms: O_5  and  C_35
REMARK    5  A    between atoms: N_7  and  C_12
REMARK    6  A    between atoms: C_19  and  C_24
REMARK    7  A    between atoms: C_22  and  C_25
REMARK                            x       y       z     vdW  Elec       q    Type
REMARK                         _______ _______ _______ _____ _____    ______ ____
ROOT
ATOM      1  O   UNL     1      -1.522  -4.389  23.650  0.00  0.00    -0.273 OA
ATOM      2  O   UNL     1      -1.880  -0.677  27.372  0.00  0.00    -0.270 OA
ATOM      6  N   UNL     1      -0.853  -1.931  25.740  0.00  0.00    -0.284 N 
ATOM      8  N   UNL     1      -2.996  -2.666  23.861  0.00  0.00    -0.283 N 
ATOM     11  C   UNL     1      -0.616  -2.267  24.348  0.00  0.00    +0.183 C 
ATOM     12  C   UNL     1       0.777  -2.912  24.335  0.00  0.00    +0.104 C 
ATOM     13  C   UNL     1       0.916  -3.489  25.746  0.00  0.00    +0.043 C 
ATOM     14  C   UNL     1       0.173  -2.482  26.611  0.00  0.00    +0.111 C 
ATOM     15  C   UNL     1      -1.734  -3.216  23.960  0.00  0.00    +0.240 C 
ATOM     16  C   UNL     1      -1.817  -1.061  26.203  0.00  0.00    +0.249 C 
ATOM     17  C   UNL     1      -2.846  -0.580  25.245  0.00  0.00    +0.059 A 
ATOM     18  C   UNL     1      -3.425  -1.375  24.241  0.00  0.00    +0.046 A 
ATOM     20  C   UNL     1      -3.367   0.701  25.499  0.00  0.00    +0.023 A 
ATOM     21  C   UNL     1      -4.555  -0.889  23.560  0.00  0.00    +0.024 A 
ATOM     22  C   UNL     1      -4.460   1.184  24.780  0.00  0.00    -0.014 A 
ATOM     23  C   UNL     1      -5.062   0.383  23.819  0.00  0.00    +0.010 A 
ATOM     37  H   UNL     1      -3.684  -3.238  23.378  0.00  0.00    +0.155 HD
ENDROOT
BRANCH  22  25
ATOM     25  C   UNL     1      -4.980   2.507  25.051  0.00  0.00    +0.024 A 
ATOM     26  C   UNL     1      -4.215   3.646  24.795  0.00  0.00    +0.131 A 
ATOM     28  C   UNL     1      -6.267   2.638  25.578  0.00  0.00    +0.016 A 
ATOM     29  C   UNL     1      -4.734   4.912  25.063  0.00  0.00    +0.091 A 
ATOM     30  C   UNL     1      -6.786   3.905  25.845  0.00  0.00    +0.046 A 
ATOM     31  C   UNL     1      -6.020   5.042  25.588  0.00  0.00    +0.124 A 
BRANCH  26   4
ATOM      4  O   UNL     1      -2.955   3.548  24.282  0.00  0.00    -0.494 OA
ATOM     34  C   UNL     1      -1.893   4.076  25.072  0.00  0.00    +0.277 C 
ENDBRANCH  26   4
BRANCH  31   5
ATOM      5  O   UNL     1      -6.527   6.278  25.849  0.00  0.00    -0.495 OA
ATOM     35  C   UNL     1      -6.956   7.052  24.730  0.00  0.00    +0.277 C 
ENDBRANCH  31   5
ENDBRANCH  22  25
BRANCH  12   7
ATOM      3  O   UNL     1       0.495  -0.526  22.763  0.00  0.00    -0.268 OA
ATOM      7  N   UNL     1       1.801  -1.925  24.071  0.00  0.00    -0.305 N 
ATOM     19  C   UNL     1       1.566  -0.801  23.295  0.00  0.00    +0.264 C 
ATOM     36  H   UNL     1       2.738  -2.093  24.427  0.00  0.00    +0.149 HD
BRANCH  19  24
ATOM      9  N   UNL     1       3.922  -0.486  23.156  0.00  0.00    -0.247 NA
ATOM     10  N   UNL     1       3.578   2.259  22.691  0.00  0.00    -0.259 NA
ATOM     24  C   UNL     1       2.728   0.102  23.096  0.00  0.00    +0.143 A 
ATOM     27  C   UNL     1       2.532   1.428  22.872  0.00  0.00    +0.143 A 
ATOM     32  C   UNL     1       4.969   0.344  22.974  0.00  0.00    +0.131 A 
ATOM     33  C   UNL     1       4.800   1.692  22.746  0.00  0.00    +0.130 A 
ENDBRANCH  19  24
ENDBRANCH  12   7
TORSDOF 5
ENDMDL
MODEL 3
REMARK VINA RESULT:      25.3      2.154      5.001
REMARK  Name = 11941380
REMARK  7 active torsions:
REMARK  status: ('A' for Active; 'I' for Inactive)
REMARK    1  A    between atoms: O_4  and  C_26
REMARK    2  A    between atoms: O_4  and  C_34
REMARK    3  A    between atoms: O_5  and  C_31
REMARK    4  A    between atoms: O_5  and  C_35
REMARK    5  A    between atoms: N_7  and  C_12
REMARK    6  A    between atoms: C_19  and  C_24
REMARK    7  A    between atoms: C_22  and  C_25
REMARK                            x       y       z     vdW  Elec       q    Type
REMARK                         _______ _______ _______ _____ _____    ______ ____
ROOT
ATOM      1  O   UNL     1      -3.225   4.939  24.056  0.00  0.00    -0.273 OA
ATOM      2  O   UNL     1       0.206   2.071  26.843  0.00  0.00    -0.270 OA
ATOM      6  N   UNL     1      -1.772   2.521  25.760  0.00  0.00    -0.284 N 
ATOM      8  N   UNL     1      -1.066   4.381  23.592  0.00  0.00    -0.283 N 
ATOM     11  C   UNL     1      -2.559   2.674  24.551  0.00  0.00    +0.183 C 
ATOM     12  C   UNL     1      -4.004   2.396  24.987  0.00  0.00    +0.104 C 
ATOM     13  C   UNL     1      -4.005   2.770  26.472  0.00  0.00    +0.043 C 
ATOM     14  C   UNL     1      -2.614   2.367  26.936  0.00  0.00    +0.111 C 
ATOM     15  C   UNL     1      -2.323   4.100  24.087  0.00  0.00    +0.240 C 
ATOM     16  C   UNL     1      -0.404   2.362  25.814  0.00  0.00    +0.249 C 
ATOM     17  C   UNL     1       0.376   2.576  24.567  0.00  0.00    +0.059 A 
ATOM     18  C   UNL     1       0.091   3.571  23.617  0.00  0.00    +0.046 A 
ATOM     20  C   UNL     1       1.562   1.829  24.451  0.00  0.00    +0.023 A 
ATOM     21  C   UNL     1       1.035   3.837  22.609  0.00  0.00    +0.024 A 
ATOM     22  C   UNL     1       2.463   2.075  23.417  0.00  0.00    -0.014 A 
ATOM     23  C   UNL     1       2.206   3.089  22.503  0.00  0.00    +0.010 A 
ATOM     37  H   UNL     1      -0.988   5.252  23.072  0.00  0.00    +0.155 HD
ENDROOT
BRANCH  22  25
ATOM     25  C   UNL     1       3.676   1.293  23.310  0.00  0.00    +0.024 A 
ATOM     26  C   UNL     1       3.856   0.387  22.263  0.00  0.00    +0.131 A 
ATOM     28  C   UNL     1       4.676   1.452  24.271  0.00  0.00    +0.016 A 
ATOM     29  C   UNL     1       5.033  -0.358  22.178  0.00  0.00    +0.091 A 
ATOM     30  C   UNL     1       5.853   0.707  24.185  0.00  0.00    +0.046 A 
ATOM     31  C   UNL     1       6.031  -0.198  23.139  0.00  0.00    +0.124 A 
BRANCH  26   4
ATOM      4  O   UNL     1       2.897   0.210  21.311  0.00  0.00    -0.494 OA
ATOM     34  C   UNL     1       1.714  -0.480  21.705  0.00  0.00    +0.277 C 
ENDBRANCH  26   4
BRANCH  31   5
ATOM      5  O   UNL     1       7.179  -0.924  23.056  0.00  0.00    -0.495 OA
ATOM     35  C   UNL     1       8.408  -0.202  23.112  0.00  0.00    +0.277 C 
ENDBRANCH  31   5
ENDBRANCH  22  25
BRANCH  12   7
ATOM      3  O   UNL     1      -2.203   0.277  24.272  0.00  0.00    -0.268 OA
ATOM      7  N   UNL     1      -4.341   1.003  24.799  0.00  0.00    -0.305 N 
ATOM     19  C   UNL     1      -3.397   0.050  24.452  0.00  0.00    +0.264 C 
ATOM     36  H   UNL     1      -5.317   0.727  24.874  0.00  0.00    +0.149 HD
BRANCH  19  24
ATOM      9  N   UNL     1      -4.982  -1.443  23.489  0.00  0.00    -0.247 NA
ATOM     10  N   UNL     1      -3.740  -3.636  24.720  0.00  0.00    -0.259 NA
ATOM     24  C   UNL     1      -3.907  -1.332  24.270  0.00  0.00    +0.143 A 
ATOM     27  C   UNL     1      -3.285  -2.376  24.878  0.00  0.00    +0.143 A 
ATOM     32  C   UNL     1      -5.437  -2.702  23.331  0.00  0.00    +0.131 A 
ATOM     33  C   UNL     1      -4.826  -3.779  23.936  0.00  0.00    +0.130 A 
ENDBRANCH  19  24
ENDBRANCH  12   7
TORSDOF 5
ENDMDL
