MODEL 1
REMARK VINA RESULT:      -4.7      0.000      0.000
REMARK  Name = 45783963
REMARK  5 active torsions:
REMARK  status: ('A' for Active; 'I' for Inactive)
REMARK    1  A    between atoms: O_3  and  C_15
REMARK    2  A    between atoms: O_3  and  C_20
REMARK    3  A    between atoms: C_6  and  C_10
REMARK    4  A    between atoms: C_11  and  C_12
REMARK    5  A    between atoms: C_12  and  C_15
REMARK                            x       y       z     vdW  Elec       q    Type
REMARK                         _______ _______ _______ _____ _____    ______ ____
ROOT
ATOM      2  O   UNL     1      -2.610   4.485  26.980  0.00  0.00    -0.276 OA
ATOM      4  N   UNL     1      -1.343   3.374  25.399  0.00  0.00    -0.301 N 
ATOM      6  C   UNL     1      -0.096   1.350  25.441  0.00  0.00    +0.094 C 
ATOM      7  C   UNL     1       0.269   2.152  24.182  0.00  0.00    +0.033 C 
ATOM      8  C   UNL     1      -0.740   2.425  26.327  0.00  0.00    +0.120 C 
ATOM      9  C   UNL     1      -0.873   3.151  24.036  0.00  0.00    +0.108 C 
ATOM     11  C   UNL     1      -2.245   4.337  25.812  0.00  0.00    +0.218 C 
ENDROOT
BRANCH   6  10
ATOM      1  O   UNL     1      -2.249   0.404  24.777  0.00  0.00    -0.439 OA
ATOM      5  N   UNL     1      -0.607  -1.127  25.090  0.00  0.00    -0.213 NA
ATOM     10  C   UNL     1      -0.953   0.142  25.106  0.00  0.00    +0.201 A 
ATOM     13  C   UNL     1      -2.773  -0.832  24.529  0.00  0.00    +0.155 A 
ATOM     14  C   UNL     1      -1.766  -1.766  24.721  0.00  0.00    +0.110 A 
ATOM     16  C   UNL     1      -4.074  -1.139  24.149  0.00  0.00    +0.048 A 
ATOM     17  C   UNL     1      -2.054  -3.124  24.526  0.00  0.00    +0.031 A 
ATOM     18  C   UNL     1      -4.345  -2.498  23.958  0.00  0.00    +0.004 A 
ATOM     19  C   UNL     1      -3.357  -3.473  24.143  0.00  0.00    +0.002 A 
ENDBRANCH   6  10
BRANCH  11  12
ATOM     12  C   UNL     1      -2.779   5.236  24.726  0.00  0.00    +0.124 C 
BRANCH  12  15
ATOM     15  C   UNL     1      -3.926   4.549  24.018  0.00  0.00    +0.168 C 
BRANCH  15   3
ATOM      3  O   UNL     1      -4.720   3.849  24.967  0.00  0.00    -0.382 OA
ATOM     20  C   UNL     1      -4.952   2.506  24.564  0.00  0.00    +0.194 C 
ENDBRANCH  15   3
ENDBRANCH  12  15
ENDBRANCH  11  12
TORSDOF 4
ENDMDL
MODEL 2
REMARK VINA RESULT:      -3.4      1.789      3.455
REMARK  Name = 45783963
REMARK  5 active torsions:
REMARK  status: ('A' for Active; 'I' for Inactive)
REMARK    1  A    between atoms: O_3  and  C_15
REMARK    2  A    between atoms: O_3  and  C_20
REMARK    3  A    between atoms: C_6  and  C_10
REMARK    4  A    between atoms: C_11  and  C_12
REMARK    5  A    between atoms: C_12  and  C_15
REMARK                            x       y       z     vdW  Elec       q    Type
REMARK                         _______ _______ _______ _____ _____    ______ ____
ROOT
ATOM      2  O   UNL     1      -3.110   5.042  23.174  0.00  0.00    -0.276 OA
ATOM      4  N   UNL     1      -3.979   3.724  24.861  0.00  0.00    -0.301 N 
ATOM      6  C   UNL     1      -5.374   1.799  24.867  0.00  0.00    +0.094 C 
ATOM      7  C   UNL     1      -5.291   2.377  26.289  0.00  0.00    +0.033 C 
ATOM      8  C   UNL     1      -4.906   2.984  24.013  0.00  0.00    +0.120 C 
ATOM      9  C   UNL     1      -4.064   3.281  26.248  0.00  0.00    +0.108 C 
ATOM     11  C   UNL     1      -3.143   4.704  24.358  0.00  0.00    +0.218 C 
ENDROOT
BRANCH   6  10
ATOM      1  O   UNL     1      -3.242   0.610  25.002  0.00  0.00    -0.439 OA
ATOM      5  N   UNL     1      -5.004  -0.686  24.410  0.00  0.00    -0.213 NA
ATOM     10  C   UNL     1      -4.576   0.513  24.740  0.00  0.00    +0.201 A 
ATOM     13  C   UNL     1      -2.785  -0.662  24.817  0.00  0.00    +0.155 A 
ATOM     14  C   UNL     1      -3.865  -1.453  24.454  0.00  0.00    +0.110 A 
ATOM     16  C   UNL     1      -1.481  -1.121  24.957  0.00  0.00    +0.048 A 
ATOM     17  C   UNL     1      -3.655  -2.816  24.205  0.00  0.00    +0.031 A 
ATOM     18  C   UNL     1      -1.287  -2.483  24.705  0.00  0.00    +0.004 A 
ATOM     19  C   UNL     1      -2.351  -3.316  24.336  0.00  0.00    +0.002 A 
ENDBRANCH   6  10
BRANCH  11  12
ATOM     12  C   UNL     1      -2.241   5.369  25.367  0.00  0.00    +0.124 C 
BRANCH  12  15
ATOM     15  C   UNL     1      -0.803   4.987  25.089  0.00  0.00    +0.168 C 
BRANCH  15   3
ATOM      3  O   UNL     1      -0.733   3.607  24.760  0.00  0.00    -0.382 OA
ATOM     20  C   UNL     1      -0.315   2.826  25.872  0.00  0.00    +0.194 C 
ENDBRANCH  15   3
ENDBRANCH  12  15
ENDBRANCH  11  12
TORSDOF 4
ENDMDL
MODEL 3
REMARK VINA RESULT:      -3.3      1.239      1.531
REMARK  Name = 45783963
REMARK  5 active torsions:
REMARK  status: ('A' for Active; 'I' for Inactive)
REMARK    1  A    between atoms: O_3  and  C_15
REMARK    2  A    between atoms: O_3  and  C_20
REMARK    3  A    between atoms: C_6  and  C_10
REMARK    4  A    between atoms: C_11  and  C_12
REMARK    5  A    between atoms: C_12  and  C_15
REMARK                            x       y       z     vdW  Elec       q    Type
REMARK                         _______ _______ _______ _____ _____    ______ ____
ROOT
ATOM      2  O   UNL     1      -3.138   4.469  26.995  0.00  0.00    -0.276 OA
ATOM      4  N   UNL     1      -2.762   3.602  24.887  0.00  0.00    -0.301 N 
ATOM      6  C   UNL     1      -1.141   2.100  24.010  0.00  0.00    +0.094 C 
ATOM      7  C   UNL     1      -1.882   2.790  22.852  0.00  0.00    +0.033 C 
ATOM      8  C   UNL     1      -1.455   3.031  25.188  0.00  0.00    +0.120 C 
ATOM      9  C   UNL     1      -3.143   3.348  23.502  0.00  0.00    +0.108 C 
ATOM     11  C   UNL     1      -3.507   4.280  25.835  0.00  0.00    +0.218 C 
ENDROOT
BRANCH   6  10
ATOM      1  O   UNL     1      -2.883   0.387  23.930  0.00  0.00    -0.439 OA
ATOM      5  N   UNL     1      -0.825  -0.390  24.479  0.00  0.00    -0.213 NA
ATOM     10  C   UNL     1      -1.565   0.650  24.158  0.00  0.00    +0.201 A 
ATOM     13  C   UNL     1      -2.980  -0.960  24.128  0.00  0.00    +0.155 A 
ATOM     14  C   UNL     1      -1.720  -1.432  24.464  0.00  0.00    +0.110 A 
ATOM     16  C   UNL     1      -4.118  -1.751  24.021  0.00  0.00    +0.048 A 
ATOM     17  C   UNL     1      -1.554  -2.800  24.719  0.00  0.00    +0.031 A 
ATOM     18  C   UNL     1      -3.935  -3.114  24.279  0.00  0.00    +0.004 A 
ATOM     19  C   UNL     1      -2.680  -3.630  24.622  0.00  0.00    +0.002 A 
ENDBRANCH   6  10
BRANCH  11  12
ATOM     12  C   UNL     1      -4.839   4.803  25.363  0.00  0.00    +0.124 C 
BRANCH  12  15
ATOM     15  C   UNL     1      -5.933   3.839  25.768  0.00  0.00    +0.168 C 
BRANCH  15   3
ATOM      3  O   UNL     1      -5.847   2.662  24.976  0.00  0.00    -0.382 OA
ATOM     20  C   UNL     1      -5.824   1.492  25.781  0.00  0.00    +0.194 C 
ENDBRANCH  15   3
ENDBRANCH  12  15
ENDBRANCH  11  12
TORSDOF 4
ENDMDL
MODEL 4
REMARK VINA RESULT:      -3.3      1.779      5.237
REMARK  Name = 45783963
REMARK  5 active torsions:
REMARK  status: ('A' for Active; 'I' for Inactive)
REMARK    1  A    between atoms: O_3  and  C_15
REMARK    2  A    between atoms: O_3  and  C_20
REMARK    3  A    between atoms: C_6  and  C_10
REMARK    4  A    between atoms: C_11  and  C_12
REMARK    5  A    between atoms: C_12  and  C_15
REMARK                            x       y       z     vdW  Elec       q    Type
REMARK                         _______ _______ _______ _____ _____    ______ ____
ROOT
ATOM      2  O   UNL     1       0.349  -0.220  22.442  0.00  0.00    -0.276 OA
ATOM      4  N   UNL     1       0.066   0.988  24.391  0.00  0.00    -0.301 N 
ATOM      6  C   UNL     1      -0.759   3.170  24.849  0.00  0.00    +0.094 C 
ATOM      7  C   UNL     1      -0.053   2.617  26.097  0.00  0.00    +0.033 C 
ATOM      8  C   UNL     1      -0.206   2.264  23.741  0.00  0.00    +0.120 C 
ATOM      9  C   UNL     1       0.019   1.115  25.844  0.00  0.00    +0.108 C 
ATOM     11  C   UNL     1       0.320  -0.166  23.673  0.00  0.00    +0.218 C 
ENDROOT
BRANCH   6  10
ATOM      1  O   UNL     1      -2.915   2.024  24.734  0.00  0.00    -0.439 OA
ATOM      5  N   UNL     1      -3.034   4.182  25.416  0.00  0.00    -0.213 NA
ATOM     10  C   UNL     1      -2.268   3.187  25.023  0.00  0.00    +0.201 A 
ATOM     13  C   UNL     1      -4.226   2.317  24.972  0.00  0.00    +0.155 A 
ATOM     14  C   UNL     1      -4.296   3.639  25.389  0.00  0.00    +0.110 A 
ATOM     16  C   UNL     1      -5.321   1.473  24.834  0.00  0.00    +0.048 A 
ATOM     17  C   UNL     1      -5.548   4.187  25.699  0.00  0.00    +0.031 A 
ATOM     18  C   UNL     1      -6.563   2.035  25.148  0.00  0.00    +0.004 A 
ATOM     19  C   UNL     1      -6.677   3.365  25.572  0.00  0.00    +0.002 A 
ENDBRANCH   6  10
BRANCH  11  12
ATOM     12  C   UNL     1       0.576  -1.402  24.497  0.00  0.00    +0.124 C 
BRANCH  12  15
ATOM     15  C   UNL     1      -0.695  -1.805  25.213  0.00  0.00    +0.168 C 
BRANCH  15   3
ATOM      3  O   UNL     1      -1.687  -2.160  24.259  0.00  0.00    -0.382 OA
ATOM     20  C   UNL     1      -2.959  -1.631  24.608  0.00  0.00    +0.194 C 
ENDBRANCH  15   3
ENDBRANCH  12  15
ENDBRANCH  11  12
TORSDOF 4
ENDMDL
MODEL 5
REMARK VINA RESULT:      -3.0     15.375     17.255
REMARK  Name = 45783963
REMARK  5 active torsions:
REMARK  status: ('A' for Active; 'I' for Inactive)
REMARK    1  A    between atoms: O_3  and  C_15
REMARK    2  A    between atoms: O_3  and  C_20
REMARK    3  A    between atoms: C_6  and  C_10
REMARK    4  A    between atoms: C_11  and  C_12
REMARK    5  A    between atoms: C_12  and  C_15
REMARK                            x       y       z     vdW  Elec       q    Type
REMARK                         _______ _______ _______ _____ _____    ______ ____
ROOT
ATOM      2  O   UNL     1      -1.952 -10.777  11.333  0.00  0.00    -0.276 OA
ATOM      4  N   UNL     1      -3.887  -9.622  10.820  0.00  0.00    -0.301 N 
ATOM      6  C   UNL     1      -6.191 -10.204  10.872  0.00  0.00    +0.094 C 
ATOM      7  C   UNL     1      -6.010  -8.893  10.090  0.00  0.00    +0.033 C 
ATOM      8  C   UNL     1      -4.770 -10.781  10.859  0.00  0.00    +0.120 C 
ATOM      9  C   UNL     1      -4.626  -8.406  10.503  0.00  0.00    +0.108 C 
ATOM     11  C   UNL     1      -2.530  -9.721  11.069  0.00  0.00    +0.218 C 
ENDROOT
BRANCH   6  10
ATOM      1  O   UNL     1      -5.999 -10.165  13.308  0.00  0.00    -0.439 OA
ATOM      5  N   UNL     1      -8.039  -9.574  12.518  0.00  0.00    -0.213 NA
ATOM     10  C   UNL     1      -6.813  -9.959  12.236  0.00  0.00    +0.201 A 
ATOM     13  C   UNL     1      -6.797  -9.877  14.378  0.00  0.00    +0.155 A 
ATOM     14  C   UNL     1      -8.045  -9.516  13.891  0.00  0.00    +0.110 A 
ATOM     16  C   UNL     1      -6.457  -9.926  15.724  0.00  0.00    +0.048 A 
ATOM     17  C   UNL     1      -9.054  -9.171  14.800  0.00  0.00    +0.031 A 
ATOM     18  C   UNL     1      -7.475  -9.578  16.619  0.00  0.00    +0.004 A 
ATOM     19  C   UNL     1      -8.748  -9.208  16.168  0.00  0.00    +0.002 A 
ENDBRANCH   6  10
BRANCH  11  12
ATOM     12  C   UNL     1      -1.760  -8.427  10.995  0.00  0.00    +0.124 C 
BRANCH  12  15
ATOM     15  C   UNL     1      -0.294  -8.696  11.258  0.00  0.00    +0.168 C 
BRANCH  15   3
ATOM      3  O   UNL     1       0.108  -8.024  12.444  0.00  0.00    -0.382 OA
ATOM     20  C   UNL     1       1.269  -7.234  12.229  0.00  0.00    +0.194 C 
ENDBRANCH  15   3
ENDBRANCH  12  15
ENDBRANCH  11  12
TORSDOF 4
ENDMDL
MODEL 6
REMARK VINA RESULT:      -2.2     15.295     17.351
REMARK  Name = 45783963
REMARK  5 active torsions:
REMARK  status: ('A' for Active; 'I' for Inactive)
REMARK    1  A    between atoms: O_3  and  C_15
REMARK    2  A    between atoms: O_3  and  C_20
REMARK    3  A    between atoms: C_6  and  C_10
REMARK    4  A    between atoms: C_11  and  C_12
REMARK    5  A    between atoms: C_12  and  C_15
REMARK                            x       y       z     vdW  Elec       q    Type
REMARK                         _______ _______ _______ _____ _____    ______ ____
ROOT
ATOM      2  O   UNL     1      -3.522 -10.781  11.310  0.00  0.00    -0.276 OA
ATOM      4  N   UNL     1      -5.517  -9.643  11.061  0.00  0.00    -0.301 N 
ATOM      6  C   UNL     1      -7.774 -10.183  11.578  0.00  0.00    +0.094 C 
ATOM      7  C   UNL     1      -7.738  -8.944  10.668  0.00  0.00    +0.033 C 
ATOM      8  C   UNL     1      -6.379 -10.781  11.357  0.00  0.00    +0.120 C 
ATOM      9  C   UNL     1      -6.302  -8.446  10.781  0.00  0.00    +0.108 C 
ATOM     11  C   UNL     1      -4.138  -9.742  11.068  0.00  0.00    +0.218 C 
ENDROOT
BRANCH   6  10
ATOM      1  O   UNL     1      -9.336  -9.190  13.174  0.00  0.00    -0.439 OA
ATOM      5  N   UNL     1      -7.446 -10.025  14.105  0.00  0.00    -0.213 NA
ATOM     10  C   UNL     1      -8.138  -9.817  13.006  0.00  0.00    +0.201 A 
ATOM     13  C   UNL     1      -9.404  -8.983  14.522  0.00  0.00    +0.155 A 
ATOM     14  C   UNL     1      -8.246  -9.496  15.088  0.00  0.00    +0.110 A 
ATOM     16  C   UNL     1     -10.430  -8.375  15.233  0.00  0.00    +0.048 A 
ATOM     17  C   UNL     1      -8.073  -9.406  16.476  0.00  0.00    +0.031 A 
ATOM     18  C   UNL     1     -10.242  -8.293  16.618  0.00  0.00    +0.004 A 
ATOM     19  C   UNL     1      -9.088  -8.797  17.229  0.00  0.00    +0.002 A 
ENDBRANCH   6  10
BRANCH  11  12
ATOM     12  C   UNL     1      -3.393  -8.471  10.746  0.00  0.00    +0.124 C 
BRANCH  12  15
ATOM     15  C   UNL     1      -1.973  -8.805  10.344  0.00  0.00    +0.168 C 
BRANCH  15   3
ATOM      3  O   UNL     1      -1.094  -8.524  11.425  0.00  0.00    -0.382 OA
ATOM     20  C   UNL     1       0.267  -8.598  11.023  0.00  0.00    +0.194 C 
ENDBRANCH  15   3
ENDBRANCH  12  15
ENDBRANCH  11  12
TORSDOF 4
ENDMDL
MODEL 7
REMARK VINA RESULT:      -2.2      1.989      4.368
REMARK  Name = 45783963
REMARK  5 active torsions:
REMARK  status: ('A' for Active; 'I' for Inactive)
REMARK    1  A    between atoms: O_3  and  C_15
REMARK    2  A    between atoms: O_3  and  C_20
REMARK    3  A    between atoms: C_6  and  C_10
REMARK    4  A    between atoms: C_11  and  C_12
REMARK    5  A    between atoms: C_12  and  C_15
REMARK                            x       y       z     vdW  Elec       q    Type
REMARK                         _______ _______ _______ _____ _____    ______ ____
ROOT
ATOM      2  O   UNL     1      -6.110   1.586  23.853  0.00  0.00    -0.276 OA
ATOM      4  N   UNL     1      -4.661   0.292  25.103  0.00  0.00    -0.301 N 
ATOM      6  C   UNL     1      -3.126  -1.435  24.544  0.00  0.00    +0.094 C 
ATOM      7  C   UNL     1      -3.337  -1.409  26.066  0.00  0.00    +0.033 C 
ATOM      8  C   UNL     1      -4.346  -0.654  24.040  0.00  0.00    +0.120 C 
ATOM      9  C   UNL     1      -3.945  -0.036  26.331  0.00  0.00    +0.108 C 
ATOM     11  C   UNL     1      -5.528   1.353  24.913  0.00  0.00    +0.218 C 
ENDROOT
BRANCH   6  10
ATOM      1  O   UNL     1      -1.532   0.417  24.480  0.00  0.00    -0.439 OA
ATOM      5  N   UNL     1      -0.772  -1.508  23.556  0.00  0.00    -0.213 NA
ATOM     10  C   UNL     1      -1.763  -0.887  24.159  0.00  0.00    +0.201 A 
ATOM     13  C   UNL     1      -0.262   0.639  24.031  0.00  0.00    +0.155 A 
ATOM     14  C   UNL     1       0.200  -0.541  23.466  0.00  0.00    +0.110 A 
ATOM     16  C   UNL     1       0.468   1.818  24.107  0.00  0.00    +0.048 A 
ATOM     17  C   UNL     1       1.493  -0.574  22.926  0.00  0.00    +0.031 A 
ATOM     18  C   UNL     1       1.757   1.769  23.565  0.00  0.00    +0.004 A 
ATOM     19  C   UNL     1       2.261   0.598  22.985  0.00  0.00    +0.002 A 
ENDBRANCH   6  10
BRANCH  11  12
ATOM     12  C   UNL     1      -5.741   2.241  26.112  0.00  0.00    +0.124 C 
BRANCH  12  15
ATOM     15  C   UNL     1      -5.226   3.632  25.810  0.00  0.00    +0.168 C 
BRANCH  15   3
ATOM      3  O   UNL     1      -3.834   3.694  26.091  0.00  0.00    -0.382 OA
ATOM     20  C   UNL     1      -3.071   3.881  24.906  0.00  0.00    +0.194 C 
ENDBRANCH  15   3
ENDBRANCH  12  15
ENDBRANCH  11  12
TORSDOF 4
ENDMDL
MODEL 8
REMARK VINA RESULT:      -2.1      3.186      4.979
REMARK  Name = 45783963
REMARK  5 active torsions:
REMARK  status: ('A' for Active; 'I' for Inactive)
REMARK    1  A    between atoms: O_3  and  C_15
REMARK    2  A    between atoms: O_3  and  C_20
REMARK    3  A    between atoms: C_6  and  C_10
REMARK    4  A    between atoms: C_11  and  C_12
REMARK    5  A    between atoms: C_12  and  C_15
REMARK                            x       y       z     vdW  Elec       q    Type
REMARK                         _______ _______ _______ _____ _____    ______ ____
ROOT
ATOM      2  O   UNL     1      -3.052   2.625  22.844  0.00  0.00    -0.276 OA
ATOM      4  N   UNL     1      -1.943   1.175  24.261  0.00  0.00    -0.301 N 
ATOM      6  C   UNL     1      -0.639  -0.779  23.894  0.00  0.00    +0.094 C 
ATOM      7  C   UNL     1      -0.991  -0.669  25.387  0.00  0.00    +0.033 C 
ATOM      8  C   UNL     1      -1.673   0.156  23.254  0.00  0.00    +0.120 C 
ATOM      9  C   UNL     1      -1.407   0.787  25.561  0.00  0.00    +0.108 C 
ATOM     11  C   UNL     1      -2.617   2.345  23.963  0.00  0.00    +0.218 C 
ENDROOT
BRANCH   6  10
ATOM      1  O   UNL     1       1.722  -1.395  24.039  0.00  0.00    -0.439 OA
ATOM      5  N   UNL     1       1.335   0.624  23.083  0.00  0.00    -0.213 NA
ATOM     10  C   UNL     1       0.822  -0.453  23.640  0.00  0.00    +0.201 A 
ATOM     13  C   UNL     1       2.927  -0.854  23.696  0.00  0.00    +0.155 A 
ATOM     14  C   UNL     1       2.687   0.381  23.112  0.00  0.00    +0.110 A 
ATOM     16  C   UNL     1       4.187  -1.409  23.882  0.00  0.00    +0.048 A 
ATOM     17  C   UNL     1       3.775   1.145  22.668  0.00  0.00    +0.031 A 
ATOM     18  C   UNL     1       5.263  -0.634  23.434  0.00  0.00    +0.004 A 
ATOM     19  C   UNL     1       5.063   0.618  22.839  0.00  0.00    +0.002 A 
ENDBRANCH   6  10
BRANCH  11  12
ATOM     12  C   UNL     1      -2.810   3.297  25.116  0.00  0.00    +0.124 C 
BRANCH  12  15
ATOM     15  C   UNL     1      -4.270   3.323  25.512  0.00  0.00    +0.168 C 
BRANCH  15   3
ATOM      3  O   UNL     1      -4.799   2.004  25.467  0.00  0.00    -0.382 OA
ATOM     20  C   UNL     1      -6.177   2.007  25.121  0.00  0.00    +0.194 C 
ENDBRANCH  15   3
ENDBRANCH  12  15
ENDBRANCH  11  12
TORSDOF 4
ENDMDL
MODEL 9
REMARK VINA RESULT:      -1.9      2.157      3.779
REMARK  Name = 45783963
REMARK  5 active torsions:
REMARK  status: ('A' for Active; 'I' for Inactive)
REMARK    1  A    between atoms: O_3  and  C_15
REMARK    2  A    between atoms: O_3  and  C_20
REMARK    3  A    between atoms: C_6  and  C_10
REMARK    4  A    between atoms: C_11  and  C_12
REMARK    5  A    between atoms: C_12  and  C_15
REMARK                            x       y       z     vdW  Elec       q    Type
REMARK                         _______ _______ _______ _____ _____    ______ ____
ROOT
ATOM      2  O   UNL     1      -5.385   2.718  27.315  0.00  0.00    -0.276 OA
ATOM      4  N   UNL     1      -4.140   3.653  25.607  0.00  0.00    -0.301 N 
ATOM      6  C   UNL     1      -1.842   4.223  25.392  0.00  0.00    +0.094 C 
ATOM      7  C   UNL     1      -2.640   4.866  24.246  0.00  0.00    +0.033 C 
ATOM      8  C   UNL     1      -2.946   3.899  26.407  0.00  0.00    +0.120 C 
ATOM      9  C   UNL     1      -3.951   4.088  24.228  0.00  0.00    +0.108 C 
ATOM     11  C   UNL     1      -5.275   3.069  26.139  0.00  0.00    +0.218 C 
ENDROOT
BRANCH   6  10
ATOM      1  O   UNL     1      -1.509   1.814  25.154  0.00  0.00    -0.439 OA
ATOM      5  N   UNL     1       0.145   3.083  24.264  0.00  0.00    -0.213 NA
ATOM     10  C   UNL     1      -1.006   3.055  24.902  0.00  0.00    +0.201 A 
ATOM     13  C   UNL     1      -0.576   0.974  24.617  0.00  0.00    +0.155 A 
ATOM     14  C   UNL     1       0.434   1.754  24.074  0.00  0.00    +0.110 A 
ATOM     16  C   UNL     1      -0.600  -0.415  24.598  0.00  0.00    +0.048 A 
ATOM     17  C   UNL     1       1.521   1.121  23.456  0.00  0.00    +0.031 A 
ATOM     18  C   UNL     1       0.492  -1.032  23.978  0.00  0.00    +0.004 A 
ATOM     19  C   UNL     1       1.533  -0.281  23.417  0.00  0.00    +0.002 A 
ENDBRANCH   6  10
BRANCH  11  12
ATOM     12  C   UNL     1      -6.421   2.879  25.177  0.00  0.00    +0.124 C 
BRANCH  12  15
ATOM     15  C   UNL     1      -6.381   1.474  24.614  0.00  0.00    +0.168 C 
BRANCH  15   3
ATOM      3  O   UNL     1      -5.319   0.749  25.220  0.00  0.00    -0.382 OA
ATOM     20  C   UNL     1      -4.429   0.217  24.248  0.00  0.00    +0.194 C 
ENDBRANCH  15   3
ENDBRANCH  12  15
ENDBRANCH  11  12
TORSDOF 4
ENDMDL
MODEL 10
REMARK VINA RESULT:      -1.6     15.916     17.825
REMARK  Name = 45783963
REMARK  5 active torsions:
REMARK  status: ('A' for Active; 'I' for Inactive)
REMARK    1  A    between atoms: O_3  and  C_15
REMARK    2  A    between atoms: O_3  and  C_20
REMARK    3  A    between atoms: C_6  and  C_10
REMARK    4  A    between atoms: C_11  and  C_12
REMARK    5  A    between atoms: C_12  and  C_15
REMARK                            x       y       z     vdW  Elec       q    Type
REMARK                         _______ _______ _______ _____ _____    ______ ____
ROOT
ATOM      2  O   UNL     1      -1.254 -10.542  11.863  0.00  0.00    -0.276 OA
ATOM      4  N   UNL     1      -2.939  -9.556  10.628  0.00  0.00    -0.301 N 
ATOM      6  C   UNL     1      -5.060 -10.317   9.868  0.00  0.00    +0.094 C 
ATOM      7  C   UNL     1      -4.692  -9.012   9.142  0.00  0.00    +0.033 C 
ATOM      8  C   UNL     1      -3.697 -10.780  10.400  0.00  0.00    +0.120 C 
ATOM      9  C   UNL     1      -3.590  -8.408  10.005  0.00  0.00    +0.108 C 
ATOM     11  C   UNL     1      -1.764  -9.541  11.357  0.00  0.00    +0.218 C 
ENDROOT
BRANCH   6  10
ATOM      1  O   UNL     1      -7.431 -10.254  10.459  0.00  0.00    -0.439 OA
ATOM      5  N   UNL     1      -6.024  -9.762  12.167  0.00  0.00    -0.213 NA
ATOM     10  C   UNL     1      -6.151 -10.093  10.900  0.00  0.00    +0.201 A 
ATOM     13  C   UNL     1      -8.187  -9.998  11.566  0.00  0.00    +0.155 A 
ATOM     14  C   UNL     1      -7.323  -9.697  12.609  0.00  0.00    +0.110 A 
ATOM     16  C   UNL     1      -9.572 -10.025  11.669  0.00  0.00    +0.048 A 
ATOM     17  C   UNL     1      -7.859  -9.394  13.868  0.00  0.00    +0.031 A 
ATOM     18  C   UNL     1     -10.091  -9.720  12.932  0.00  0.00    +0.004 A 
ATOM     19  C   UNL     1      -9.255  -9.411  14.011  0.00  0.00    +0.002 A 
ENDBRANCH   6  10
BRANCH  11  12
ATOM     12  C   UNL     1      -1.106  -8.193  11.504  0.00  0.00    +0.124 C 
BRANCH  12  15
ATOM     15  C   UNL     1      -0.154  -8.220  12.680  0.00  0.00    +0.168 C 
BRANCH  15   3
ATOM      3  O   UNL     1       0.563  -6.994  12.740  0.00  0.00    -0.382 OA
ATOM     20  C   UNL     1       1.800  -7.079  12.045  0.00  0.00    +0.194 C 
ENDBRANCH  15   3
ENDBRANCH  12  15
ENDBRANCH  11  12
TORSDOF 4
ENDMDL
