MODEL 1
REMARK VINA RESULT:       3.3      0.000      0.000
REMARK  Name = 11884511
REMARK  7 active torsions:
REMARK  status: ('A' for Active; 'I' for Inactive)
REMARK    1  A    between atoms: O_6  and  C_29
REMARK    2  A    between atoms: N_9  and  C_17
REMARK    3  A    between atoms: N_10  and  C_20
REMARK    4  A    between atoms: C_17  and  C_21
REMARK    5  A    between atoms: C_18  and  C_19
REMARK    6  A    between atoms: C_19  and  C_22
REMARK    7  A    between atoms: C_22  and  C_29
REMARK                            x       y       z     vdW  Elec       q    Type
REMARK                         _______ _______ _______ _____ _____    ______ ____
ROOT
ATOM      3  O   UNL     1      -0.089   2.914  23.521  0.00  0.00    -0.273 OA
ATOM      4  O   UNL     1       0.228  -1.547  24.936  0.00  0.00    -0.252 OA
ATOM      5  O   UNL     1      -1.320   4.977  25.500  0.00  0.00    -0.276 OA
ATOM      8  N   UNL     1      -2.494   3.138  24.729  0.00  0.00    -0.288 N 
ATOM      9  N   UNL     1      -1.684  -0.347  25.373  0.00  0.00    -0.275 N 
ATOM     10  N   UNL     1       0.121   0.664  24.170  0.00  0.00    -0.192 N 
ATOM     11  C   UNL     1      -2.438   0.885  25.314  0.00  0.00    +0.109 C 
ATOM     12  C   UNL     1      -1.568   2.121  25.231  0.00  0.00    +0.183 C 
ATOM     13  C   UNL     1      -3.352   1.023  24.095  0.00  0.00    +0.044 C 
ATOM     14  C   UNL     1      -3.652   2.519  24.085  0.00  0.00    +0.110 C 
ATOM     15  C   UNL     1      -0.448   1.960  24.215  0.00  0.00    +0.250 C 
ATOM     16  C   UNL     1      -0.406  -0.492  24.820  0.00  0.00    +0.316 C 
ATOM     18  C   UNL     1      -2.312   4.493  24.952  0.00  0.00    +0.217 C 
ENDROOT
BRANCH  10  20
ATOM      1 CL   UNL     1       5.244   1.110  23.891  0.00  0.00    -0.081 Cl
ATOM      2  F   UNL     1       4.769   0.027  21.174  0.00  0.00    -0.204 F 
ATOM     20  C   UNL     1       1.334   0.497  23.393  0.00  0.00    +0.047 A 
ATOM     23  C   UNL     1       2.557   0.843  23.953  0.00  0.00    +0.047 A 
ATOM     24  C   UNL     1       1.256  -0.002  22.101  0.00  0.00    +0.027 A 
ATOM     27  C   UNL     1       3.724   0.684  23.206  0.00  0.00    +0.078 A 
ATOM     28  C   UNL     1       2.422  -0.159  21.353  0.00  0.00    +0.041 A 
ATOM     32  C   UNL     1       3.657   0.184  21.906  0.00  0.00    +0.142 A 
ENDBRANCH  10  20
BRANCH   9  17
ATOM     17  C   UNL     1      -2.346  -1.481  26.008  0.00  0.00    +0.144 C 
BRANCH  17  21
ATOM     21  C   UNL     1      -3.175  -2.209  24.994  0.00  0.00    -0.030 A 
ATOM     25  C   UNL     1      -2.818  -3.496  24.606  0.00  0.00    +0.005 A 
ATOM     26  C   UNL     1      -4.298  -1.592  24.448  0.00  0.00    +0.005 A 
ATOM     30  C   UNL     1      -3.591  -4.175  23.662  0.00  0.00    +0.000 A 
ATOM     31  C   UNL     1      -5.069  -2.270  23.505  0.00  0.00    +0.000 A 
ATOM     33  C   UNL     1      -4.716  -3.561  23.111  0.00  0.00    +0.000 A 
ENDBRANCH  17  21
ENDBRANCH   9  17
BRANCH  18  19
ATOM     19  C   UNL     1      -3.427   5.384  24.466  0.00  0.00    +0.107 C 
BRANCH  19  22
ATOM     22  C   UNL     1      -4.689   4.568  24.269  0.00  0.00    +0.129 C 
BRANCH  22  29
ATOM      7  O   UNL     1      -5.159   3.554  26.412  0.00  0.00    -0.251 OA
ATOM     29  C   UNL     1      -5.436   4.397  25.569  0.00  0.00    +0.305 C 
BRANCH  29   6
ATOM      6  O   UNL     1      -6.469   5.267  25.696  0.00  0.00    -0.481 OA
ATOM     34  H   UNL     1      -7.312   4.808  25.899  0.00  0.00    +0.295 HD
ENDBRANCH  29   6
ENDBRANCH  22  29
ENDBRANCH  19  22
ENDBRANCH  18  19
TORSDOF 7
ENDMDL
MODEL 2
REMARK VINA RESULT:       3.4      2.221      5.140
REMARK  Name = 11884511
REMARK  7 active torsions:
REMARK  status: ('A' for Active; 'I' for Inactive)
REMARK    1  A    between atoms: O_6  and  C_29
REMARK    2  A    between atoms: N_9  and  C_17
REMARK    3  A    between atoms: N_10  and  C_20
REMARK    4  A    between atoms: C_17  and  C_21
REMARK    5  A    between atoms: C_18  and  C_19
REMARK    6  A    between atoms: C_19  and  C_22
REMARK    7  A    between atoms: C_22  and  C_29
REMARK                            x       y       z     vdW  Elec       q    Type
REMARK                         _______ _______ _______ _____ _____    ______ ____
ROOT
ATOM      3  O   UNL     1       0.992  -1.634  24.035  0.00  0.00    -0.273 OA
ATOM      4  O   UNL     1       1.624   2.962  23.337  0.00  0.00    -0.252 OA
ATOM      5  O   UNL     1      -1.745  -2.861  23.206  0.00  0.00    -0.276 OA
ATOM      8  N   UNL     1      -1.562  -1.180  24.785  0.00  0.00    -0.288 N 
ATOM      9  N   UNL     1      -0.372   2.203  24.187  0.00  0.00    -0.275 N 
ATOM     10  N   UNL     1       1.388   0.659  23.696  0.00  0.00    -0.192 N 
ATOM     11  C   UNL     1      -1.235   1.118  24.597  0.00  0.00    +0.109 C 
ATOM     12  C   UNL     1      -0.919  -0.195  23.912  0.00  0.00    +0.183 C 
ATOM     13  C   UNL     1      -1.159   0.760  26.082  0.00  0.00    +0.044 C 
ATOM     14  C   UNL     1      -1.804  -0.622  26.116  0.00  0.00    +0.110 C 
ATOM     15  C   UNL     1       0.574  -0.482  23.896  0.00  0.00    +0.250 C 
ATOM     16  C   UNL     1       0.936   2.012  23.728  0.00  0.00    +0.316 C 
ATOM     18  C   UNL     1      -1.968  -2.426  24.337  0.00  0.00    +0.217 C 
ENDROOT
BRANCH  10  20
ATOM      1 CL   UNL     1       5.465  -2.464  24.082  0.00  0.00    -0.081 Cl
ATOM      2  F   UNL     1       6.804  -0.192  22.729  0.00  0.00    -0.204 F 
ATOM     20  C   UNL     1       2.798   0.433  23.444  0.00  0.00    +0.047 A 
ATOM     23  C   UNL     1       3.379  -0.765  23.838  0.00  0.00    +0.047 A 
ATOM     24  C   UNL     1       3.547   1.417  22.816  0.00  0.00    +0.027 A 
ATOM     27  C   UNL     1       4.736  -0.982  23.597  0.00  0.00    +0.078 A 
ATOM     28  C   UNL     1       4.904   1.201  22.576  0.00  0.00    +0.041 A 
ATOM     32  C   UNL     1       5.498   0.000  22.967  0.00  0.00    +0.142 A 
ENDBRANCH  10  20
BRANCH   9  17
ATOM     17  C   UNL     1      -0.918   3.549  24.320  0.00  0.00    +0.144 C 
BRANCH  17  21
ATOM     21  C   UNL     1      -2.364   3.467  24.707  0.00  0.00    -0.030 A 
ATOM     25  C   UNL     1      -2.787   4.016  25.914  0.00  0.00    +0.005 A 
ATOM     26  C   UNL     1      -3.274   2.845  23.857  0.00  0.00    +0.005 A 
ATOM     30  C   UNL     1      -4.133   3.941  26.275  0.00  0.00    +0.000 A 
ATOM     31  C   UNL     1      -4.618   2.769  24.219  0.00  0.00    +0.000 A 
ATOM     33  C   UNL     1      -5.048   3.317  25.427  0.00  0.00    +0.000 A 
ENDBRANCH  17  21
ENDBRANCH   9  17
BRANCH  18  19
ATOM     19  C   UNL     1      -2.719  -3.262  25.342  0.00  0.00    +0.107 C 
BRANCH  19  22
ATOM     22  C   UNL     1      -4.209  -3.167  25.079  0.00  0.00    +0.129 C 
BRANCH  22  29
ATOM      7  O   UNL     1      -4.688  -0.933  24.291  0.00  0.00    -0.251 OA
ATOM     29  C   UNL     1      -4.514  -2.118  24.038  0.00  0.00    +0.305 C 
BRANCH  29   6
ATOM      6  O   UNL     1      -4.600  -2.634  22.787  0.00  0.00    -0.481 OA
ATOM     34  H   UNL     1      -4.046  -2.138  22.147  0.00  0.00    +0.295 HD
ENDBRANCH  29   6
ENDBRANCH  22  29
ENDBRANCH  19  22
ENDBRANCH  18  19
TORSDOF 7
ENDMDL
MODEL 3
REMARK VINA RESULT:       4.5      3.360      6.768
REMARK  Name = 11884511
REMARK  7 active torsions:
REMARK  status: ('A' for Active; 'I' for Inactive)
REMARK    1  A    between atoms: O_6  and  C_29
REMARK    2  A    between atoms: N_9  and  C_17
REMARK    3  A    between atoms: N_10  and  C_20
REMARK    4  A    between atoms: C_17  and  C_21
REMARK    5  A    between atoms: C_18  and  C_19
REMARK    6  A    between atoms: C_19  and  C_22
REMARK    7  A    between atoms: C_22  and  C_29
REMARK                            x       y       z     vdW  Elec       q    Type
REMARK                         _______ _______ _______ _____ _____    ______ ____
ROOT
ATOM      3  O   UNL     1      -1.976   0.797  25.313  0.00  0.00    -0.273 OA
ATOM      4  O   UNL     1       1.775   2.729  23.262  0.00  0.00    -0.252 OA
ATOM      5  O   UNL     1      -1.596  -1.943  26.738  0.00  0.00    -0.276 OA
ATOM      8  N   UNL     1      -1.186  -1.647  24.480  0.00  0.00    -0.288 N 
ATOM      9  N   UNL     1       1.383   0.476  23.028  0.00  0.00    -0.275 N 
ATOM     10  N   UNL     1      -0.136   1.836  24.281  0.00  0.00    -0.192 N 
ATOM     11  C   UNL     1       0.600  -0.702  23.322  0.00  0.00    +0.109 C 
ATOM     12  C   UNL     1      -0.163  -0.610  24.627  0.00  0.00    +0.183 C 
ATOM     13  C   UNL     1      -0.496  -1.020  22.303  0.00  0.00    +0.044 C 
ATOM     14  C   UNL     1      -1.381  -1.995  23.072  0.00  0.00    +0.110 C 
ATOM     15  C   UNL     1      -0.867   0.729  24.779  0.00  0.00    +0.250 C 
ATOM     16  C   UNL     1       1.051   1.754  23.493  0.00  0.00    +0.316 C 
ATOM     18  C   UNL     1      -1.787  -2.266  25.564  0.00  0.00    +0.217 C 
ENDROOT
BRANCH  10  20
ATOM      1 CL   UNL     1      -3.608   4.738  26.740  0.00  0.00    -0.081 Cl
ATOM      2  F   UNL     1      -2.061   6.923  25.466  0.00  0.00    -0.204 F 
ATOM     20  C   UNL     1      -0.639   3.159  24.594  0.00  0.00    +0.047 A 
ATOM     23  C   UNL     1      -1.748   3.291  25.419  0.00  0.00    +0.047 A 
ATOM     24  C   UNL     1      -0.007   4.274  24.062  0.00  0.00    +0.027 A 
ATOM     27  C   UNL     1      -2.233   4.564  25.718  0.00  0.00    +0.078 A 
ATOM     28  C   UNL     1      -0.493   5.547  24.360  0.00  0.00    +0.041 A 
ATOM     32  C   UNL     1      -1.606   5.692  25.189  0.00  0.00    +0.142 A 
ENDBRANCH  10  20
BRANCH   9  17
ATOM     17  C   UNL     1       2.541   0.284  22.162  0.00  0.00    +0.144 C 
BRANCH  17  21
ATOM     21  C   UNL     1       3.737  -0.067  22.994  0.00  0.00    -0.030 A 
ATOM     25  C   UNL     1       3.877  -1.359  23.490  0.00  0.00    +0.005 A 
ATOM     26  C   UNL     1       4.699   0.902  23.265  0.00  0.00    +0.005 A 
ATOM     30  C   UNL     1       4.991  -1.686  24.265  0.00  0.00    +0.000 A 
ATOM     31  C   UNL     1       5.812   0.575  24.039  0.00  0.00    +0.000 A 
ATOM     33  C   UNL     1       5.958  -0.719  24.540  0.00  0.00    +0.000 A 
ENDBRANCH  17  21
ENDBRANCH   9  17
BRANCH  18  19
ATOM     19  C   UNL     1      -2.730  -3.393  25.225  0.00  0.00    +0.107 C 
BRANCH  19  22
ATOM     22  C   UNL     1      -3.873  -2.869  24.378  0.00  0.00    +0.129 C 
BRANCH  22  29
ATOM      7  O   UNL     1      -4.430  -0.580  23.839  0.00  0.00    -0.251 OA
ATOM     29  C   UNL     1      -4.163  -1.421  24.688  0.00  0.00    +0.305 C 
BRANCH  29   6
ATOM      6  O   UNL     1      -4.073  -1.142  26.012  0.00  0.00    -0.481 OA
ATOM     34  H   UNL     1      -3.170  -1.300  26.359  0.00  0.00    +0.295 HD
ENDBRANCH  29   6
ENDBRANCH  22  29
ENDBRANCH  19  22
ENDBRANCH  18  19
TORSDOF 7
ENDMDL
MODEL 4
REMARK VINA RESULT:       5.6      3.114      5.636
REMARK  Name = 11884511
REMARK  7 active torsions:
REMARK  status: ('A' for Active; 'I' for Inactive)
REMARK    1  A    between atoms: O_6  and  C_29
REMARK    2  A    between atoms: N_9  and  C_17
REMARK    3  A    between atoms: N_10  and  C_20
REMARK    4  A    between atoms: C_17  and  C_21
REMARK    5  A    between atoms: C_18  and  C_19
REMARK    6  A    between atoms: C_19  and  C_22
REMARK    7  A    between atoms: C_22  and  C_29
REMARK                            x       y       z     vdW  Elec       q    Type
REMARK                         _______ _______ _______ _____ _____    ______ ____
ROOT
ATOM      3  O   UNL     1      -4.131   1.156  24.521  0.00  0.00    -0.273 OA
ATOM      4  O   UNL     1       0.144  -0.772  24.373  0.00  0.00    -0.252 OA
ATOM      5  O   UNL     1      -4.597   3.769  22.895  0.00  0.00    -0.276 OA
ATOM      8  N   UNL     1      -3.029   3.620  24.589  0.00  0.00    -0.288 N 
ATOM      9  N   UNL     1      -0.071   1.506  24.594  0.00  0.00    -0.275 N 
ATOM     10  N   UNL     1      -2.019   0.122  24.477  0.00  0.00    -0.192 N 
ATOM     11  C   UNL     1      -0.895   2.691  24.673  0.00  0.00    +0.109 C 
ATOM     12  C   UNL     1      -2.242   2.535  24.000  0.00  0.00    +0.183 C 
ATOM     13  C   UNL     1      -1.267   3.125  26.092  0.00  0.00    +0.044 C 
ATOM     14  C   UNL     1      -2.432   4.077  25.845  0.00  0.00    +0.110 C 
ATOM     15  C   UNL     1      -2.909   1.218  24.364  0.00  0.00    +0.250 C 
ATOM     16  C   UNL     1      -0.595   0.213  24.490  0.00  0.00    +0.316 C 
ATOM     18  C   UNL     1      -4.124   4.183  23.954  0.00  0.00    +0.217 C 
ENDROOT
BRANCH  10  20
ATOM      1 CL   UNL     1      -5.376  -3.363  22.712  0.00  0.00    -0.081 Cl
ATOM      2  F   UNL     1      -4.262  -4.951  24.954  0.00  0.00    -0.204 F 
ATOM     20  C   UNL     1      -2.605  -1.200  24.597  0.00  0.00    +0.047 A 
ATOM     23  C   UNL     1      -3.589  -1.594  23.701  0.00  0.00    +0.047 A 
ATOM     24  C   UNL     1      -2.174  -2.049  25.606  0.00  0.00    +0.027 A 
ATOM     27  C   UNL     1      -4.153  -2.865  23.817  0.00  0.00    +0.078 A 
ATOM     28  C   UNL     1      -2.739  -3.319  25.723  0.00  0.00    +0.041 A 
ATOM     32  C   UNL     1      -3.729  -3.727  24.828  0.00  0.00    +0.142 A 
ENDBRANCH  10  20
BRANCH   9  17
ATOM     17  C   UNL     1       1.370   1.714  24.679  0.00  0.00    +0.144 C 
BRANCH  17  21
ATOM     21  C   UNL     1       2.038   1.078  23.498  0.00  0.00    -0.030 A 
ATOM     25  C   UNL     1       3.399   1.273  23.287  0.00  0.00    +0.005 A 
ATOM     26  C   UNL     1       1.293   0.294  22.621  0.00  0.00    +0.005 A 
ATOM     30  C   UNL     1       4.022   0.680  22.188  0.00  0.00    +0.000 A 
ATOM     31  C   UNL     1       1.916  -0.298  21.523  0.00  0.00    +0.000 A 
ATOM     33  C   UNL     1       3.280  -0.105  21.306  0.00  0.00    +0.000 A 
ENDBRANCH  17  21
ENDBRANCH   9  17
BRANCH  18  19
ATOM     19  C   UNL     1      -4.739   5.368  24.654  0.00  0.00    +0.107 C 
BRANCH  19  22
ATOM     22  C   UNL     1      -6.025   4.950  25.340  0.00  0.00    +0.129 C 
BRANCH  22  29
ATOM      7  O   UNL     1      -5.434   3.161  26.853  0.00  0.00    -0.251 OA
ATOM     29  C   UNL     1      -5.954   3.516  25.804  0.00  0.00    +0.305 C 
BRANCH  29   6
ATOM      6  O   UNL     1      -6.510   2.653  24.918  0.00  0.00    -0.481 OA
ATOM     34  H   UNL     1      -6.299   1.720  25.134  0.00  0.00    +0.295 HD
ENDBRANCH  29   6
ENDBRANCH  22  29
ENDBRANCH  19  22
ENDBRANCH  18  19
TORSDOF 7
ENDMDL
MODEL 5
REMARK VINA RESULT:       5.9      1.468      1.730
REMARK  Name = 11884511
REMARK  7 active torsions:
REMARK  status: ('A' for Active; 'I' for Inactive)
REMARK    1  A    between atoms: O_6  and  C_29
REMARK    2  A    between atoms: N_9  and  C_17
REMARK    3  A    between atoms: N_10  and  C_20
REMARK    4  A    between atoms: C_17  and  C_21
REMARK    5  A    between atoms: C_18  and  C_19
REMARK    6  A    between atoms: C_19  and  C_22
REMARK    7  A    between atoms: C_22  and  C_29
REMARK                            x       y       z     vdW  Elec       q    Type
REMARK                         _______ _______ _______ _____ _____    ______ ____
ROOT
ATOM      3  O   UNL     1       1.129   2.532  23.769  0.00  0.00    -0.273 OA
ATOM      4  O   UNL     1       1.196  -2.103  24.488  0.00  0.00    -0.252 OA
ATOM      5  O   UNL     1      -0.618   4.267  25.673  0.00  0.00    -0.276 OA
ATOM      8  N   UNL     1      -1.508   2.594  24.346  0.00  0.00    -0.288 N 
ATOM      9  N   UNL     1      -0.795  -0.961  24.610  0.00  0.00    -0.275 N 
ATOM     10  N   UNL     1       1.228   0.204  24.082  0.00  0.00    -0.192 N 
ATOM     11  C   UNL     1      -1.542   0.275  24.558  0.00  0.00    +0.109 C 
ATOM     12  C   UNL     1      -0.713   1.496  24.898  0.00  0.00    +0.183 C 
ATOM     13  C   UNL     1      -2.122   0.622  23.186  0.00  0.00    +0.044 C 
ATOM     14  C   UNL     1      -2.449   2.104  23.338  0.00  0.00    +0.110 C 
ATOM     15  C   UNL     1       0.632   1.484  24.187  0.00  0.00    +0.250 C 
ATOM     16  C   UNL     1       0.584  -1.034  24.384  0.00  0.00    +0.316 C 
ATOM     18  C   UNL     1      -1.425   3.893  24.821  0.00  0.00    +0.217 C 
ENDROOT
BRANCH  10  20
ATOM      1 CL   UNL     1       5.747  -2.267  24.069  0.00  0.00    -0.081 Cl
ATOM      2  F   UNL     1       6.504   0.002  22.318  0.00  0.00    -0.204 F 
ATOM     20  C   UNL     1       2.602   0.146  23.623  0.00  0.00    +0.047 A 
ATOM     23  C   UNL     1       3.412  -0.909  24.021  0.00  0.00    +0.047 A 
ATOM     24  C   UNL     1       3.089   1.148  22.796  0.00  0.00    +0.027 A 
ATOM     27  C   UNL     1       4.735  -0.963  23.580  0.00  0.00    +0.078 A 
ATOM     28  C   UNL     1       4.411   1.095  22.356  0.00  0.00    +0.041 A 
ATOM     32  C   UNL     1       5.234   0.039  22.749  0.00  0.00    +0.142 A 
ENDBRANCH  10  20
BRANCH   9  17
ATOM     17  C   UNL     1      -1.566  -2.172  24.866  0.00  0.00    +0.144 C 
BRANCH  17  21
ATOM     21  C   UNL     1      -3.015  -1.912  24.590  0.00  0.00    -0.030 A 
ATOM     25  C   UNL     1      -3.716  -2.752  23.731  0.00  0.00    +0.005 A 
ATOM     26  C   UNL     1      -3.651  -0.831  25.196  0.00  0.00    +0.005 A 
ATOM     30  C   UNL     1      -5.066  -2.510  23.474  0.00  0.00    +0.000 A 
ATOM     31  C   UNL     1      -5.000  -0.590  24.938  0.00  0.00    +0.000 A 
ATOM     33  C   UNL     1      -5.708  -1.429  24.078  0.00  0.00    +0.000 A 
ENDBRANCH  17  21
ENDBRANCH   9  17
BRANCH  18  19
ATOM     19  C   UNL     1      -2.404   4.867  24.216  0.00  0.00    +0.107 C 
BRANCH  19  22
ATOM     22  C   UNL     1      -3.812   4.318  24.328  0.00  0.00    +0.129 C 
BRANCH  22  29
ATOM      7  O   UNL     1      -3.585   4.355  26.733  0.00  0.00    -0.251 OA
ATOM     29  C   UNL     1      -4.116   3.878  25.739  0.00  0.00    +0.305 C 
BRANCH  29   6
ATOM      6  O   UNL     1      -5.028   2.876  25.789  0.00  0.00    -0.481 OA
ATOM     34  H   UNL     1      -5.749   3.003  25.136  0.00  0.00    +0.295 HD
ENDBRANCH  29   6
ENDBRANCH  22  29
ENDBRANCH  19  22
ENDBRANCH  18  19
TORSDOF 7
ENDMDL
MODEL 6
REMARK VINA RESULT:       6.7      3.357      7.386
REMARK  Name = 11884511
REMARK  7 active torsions:
REMARK  status: ('A' for Active; 'I' for Inactive)
REMARK    1  A    between atoms: O_6  and  C_29
REMARK    2  A    between atoms: N_9  and  C_17
REMARK    3  A    between atoms: N_10  and  C_20
REMARK    4  A    between atoms: C_17  and  C_21
REMARK    5  A    between atoms: C_18  and  C_19
REMARK    6  A    between atoms: C_19  and  C_22
REMARK    7  A    between atoms: C_22  and  C_29
REMARK                            x       y       z     vdW  Elec       q    Type
REMARK                         _______ _______ _______ _____ _____    ______ ____
ROOT
ATOM      3  O   UNL     1       0.029  -1.025  23.155  0.00  0.00    -0.273 OA
ATOM      4  O   UNL     1      -2.937   1.230  26.006  0.00  0.00    -0.252 OA
ATOM      5  O   UNL     1       3.053  -0.992  23.893  0.00  0.00    -0.276 OA
ATOM      8  N   UNL     1       1.851   0.942  23.478  0.00  0.00    -0.288 N 
ATOM      9  N   UNL     1      -0.930   2.203  25.451  0.00  0.00    -0.275 N 
ATOM     10  N   UNL     1      -1.519   0.066  24.549  0.00  0.00    -0.192 N 
ATOM     11  C   UNL     1       0.345   2.159  24.772  0.00  0.00    +0.109 C 
ATOM     12  C   UNL     1       0.854   0.753  24.533  0.00  0.00    +0.183 C 
ATOM     13  C   UNL     1       0.350   2.770  23.369  0.00  0.00    +0.044 C 
ATOM     14  C   UNL     1       1.637   2.207  22.775  0.00  0.00    +0.110 C 
ATOM     15  C   UNL     1      -0.236  -0.161  23.994  0.00  0.00    +0.250 C 
ATOM     16  C   UNL     1      -1.879   1.178  25.368  0.00  0.00    +0.316 C 
ATOM     18  C   UNL     1       2.906   0.066  23.279  0.00  0.00    +0.217 C 
ENDROOT
BRANCH  10  20
ATOM      1 CL   UNL     1      -3.552  -4.579  25.452  0.00  0.00    -0.081 Cl
ATOM      2  F   UNL     1      -5.487  -3.665  23.400  0.00  0.00    -0.204 F 
ATOM     20  C   UNL     1      -2.552  -0.908  24.254  0.00  0.00    +0.047 A 
ATOM     23  C   UNL     1      -2.552  -2.127  24.918  0.00  0.00    +0.047 A 
ATOM     24  C   UNL     1      -3.524  -0.608  23.311  0.00  0.00    +0.027 A 
ATOM     27  C   UNL     1      -3.545  -3.064  24.633  0.00  0.00    +0.078 A 
ATOM     28  C   UNL     1      -4.516  -1.546  23.025  0.00  0.00    +0.041 A 
ATOM     32  C   UNL     1      -4.527  -2.774  23.687  0.00  0.00    +0.142 A 
ENDBRANCH  10  20
BRANCH   9  17
ATOM     17  C   UNL     1      -1.217   3.415  26.210  0.00  0.00    +0.144 C 
BRANCH  17  21
ATOM     21  C   UNL     1      -2.580   3.921  25.850  0.00  0.00    -0.030 A 
ATOM     25  C   UNL     1      -2.886   4.194  24.521  0.00  0.00    +0.005 A 
ATOM     26  C   UNL     1      -3.532   4.113  26.848  0.00  0.00    +0.005 A 
ATOM     30  C   UNL     1      -4.156   4.665  24.185  0.00  0.00    +0.000 A 
ATOM     31  C   UNL     1      -4.801   4.584  26.512  0.00  0.00    +0.000 A 
ATOM     33  C   UNL     1      -5.113   4.860  25.181  0.00  0.00    +0.000 A 
ENDBRANCH  17  21
ENDBRANCH   9  17
BRANCH  18  19
ATOM     19  C   UNL     1       3.902   0.482  22.226  0.00  0.00    +0.107 C 
BRANCH  19  22
ATOM     22  C   UNL     1       5.281  -0.031  22.591  0.00  0.00    +0.129 C 
BRANCH  22  29
ATOM      7  O   UNL     1       5.646   1.145  24.670  0.00  0.00    -0.251 OA
ATOM     29  C   UNL     1       5.530   0.082  24.074  0.00  0.00    +0.305 C 
BRANCH  29   6
ATOM      6  O   UNL     1       5.638  -1.127  24.680  0.00  0.00    -0.481 OA
ATOM     34  H   UNL     1       5.869  -1.043  25.629  0.00  0.00    +0.295 HD
ENDBRANCH  29   6
ENDBRANCH  22  29
ENDBRANCH  19  22
ENDBRANCH  18  19
TORSDOF 7
ENDMDL
MODEL 7
REMARK VINA RESULT:       6.8      3.242      6.003
REMARK  Name = 11884511
REMARK  7 active torsions:
REMARK  status: ('A' for Active; 'I' for Inactive)
REMARK    1  A    between atoms: O_6  and  C_29
REMARK    2  A    between atoms: N_9  and  C_17
REMARK    3  A    between atoms: N_10  and  C_20
REMARK    4  A    between atoms: C_17  and  C_21
REMARK    5  A    between atoms: C_18  and  C_19
REMARK    6  A    between atoms: C_19  and  C_22
REMARK    7  A    between atoms: C_22  and  C_29
REMARK                            x       y       z     vdW  Elec       q    Type
REMARK                         _______ _______ _______ _____ _____    ______ ____
ROOT
ATOM      3  O   UNL     1      -2.456   1.210  24.884  0.00  0.00    -0.273 OA
ATOM      4  O   UNL     1       0.155  -1.750  22.348  0.00  0.00    -0.252 OA
ATOM      5  O   UNL     1      -2.951   4.057  23.730  0.00  0.00    -0.276 OA
ATOM      8  N   UNL     1      -0.831   3.252  24.193  0.00  0.00    -0.288 N 
ATOM      9  N   UNL     1       0.801   0.446  22.557  0.00  0.00    -0.275 N 
ATOM     10  N   UNL     1      -1.174  -0.335  23.658  0.00  0.00    -0.192 N 
ATOM     11  C   UNL     1       0.571   1.784  23.053  0.00  0.00    +0.109 C 
ATOM     12  C   UNL     1      -0.890   2.093  23.301  0.00  0.00    +0.183 C 
ATOM     13  C   UNL     1       1.223   2.094  24.401  0.00  0.00    +0.044 C 
ATOM     14  C   UNL     1       0.476   3.348  24.842  0.00  0.00    +0.110 C 
ATOM     15  C   UNL     1      -1.591   0.964  24.041  0.00  0.00    +0.250 C 
ATOM     16  C   UNL     1      -0.049  -0.631  22.833  0.00  0.00    +0.316 C 
ATOM     18  C   UNL     1      -1.862   4.173  24.294  0.00  0.00    +0.217 C 
ENDROOT
BRANCH  10  20
ATOM      1 CL   UNL     1      -5.486  -3.138  23.386  0.00  0.00    -0.081 Cl
ATOM      2  F   UNL     1      -4.152  -4.631  25.572  0.00  0.00    -0.204 F 
ATOM     20  C   UNL     1      -1.952  -1.454  24.153  0.00  0.00    +0.047 A 
ATOM     23  C   UNL     1      -3.195  -1.722  23.595  0.00  0.00    +0.047 A 
ATOM     24  C   UNL     1      -1.445  -2.239  25.178  0.00  0.00    +0.027 A 
ATOM     27  C   UNL     1      -3.944  -2.798  24.072  0.00  0.00    +0.078 A 
ATOM     28  C   UNL     1      -2.194  -3.314  25.656  0.00  0.00    +0.041 A 
ATOM     32  C   UNL     1      -3.444  -3.594  25.102  0.00  0.00    +0.142 A 
ENDBRANCH  10  20
BRANCH   9  17
ATOM     17  C   UNL     1       2.015   0.246  21.774  0.00  0.00    +0.144 C 
BRANCH  17  21
ATOM     21  C   UNL     1       3.168  -0.014  22.696  0.00  0.00    -0.030 A 
ATOM     25  C   UNL     1       4.116   0.981  22.914  0.00  0.00    +0.005 A 
ATOM     26  C   UNL     1       3.283  -1.249  23.328  0.00  0.00    +0.005 A 
ATOM     30  C   UNL     1       5.189   0.739  23.772  0.00  0.00    +0.000 A 
ATOM     31  C   UNL     1       4.356  -1.490  24.186  0.00  0.00    +0.000 A 
ATOM     33  C   UNL     1       5.309  -0.497  24.408  0.00  0.00    +0.000 A 
ENDBRANCH  17  21
ENDBRANCH   9  17
BRANCH  18  19
ATOM     19  C   UNL     1      -1.579   5.367  25.171  0.00  0.00    +0.107 C 
BRANCH  19  22
ATOM     22  C   UNL     1      -2.762   5.628  26.082  0.00  0.00    +0.129 C 
BRANCH  22  29
ATOM      7  O   UNL     1      -2.902   3.553  27.314  0.00  0.00    -0.251 OA
ATOM     29  C   UNL     1      -3.408   4.336  26.521  0.00  0.00    +0.305 C 
BRANCH  29   6
ATOM      6  O   UNL     1      -4.605   4.121  25.921  0.00  0.00    -0.481 OA
ATOM     34  H   UNL     1      -5.173   4.920  25.939  0.00  0.00    +0.295 HD
ENDBRANCH  29   6
ENDBRANCH  22  29
ENDBRANCH  19  22
ENDBRANCH  18  19
TORSDOF 7
ENDMDL
MODEL 8
REMARK VINA RESULT:       7.2      4.170      7.607
REMARK  Name = 11884511
REMARK  7 active torsions:
REMARK  status: ('A' for Active; 'I' for Inactive)
REMARK    1  A    between atoms: O_6  and  C_29
REMARK    2  A    between atoms: N_9  and  C_17
REMARK    3  A    between atoms: N_10  and  C_20
REMARK    4  A    between atoms: C_17  and  C_21
REMARK    5  A    between atoms: C_18  and  C_19
REMARK    6  A    between atoms: C_19  and  C_22
REMARK    7  A    between atoms: C_22  and  C_29
REMARK                            x       y       z     vdW  Elec       q    Type
REMARK                         _______ _______ _______ _____ _____    ______ ____
ROOT
ATOM      3  O   UNL     1      -3.795   0.643  24.842  0.00  0.00    -0.273 OA
ATOM      4  O   UNL     1      -1.189   4.301  26.195  0.00  0.00    -0.252 OA
ATOM      5  O   UNL     1      -3.225  -2.112  26.173  0.00  0.00    -0.276 OA
ATOM      8  N   UNL     1      -1.626  -0.961  24.961  0.00  0.00    -0.288 N 
ATOM      9  N   UNL     1      -0.189   2.264  25.827  0.00  0.00    -0.275 N 
ATOM     10  N   UNL     1      -2.542   2.526  25.485  0.00  0.00    -0.192 N 
ATOM     11  C   UNL     1      -0.275   0.863  25.483  0.00  0.00    +0.109 C 
ATOM     12  C   UNL     1      -1.627   0.251  25.783  0.00  0.00    +0.183 C 
ATOM     13  C   UNL     1      -0.076   0.550  23.998  0.00  0.00    +0.044 C 
ATOM     14  C   UNL     1      -0.635  -0.865  23.888  0.00  0.00    +0.110 C 
ATOM     15  C   UNL     1      -2.769   1.138  25.313  0.00  0.00    +0.250 C 
ATOM     16  C   UNL     1      -1.296   3.120  25.844  0.00  0.00    +0.316 C 
ATOM     18  C   UNL     1      -2.400  -2.070  25.260  0.00  0.00    +0.217 C 
ENDROOT
BRANCH  10  20
ATOM      1 CL   UNL     1      -4.637   6.380  22.787  0.00  0.00    -0.081 Cl
ATOM      2  F   UNL     1      -6.870   5.935  24.685  0.00  0.00    -0.204 F 
ATOM     20  C   UNL     1      -3.668   3.414  25.272  0.00  0.00    +0.047 A 
ATOM     23  C   UNL     1      -3.613   4.355  24.253  0.00  0.00    +0.047 A 
ATOM     24  C   UNL     1      -4.783   3.314  26.092  0.00  0.00    +0.027 A 
ATOM     27  C   UNL     1      -4.696   5.210  24.049  0.00  0.00    +0.078 A 
ATOM     28  C   UNL     1      -5.865   4.170  25.889  0.00  0.00    +0.041 A 
ATOM     32  C   UNL     1      -5.821   5.118  24.867  0.00  0.00    +0.142 A 
ENDBRANCH  10  20
BRANCH   9  17
ATOM     17  C   UNL     1       1.146   2.777  26.117  0.00  0.00    +0.144 C 
BRANCH  17  21
ATOM     21  C   UNL     1       1.410   2.683  27.588  0.00  0.00    -0.030 A 
ATOM     25  C   UNL     1       2.674   2.990  28.084  0.00  0.00    +0.005 A 
ATOM     26  C   UNL     1       0.390   2.290  28.451  0.00  0.00    +0.005 A 
ATOM     30  C   UNL     1       2.921   2.902  29.454  0.00  0.00    +0.000 A 
ATOM     31  C   UNL     1       0.637   2.203  29.820  0.00  0.00    +0.000 A 
ATOM     33  C   UNL     1       1.902   2.508  30.322  0.00  0.00    +0.000 A 
ENDBRANCH  17  21
ENDBRANCH   9  17
BRANCH  18  19
ATOM     19  C   UNL     1      -2.181  -3.270  24.372  0.00  0.00    +0.107 C 
BRANCH  19  22
ATOM     22  C   UNL     1      -3.455  -3.587  23.614  0.00  0.00    +0.129 C 
BRANCH  22  29
ATOM      7  O   UNL     1      -3.891  -1.334  22.857  0.00  0.00    -0.251 OA
ATOM     29  C   UNL     1      -4.292  -2.349  23.412  0.00  0.00    +0.305 C 
BRANCH  29   6
ATOM      6  O   UNL     1      -5.538  -2.470  23.935  0.00  0.00    -0.481 OA
ATOM     34  H   UNL     1      -6.217  -2.594  23.238  0.00  0.00    +0.295 HD
ENDBRANCH  29   6
ENDBRANCH  22  29
ENDBRANCH  19  22
ENDBRANCH  18  19
TORSDOF 7
ENDMDL
MODEL 9
REMARK VINA RESULT:       7.2      3.573      5.741
REMARK  Name = 11884511
REMARK  7 active torsions:
REMARK  status: ('A' for Active; 'I' for Inactive)
REMARK    1  A    between atoms: O_6  and  C_29
REMARK    2  A    between atoms: N_9  and  C_17
REMARK    3  A    between atoms: N_10  and  C_20
REMARK    4  A    between atoms: C_17  and  C_21
REMARK    5  A    between atoms: C_18  and  C_19
REMARK    6  A    between atoms: C_19  and  C_22
REMARK    7  A    between atoms: C_22  and  C_29
REMARK                            x       y       z     vdW  Elec       q    Type
REMARK                         _______ _______ _______ _____ _____    ______ ____
ROOT
ATOM      3  O   UNL     1      -3.908   1.430  24.418  0.00  0.00    -0.273 OA
ATOM      4  O   UNL     1       0.636   0.365  24.895  0.00  0.00    -0.252 OA
ATOM      5  O   UNL     1      -4.625   4.200  23.194  0.00  0.00    -0.276 OA
ATOM      8  N   UNL     1      -3.397   3.980  25.144  0.00  0.00    -0.288 N 
ATOM      9  N   UNL     1      -0.104   2.471  25.444  0.00  0.00    -0.275 N 
ATOM     10  N   UNL     1      -1.651   0.819  24.668  0.00  0.00    -0.192 N 
ATOM     11  C   UNL     1      -1.165   3.448  25.538  0.00  0.00    +0.109 C 
ATOM     12  C   UNL     1      -2.300   3.200  24.568  0.00  0.00    +0.183 C 
ATOM     13  C   UNL     1      -1.874   3.502  26.893  0.00  0.00    +0.044 C 
ATOM     14  C   UNL     1      -3.153   4.262  26.559  0.00  0.00    +0.110 C 
ATOM     15  C   UNL     1      -2.721   1.739  24.548  0.00  0.00    +0.250 C 
ATOM     16  C   UNL     1      -0.307   1.156  25.011  0.00  0.00    +0.316 C 
ATOM     18  C   UNL     1      -4.454   4.460  24.386  0.00  0.00    +0.217 C 
ENDROOT
BRANCH  10  20
ATOM      1 CL   UNL     1      -5.153  -2.796  23.576  0.00  0.00    -0.081 Cl
ATOM      2  F   UNL     1      -2.776  -4.558  23.767  0.00  0.00    -0.204 F 
ATOM     20  C   UNL     1      -1.948  -0.580  24.431  0.00  0.00    +0.047 A 
ATOM     23  C   UNL     1      -3.252  -0.964  24.151  0.00  0.00    +0.047 A 
ATOM     24  C   UNL     1      -0.925  -1.516  24.490  0.00  0.00    +0.027 A 
ATOM     27  C   UNL     1      -3.538  -2.310  23.924  0.00  0.00    +0.078 A 
ATOM     28  C   UNL     1      -1.210  -2.862  24.264  0.00  0.00    +0.041 A 
ATOM     32  C   UNL     1      -2.518  -3.259  23.981  0.00  0.00    +0.142 A 
ENDBRANCH  10  20
BRANCH   9  17
ATOM     17  C   UNL     1       1.218   2.909  25.879  0.00  0.00    +0.144 C 
BRANCH  17  21
ATOM     21  C   UNL     1       1.341   2.735  27.362  0.00  0.00    -0.030 A 
ATOM     25  C   UNL     1       2.516   3.109  28.006  0.00  0.00    +0.005 A 
ATOM     26  C   UNL     1       0.278   2.203  28.087  0.00  0.00    +0.005 A 
ATOM     30  C   UNL     1       2.631   2.948  29.387  0.00  0.00    +0.000 A 
ATOM     31  C   UNL     1       0.393   2.042  29.467  0.00  0.00    +0.000 A 
ATOM     33  C   UNL     1       1.569   2.414  30.118  0.00  0.00    +0.000 A 
ENDBRANCH  17  21
ENDBRANCH   9  17
BRANCH  18  19
ATOM     19  C   UNL     1      -5.428   5.344  25.123  0.00  0.00    +0.107 C 
BRANCH  19  22
ATOM     22  C   UNL     1      -6.649   4.541  25.526  0.00  0.00    +0.129 C 
BRANCH  22  29
ATOM      7  O   UNL     1      -5.853   2.724  26.907  0.00  0.00    -0.251 OA
ATOM     29  C   UNL     1      -6.283   3.108  25.827  0.00  0.00    +0.305 C 
BRANCH  29   6
ATOM      6  O   UNL     1      -6.460   2.289  24.761  0.00  0.00    -0.481 OA
ATOM     34  H   UNL     1      -6.590   2.792  23.929  0.00  0.00    +0.295 HD
ENDBRANCH  29   6
ENDBRANCH  22  29
ENDBRANCH  19  22
ENDBRANCH  18  19
TORSDOF 7
ENDMDL
MODEL 10
REMARK VINA RESULT:       7.3      3.335      6.595
REMARK  Name = 11884511
REMARK  7 active torsions:
REMARK  status: ('A' for Active; 'I' for Inactive)
REMARK    1  A    between atoms: O_6  and  C_29
REMARK    2  A    between atoms: N_9  and  C_17
REMARK    3  A    between atoms: N_10  and  C_20
REMARK    4  A    between atoms: C_17  and  C_21
REMARK    5  A    between atoms: C_18  and  C_19
REMARK    6  A    between atoms: C_19  and  C_22
REMARK    7  A    between atoms: C_22  and  C_29
REMARK                            x       y       z     vdW  Elec       q    Type
REMARK                         _______ _______ _______ _____ _____    ______ ____
ROOT
ATOM      3  O   UNL     1       0.547   1.955  23.693  0.00  0.00    -0.273 OA
ATOM      4  O   UNL     1      -3.646   1.022  25.579  0.00  0.00    -0.252 OA
ATOM      5  O   UNL     1       1.579   0.060  21.450  0.00  0.00    -0.276 OA
ATOM      8  N   UNL     1       1.099  -0.686  23.587  0.00  0.00    -0.288 N 
ATOM      9  N   UNL     1      -2.174  -0.695  25.170  0.00  0.00    -0.275 N 
ATOM     10  N   UNL     1      -1.556   1.561  24.670  0.00  0.00    -0.192 N 
ATOM     11  C   UNL     1      -0.908  -1.174  24.663  0.00  0.00    +0.109 C 
ATOM     12  C   UNL     1      -0.308  -0.281  23.597  0.00  0.00    +0.183 C 
ATOM     13  C   UNL     1       0.209  -1.270  25.703  0.00  0.00    +0.044 C 
ATOM     14  C   UNL     1       1.456  -1.370  24.831  0.00  0.00    +0.110 C 
ATOM     15  C   UNL     1      -0.373   1.188  23.986  0.00  0.00    +0.250 C 
ATOM     16  C   UNL     1      -2.532   0.657  25.184  0.00  0.00    +0.316 C 
ATOM     18  C   UNL     1       1.918  -0.522  22.482  0.00  0.00    +0.217 C 
ENDROOT
BRANCH  10  20
ATOM      1 CL   UNL     1      -4.896   5.369  25.604  0.00  0.00    -0.081 Cl
ATOM      2  F   UNL     1      -2.431   7.006  25.428  0.00  0.00    -0.204 F 
ATOM     20  C   UNL     1      -1.787   2.979  24.870  0.00  0.00    +0.047 A 
ATOM     23  C   UNL     1      -3.077   3.432  25.113  0.00  0.00    +0.047 A 
ATOM     24  C   UNL     1      -0.719   3.861  24.813  0.00  0.00    +0.027 A 
ATOM     27  C   UNL     1      -3.300   4.796  25.304  0.00  0.00    +0.078 A 
ATOM     28  C   UNL     1      -0.941   5.224  25.003  0.00  0.00    +0.041 A 
ATOM     32  C   UNL     1      -2.233   5.692  25.248  0.00  0.00    +0.142 A 
ENDBRANCH  10  20
BRANCH   9  17
ATOM     17  C   UNL     1      -3.070  -1.702  25.727  0.00  0.00    +0.144 C 
BRANCH  17  21
ATOM     21  C   UNL     1      -3.659  -2.519  24.617  0.00  0.00    -0.030 A 
ATOM     25  C   UNL     1      -4.733  -2.019  23.887  0.00  0.00    +0.005 A 
ATOM     26  C   UNL     1      -3.128  -3.772  24.323  0.00  0.00    +0.005 A 
ATOM     30  C   UNL     1      -5.282  -2.778  22.854  0.00  0.00    +0.000 A 
ATOM     31  C   UNL     1      -3.677  -4.531  23.290  0.00  0.00    +0.000 A 
ATOM     33  C   UNL     1      -4.753  -4.035  22.556  0.00  0.00    +0.000 A 
ENDBRANCH  17  21
ENDBRANCH   9  17
BRANCH  18  19
ATOM     19  C   UNL     1       3.302  -1.106  22.610  0.00  0.00    +0.107 C 
BRANCH  19  22
ATOM     22  C   UNL     1       4.328   0.009  22.664  0.00  0.00    +0.129 C 
BRANCH  22  29
ATOM      7  O   UNL     1       5.685   0.904  24.452  0.00  0.00    -0.251 OA
ATOM     29  C   UNL     1       5.147  -0.063  23.929  0.00  0.00    +0.305 C 
BRANCH  29   6
ATOM      6  O   UNL     1       5.245  -1.325  24.416  0.00  0.00    -0.481 OA
ATOM     34  H   UNL     1       5.355  -1.335  25.390  0.00  0.00    +0.295 HD
ENDBRANCH  29   6
ENDBRANCH  22  29
ENDBRANCH  19  22
ENDBRANCH  18  19
TORSDOF 7
ENDMDL
