MODEL 1
REMARK VINA RESULT:      11.4      0.000      0.000
REMARK  Name = 7674790
REMARK  4 active torsions:
REMARK  status: ('A' for Active; 'I' for Inactive)
REMARK    1  A    between atoms: N_5  and  C_19
REMARK    2  A    between atoms: C_13  and  C_18
REMARK    3  A    between atoms: C_19  and  C_25
REMARK    4  A    between atoms: C_19  and  C_26
REMARK                            x       y       z     vdW  Elec       q    Type
REMARK                         _______ _______ _______ _____ _____    ______ ____
ROOT
ATOM      1  O   UNL     1       0.391  -2.591  25.507  0.00  0.00    -0.268 OA
ATOM      2  O   UNL     1      -0.180   2.864  27.716  0.00  0.00    -0.253 OA
ATOM      3  N   UNL     1       0.484   2.423  25.535  0.00  0.00    -0.285 N 
ATOM      4  N   UNL     1      -0.458  -0.540  24.762  0.00  0.00    -0.311 N 
ATOM      5  N   UNL     1       1.987   2.206  27.347  0.00  0.00    -0.297 N 
ATOM      6  C   UNL     1       0.996   1.119  23.459  0.00  0.00    +0.027 C 
ATOM      7  C   UNL     1      -1.332   1.687  23.988  0.00  0.00    +0.054 C 
ATOM      8  C   UNL     1      -0.317   1.581  22.853  0.00  0.00    +0.018 C 
ATOM      9  C   UNL     1       1.504   2.110  24.524  0.00  0.00    +0.114 C 
ATOM     10  C   UNL     1       0.794  -0.282  24.038  0.00  0.00    +0.130 C 
ATOM     11  C   UNL     1      -0.843   2.741  25.000  0.00  0.00    +0.119 C 
ATOM     12  C   UNL     1      -1.553   0.342  24.687  0.00  0.00    +0.034 A 
ATOM     13  C   UNL     1      -2.740  -0.005  25.248  0.00  0.00    +0.002 A 
ATOM     14  C   UNL     1      -0.529  -1.777  25.427  0.00  0.00    +0.252 A 
ATOM     15  C   UNL     1       0.701   2.520  26.921  0.00  0.00    +0.302 C 
ATOM     16  C   UNL     1      -2.849  -1.270  25.949  0.00  0.00    +0.015 A 
ATOM     17  C   UNL     1      -1.823  -2.114  26.060  0.00  0.00    +0.071 A 
ATOM     31  H   UNL     1       2.740   2.073  26.687  0.00  0.00    +0.150 HD
ENDROOT
BRANCH  13  18
ATOM     18  C   UNL     1      -3.924   0.881  25.182  0.00  0.00    -0.016 A 
ATOM     20  C   UNL     1      -3.780   2.244  25.420  0.00  0.00    +0.017 A 
ATOM     21  C   UNL     1      -5.169   0.345  24.882  0.00  0.00    +0.009 A 
ATOM     22  C   UNL     1      -4.893   3.098  25.361  0.00  0.00    -0.017 A 
ATOM     23  C   UNL     1      -6.286   1.179  24.818  0.00  0.00    +0.009 A 
ATOM     24  C   UNL     1      -6.165   2.557  25.056  0.00  0.00    -0.018 A 
ATOM     27  C   UNL     1      -4.772   4.477  25.597  0.00  0.00    +0.008 A 
ATOM     28  C   UNL     1      -7.278   3.412  24.997  0.00  0.00    +0.008 A 
ATOM     29  C   UNL     1      -5.889   5.311  25.535  0.00  0.00    +0.001 A 
ATOM     30  C   UNL     1      -7.140   4.779  25.235  0.00  0.00    +0.001 A 
ENDBRANCH  13  18
BRANCH   5  19
ATOM     19  C   UNL     1       2.370   2.262  28.740  0.00  0.00    +0.068 C 
ATOM     25  C   UNL     1       1.141   2.157  29.633  0.00  0.00    +0.027 C 
ATOM     26  C   UNL     1       3.152   3.538  29.028  0.00  0.00    +0.027 C 
ENDBRANCH   5  19
TORSDOF 2
ENDMDL
MODEL 2
REMARK VINA RESULT:      13.4      2.502      6.937
REMARK  Name = 7674790
REMARK  4 active torsions:
REMARK  status: ('A' for Active; 'I' for Inactive)
REMARK    1  A    between atoms: N_5  and  C_19
REMARK    2  A    between atoms: C_13  and  C_18
REMARK    3  A    between atoms: C_19  and  C_25
REMARK    4  A    between atoms: C_19  and  C_26
REMARK                            x       y       z     vdW  Elec       q    Type
REMARK                         _______ _______ _______ _____ _____    ______ ____
ROOT
ATOM      1  O   UNL     1      -5.831   3.474  24.635  0.00  0.00    -0.268 OA
ATOM      2  O   UNL     1      -2.341  -1.273  25.139  0.00  0.00    -0.253 OA
ATOM      3  N   UNL     1      -2.212   0.237  23.380  0.00  0.00    -0.285 N 
ATOM      4  N   UNL     1      -3.565   2.993  24.299  0.00  0.00    -0.311 N 
ATOM      5  N   UNL     1      -3.905  -1.411  23.466  0.00  0.00    -0.297 N 
ATOM      6  C   UNL     1      -2.670   2.280  22.007  0.00  0.00    +0.027 C 
ATOM      7  C   UNL     1      -1.144   2.427  23.922  0.00  0.00    +0.054 C 
ATOM      8  C   UNL     1      -1.362   2.886  22.483  0.00  0.00    +0.018 C 
ATOM      9  C   UNL     1      -2.632   0.741  22.066  0.00  0.00    +0.114 C 
ATOM     10  C   UNL     1      -3.805   2.853  22.857  0.00  0.00    +0.130 C 
ATOM     11  C   UNL     1      -1.028   0.891  23.947  0.00  0.00    +0.119 C 
ATOM     12  C   UNL     1      -2.272   2.890  24.849  0.00  0.00    +0.034 A 
ATOM     13  C   UNL     1      -2.072   3.173  26.162  0.00  0.00    +0.002 A 
ATOM     14  C   UNL     1      -4.685   3.354  25.068  0.00  0.00    +0.252 A 
ATOM     15  C   UNL     1      -2.788  -0.844  24.071  0.00  0.00    +0.302 C 
ATOM     16  C   UNL     1      -3.205   3.542  26.989  0.00  0.00    +0.015 A 
ATOM     17  C   UNL     1      -4.444   3.620  26.504  0.00  0.00    +0.071 A 
ATOM     31  H   UNL     1      -4.175  -1.160  22.526  0.00  0.00    +0.150 HD
ENDROOT
BRANCH  13  18
ATOM     18  C   UNL     1      -0.730   3.095  26.781  0.00  0.00    -0.016 A 
ATOM     20  C   UNL     1      -0.601   2.678  28.103  0.00  0.00    +0.017 A 
ATOM     21  C   UNL     1       0.392   3.438  26.038  0.00  0.00    +0.009 A 
ATOM     22  C   UNL     1       0.665   2.598  28.705  0.00  0.00    -0.017 A 
ATOM     23  C   UNL     1       1.658   3.364  26.620  0.00  0.00    +0.009 A 
ATOM     24  C   UNL     1       1.812   2.947  27.952  0.00  0.00    -0.018 A 
ATOM     27  C   UNL     1       0.819   2.180  30.036  0.00  0.00    +0.008 A 
ATOM     28  C   UNL     1       3.078   2.867  28.554  0.00  0.00    +0.008 A 
ATOM     29  C   UNL     1       2.085   2.107  30.619  0.00  0.00    +0.001 A 
ATOM     30  C   UNL     1       3.213   2.450  29.878  0.00  0.00    +0.001 A 
ENDBRANCH  13  18
BRANCH   5  19
ATOM     19  C   UNL     1      -4.607  -2.533  24.048  0.00  0.00    +0.068 C 
ATOM     25  C   UNL     1      -3.679  -3.325  24.959  0.00  0.00    +0.027 C 
ATOM     26  C   UNL     1      -5.197  -3.419  22.958  0.00  0.00    +0.027 C 
ENDBRANCH   5  19
TORSDOF 2
ENDMDL
MODEL 3
REMARK VINA RESULT:      15.1      2.869      4.593
REMARK  Name = 7674790
REMARK  4 active torsions:
REMARK  status: ('A' for Active; 'I' for Inactive)
REMARK    1  A    between atoms: N_5  and  C_19
REMARK    2  A    between atoms: C_13  and  C_18
REMARK    3  A    between atoms: C_19  and  C_25
REMARK    4  A    between atoms: C_19  and  C_26
REMARK                            x       y       z     vdW  Elec       q    Type
REMARK                         _______ _______ _______ _____ _____    ______ ____
ROOT
ATOM      1  O   UNL     1       3.305   2.343  22.965  0.00  0.00    -0.268 OA
ATOM      2  O   UNL     1       0.450   1.260  28.029  0.00  0.00    -0.253 OA
ATOM      3  N   UNL     1      -0.305   2.755  26.421  0.00  0.00    -0.285 N 
ATOM      4  N   UNL     1       1.080   2.032  23.624  0.00  0.00    -0.311 N 
ATOM      5  N   UNL     1       1.437   3.328  27.913  0.00  0.00    -0.297 N 
ATOM      6  C   UNL     1      -0.419   4.010  24.257  0.00  0.00    +0.027 C 
ATOM      7  C   UNL     1      -1.299   1.722  24.377  0.00  0.00    +0.054 C 
ATOM      8  C   UNL     1      -1.558   3.113  23.804  0.00  0.00    +0.018 C 
ATOM      9  C   UNL     1      -0.338   4.084  25.793  0.00  0.00    +0.114 C 
ATOM     10  C   UNL     1       0.880   3.487  23.644  0.00  0.00    +0.130 C 
ATOM     11  C   UNL     1      -1.301   1.805  25.915  0.00  0.00    +0.119 C 
ATOM     12  C   UNL     1       0.024   1.135  23.879  0.00  0.00    +0.034 A 
ATOM     13  C   UNL     1       0.215  -0.199  23.705  0.00  0.00    +0.002 A 
ATOM     14  C   UNL     1       2.355   1.601  23.217  0.00  0.00    +0.252 A 
ATOM     15  C   UNL     1       0.523   2.370  27.490  0.00  0.00    +0.302 C 
ATOM     16  C   UNL     1       1.519  -0.681  23.293  0.00  0.00    +0.015 A 
ATOM     17  C   UNL     1       2.544   0.141  23.071  0.00  0.00    +0.071 A 
ATOM     31  H   UNL     1       1.393   4.279  27.576  0.00  0.00    +0.150 HD
ENDROOT
BRANCH  13  18
ATOM     18  C   UNL     1      -0.868  -1.179  23.945  0.00  0.00    -0.016 A 
ATOM     20  C   UNL     1      -2.158  -0.907  23.499  0.00  0.00    +0.017 A 
ATOM     21  C   UNL     1      -0.588  -2.365  24.612  0.00  0.00    +0.009 A 
ATOM     22  C   UNL     1      -3.195  -1.827  23.718  0.00  0.00    -0.017 A 
ATOM     23  C   UNL     1      -1.607  -3.291  24.837  0.00  0.00    +0.009 A 
ATOM     24  C   UNL     1      -2.916  -3.037  24.398  0.00  0.00    -0.018 A 
ATOM     27  C   UNL     1      -4.504  -1.574  23.278  0.00  0.00    +0.008 A 
ATOM     28  C   UNL     1      -3.954  -3.957  24.617  0.00  0.00    +0.008 A 
ATOM     29  C   UNL     1      -5.524  -2.500  23.504  0.00  0.00    +0.001 A 
ATOM     30  C   UNL     1      -5.249  -3.690  24.173  0.00  0.00    +0.001 A 
ENDBRANCH  13  18
BRANCH   5  19
ATOM     19  C   UNL     1       2.354   3.086  29.004  0.00  0.00    +0.068 C 
ATOM     25  C   UNL     1       3.609   2.389  28.497  0.00  0.00    +0.027 C 
ATOM     26  C   UNL     1       1.678   2.275  30.102  0.00  0.00    +0.027 C 
ENDBRANCH   5  19
TORSDOF 2
ENDMDL
