MODEL 1
REMARK VINA RESULT:      -5.2      0.000      0.000
REMARK  Name = 75536291
REMARK  9 active torsions:
REMARK  status: ('A' for Active; 'I' for Inactive)
REMARK    1  A    between atoms: O_2  and  C_9
REMARK    2  A    between atoms: O_4  and  C_23
REMARK    3  A    between atoms: O_4  and  C_24
REMARK    4  A    between atoms: N_5  and  C_7
REMARK    5  A    between atoms: N_5  and  C_12
REMARK    6  A    between atoms: C_8  and  C_12
REMARK    7  A    between atoms: C_13  and  C_19
REMARK    8  A    between atoms: C_19  and  C_20
REMARK    9  A    between atoms: C_22  and  C_23
REMARK                            x       y       z     vdW  Elec       q    Type
REMARK                         _______ _______ _______ _____ _____    ______ ____
ROOT
ATOM      1  O   UNL     1      -0.263   0.997  23.396  0.00  0.00    -0.369 OA
ATOM      8  C   UNL     1       0.108  -0.384  23.294  0.00  0.00    +0.161 C 
ATOM      9  C   UNL     1       1.460  -0.549  22.589  0.00  0.00    +0.145 C 
ATOM     13  C   UNL     1       0.698   1.839  24.039  0.00  0.00    +0.125 C 
ATOM     14  C   UNL     1       2.536   0.360  23.177  0.00  0.00    +0.036 C 
ATOM     15  C   UNL     1       2.032   1.796  23.296  0.00  0.00    +0.034 C 
ENDROOT
BRANCH   9   2
ATOM      2  O   UNL     1       1.305  -0.206  21.209  0.00  0.00    -0.389 OA
ATOM     26  H   UNL     1       2.098   0.289  20.939  0.00  0.00    +0.210 HD
ENDBRANCH   9   2
BRANCH   8  12
ATOM     12  C   UNL     1       0.059  -1.070  24.659  0.00  0.00    +0.115 C 
BRANCH  12   5
ATOM      5  N   UNL     1      -0.888  -0.405  25.540  0.00  0.00    -0.311 NA
ATOM     25  H   UNL     1      -0.924   0.585  25.296  0.00  0.00    +0.122 HD
BRANCH   5   7
ATOM      7  C   UNL     1      -2.221  -0.993  25.415  0.00  0.00    +0.054 C 
ATOM     10  C   UNL     1      -2.120  -2.378  24.766  0.00  0.00    +0.019 C 
ATOM     11  C   UNL     1      -3.126  -0.065  24.598  0.00  0.00    +0.019 C 
ATOM     16  C   UNL     1      -3.502  -2.993  24.549  0.00  0.00    +0.002 C 
ATOM     17  C   UNL     1      -4.506  -0.682  24.380  0.00  0.00    +0.002 C 
ATOM     18  C   UNL     1      -4.410  -2.067  23.745  0.00  0.00    +0.000 C 
ENDBRANCH   5   7
ENDBRANCH  12   5
ENDBRANCH   8  12
BRANCH  13  19
ATOM     19  C   UNL     1       0.130   3.253  24.054  0.00  0.00    +0.090 C 
BRANCH  19  20
ATOM      3  O   UNL     1      -2.604   3.183  26.402  0.00  0.00    -0.357 OA
ATOM      6  N   UNL     1      -1.262   3.031  26.070  0.00  0.00    -0.083 NA
ATOM     20  C   UNL     1      -1.194   3.314  24.767  0.00  0.00    +0.086 A 
ATOM     21  C   UNL     1      -2.448   3.649  24.227  0.00  0.00    +0.073 A 
ATOM     22  C   UNL     1      -3.299   3.552  25.295  0.00  0.00    +0.163 A 
BRANCH  22  23
ATOM     23  C   UNL     1      -4.742   3.757  25.468  0.00  0.00    +0.236 C 
BRANCH  23   4
ATOM      4  O   UNL     1      -5.469   2.638  24.955  0.00  0.00    -0.375 OA
ATOM     24  C   UNL     1      -6.199   1.985  25.981  0.00  0.00    +0.194 C 
ENDBRANCH  23   4
ENDBRANCH  22  23
ENDBRANCH  19  20
ENDBRANCH  13  19
TORSDOF 8
ENDMDL
MODEL 2
REMARK VINA RESULT:      -5.2      1.410      5.366
REMARK  Name = 75536291
REMARK  9 active torsions:
REMARK  status: ('A' for Active; 'I' for Inactive)
REMARK    1  A    between atoms: O_2  and  C_9
REMARK    2  A    between atoms: O_4  and  C_23
REMARK    3  A    between atoms: O_4  and  C_24
REMARK    4  A    between atoms: N_5  and  C_7
REMARK    5  A    between atoms: N_5  and  C_12
REMARK    6  A    between atoms: C_8  and  C_12
REMARK    7  A    between atoms: C_13  and  C_19
REMARK    8  A    between atoms: C_19  and  C_20
REMARK    9  A    between atoms: C_22  and  C_23
REMARK                            x       y       z     vdW  Elec       q    Type
REMARK                         _______ _______ _______ _____ _____    ______ ____
ROOT
ATOM      1  O   UNL     1      -3.675   2.312  25.762  0.00  0.00    -0.369 OA
ATOM      8  C   UNL     1      -4.859   1.590  25.398  0.00  0.00    +0.161 C 
ATOM      9  C   UNL     1      -6.125   2.377  25.757  0.00  0.00    +0.145 C 
ATOM     13  C   UNL     1      -3.572   3.628  25.212  0.00  0.00    +0.125 C 
ATOM     14  C   UNL     1      -6.076   3.818  25.255  0.00  0.00    +0.036 C 
ATOM     15  C   UNL     1      -4.759   4.486  25.644  0.00  0.00    +0.034 C 
ENDROOT
BRANCH   9   2
ATOM      2  O   UNL     1      -6.257   2.415  27.181  0.00  0.00    -0.389 OA
ATOM     26  H   UNL     1      -6.783   1.642  27.448  0.00  0.00    +0.210 HD
ENDBRANCH   9   2
BRANCH   8  12
ATOM     12  C   UNL     1      -4.816   1.165  23.931  0.00  0.00    +0.115 C 
BRANCH  12   5
ATOM      5  N   UNL     1      -3.446   0.957  23.491  0.00  0.00    -0.311 NA
ATOM     25  H   UNL     1      -2.827   1.532  24.062  0.00  0.00    +0.122 HD
BRANCH   5   7
ATOM      7  C   UNL     1      -3.065  -0.449  23.611  0.00  0.00    +0.054 C 
ATOM     10  C   UNL     1      -4.307  -1.303  23.893  0.00  0.00    +0.019 C 
ATOM     11  C   UNL     1      -2.019  -0.613  24.720  0.00  0.00    +0.019 C 
ATOM     16  C   UNL     1      -3.938  -2.771  24.100  0.00  0.00    +0.002 C 
ATOM     17  C   UNL     1      -1.653  -2.082  24.928  0.00  0.00    +0.002 C 
ATOM     18  C   UNL     1      -2.888  -2.937  25.196  0.00  0.00    +0.000 C 
ENDBRANCH   5   7
ENDBRANCH  12   5
ENDBRANCH   8  12
BRANCH  13  19
ATOM     19  C   UNL     1      -2.261   4.228  25.704  0.00  0.00    +0.090 C 
BRANCH  19  20
ATOM      3  O   UNL     1       0.599   2.037  25.796  0.00  0.00    -0.357 OA
ATOM      6  N   UNL     1      -0.386   2.800  26.411  0.00  0.00    -0.083 NA
ATOM     20  C   UNL     1      -1.090   3.330  25.407  0.00  0.00    +0.086 A 
ATOM     21  C   UNL     1      -0.601   2.940  24.149  0.00  0.00    +0.073 A 
ATOM     22  C   UNL     1       0.460   2.129  24.449  0.00  0.00    +0.163 A 
BRANCH  22  23
ATOM     23  C   UNL     1       1.427   1.378  23.639  0.00  0.00    +0.236 C 
BRANCH  23   4
ATOM      4  O   UNL     1       0.835   0.173  23.148  0.00  0.00    -0.375 OA
ATOM     24  C   UNL     1       1.570  -0.354  22.056  0.00  0.00    +0.194 C 
ENDBRANCH  23   4
ENDBRANCH  22  23
ENDBRANCH  19  20
ENDBRANCH  13  19
TORSDOF 8
ENDMDL
MODEL 3
REMARK VINA RESULT:      -4.8      1.811      5.630
REMARK  Name = 75536291
REMARK  9 active torsions:
REMARK  status: ('A' for Active; 'I' for Inactive)
REMARK    1  A    between atoms: O_2  and  C_9
REMARK    2  A    between atoms: O_4  and  C_23
REMARK    3  A    between atoms: O_4  and  C_24
REMARK    4  A    between atoms: N_5  and  C_7
REMARK    5  A    between atoms: N_5  and  C_12
REMARK    6  A    between atoms: C_8  and  C_12
REMARK    7  A    between atoms: C_13  and  C_19
REMARK    8  A    between atoms: C_19  and  C_20
REMARK    9  A    between atoms: C_22  and  C_23
REMARK                            x       y       z     vdW  Elec       q    Type
REMARK                         _______ _______ _______ _____ _____    ______ ____
ROOT
ATOM      1  O   UNL     1      -2.757   3.002  25.658  0.00  0.00    -0.369 OA
ATOM      8  C   UNL     1      -4.144   3.197  25.354  0.00  0.00    +0.161 C 
ATOM      9  C   UNL     1      -4.340   3.637  23.898  0.00  0.00    +0.145 C 
ATOM     13  C   UNL     1      -2.070   2.084  24.803  0.00  0.00    +0.125 C 
ATOM     14  C   UNL     1      -3.590   2.742  22.915  0.00  0.00    +0.036 C 
ATOM     15  C   UNL     1      -2.139   2.549  23.349  0.00  0.00    +0.034 C 
ENDROOT
BRANCH   9   2
ATOM      2  O   UNL     1      -3.838   4.967  23.747  0.00  0.00    -0.389 OA
ATOM     26  H   UNL     1      -3.382   5.014  22.889  0.00  0.00    +0.210 HD
ENDBRANCH   9   2
BRANCH   8  12
ATOM     12  C   UNL     1      -4.967   1.963  25.721  0.00  0.00    +0.115 C 
BRANCH  12   5
ATOM      5  N   UNL     1      -5.155   1.103  24.564  0.00  0.00    -0.311 NA
ATOM     25  H   UNL     1      -4.576   1.448  23.800  0.00  0.00    +0.122 HD
BRANCH   5   7
ATOM      7  C   UNL     1      -4.792  -0.279  24.875  0.00  0.00    +0.054 C 
ATOM     10  C   UNL     1      -3.664  -0.300  25.913  0.00  0.00    +0.019 C 
ATOM     11  C   UNL     1      -4.376  -1.009  23.593  0.00  0.00    +0.019 C 
ATOM     16  C   UNL     1      -3.204  -1.727  26.207  0.00  0.00    +0.002 C 
ATOM     17  C   UNL     1      -3.914  -2.435  23.889  0.00  0.00    +0.002 C 
ATOM     18  C   UNL     1      -2.800  -2.461  24.932  0.00  0.00    +0.000 C 
ENDBRANCH   5   7
ENDBRANCH  12   5
ENDBRANCH   8  12
BRANCH  13  19
ATOM     19  C   UNL     1      -0.625   2.008  25.280  0.00  0.00    +0.090 C 
BRANCH  19  20
ATOM      3  O   UNL     1       0.804  -0.581  23.219  0.00  0.00    -0.357 OA
ATOM      6  N   UNL     1      -0.185  -0.083  24.059  0.00  0.00    -0.083 NA
ATOM     20  C   UNL     1       0.217   1.152  24.372  0.00  0.00    +0.086 A 
ATOM     21  C   UNL     1       1.440   1.485  23.765  0.00  0.00    +0.073 A 
ATOM     22  C   UNL     1       1.767   0.362  23.052  0.00  0.00    +0.163 A 
BRANCH  22  23
ATOM     23  C   UNL     1       2.895  -0.001  22.188  0.00  0.00    +0.236 C 
BRANCH  23   4
ATOM      4  O   UNL     1       4.005   0.869  22.427  0.00  0.00    -0.375 OA
ATOM     24  C   UNL     1       4.980   0.245  23.247  0.00  0.00    +0.194 C 
ENDBRANCH  23   4
ENDBRANCH  22  23
ENDBRANCH  19  20
ENDBRANCH  13  19
TORSDOF 8
ENDMDL
MODEL 4
REMARK VINA RESULT:      -4.8      2.282      6.351
REMARK  Name = 75536291
REMARK  9 active torsions:
REMARK  status: ('A' for Active; 'I' for Inactive)
REMARK    1  A    between atoms: O_2  and  C_9
REMARK    2  A    between atoms: O_4  and  C_23
REMARK    3  A    between atoms: O_4  and  C_24
REMARK    4  A    between atoms: N_5  and  C_7
REMARK    5  A    between atoms: N_5  and  C_12
REMARK    6  A    between atoms: C_8  and  C_12
REMARK    7  A    between atoms: C_13  and  C_19
REMARK    8  A    between atoms: C_19  and  C_20
REMARK    9  A    between atoms: C_22  and  C_23
REMARK                            x       y       z     vdW  Elec       q    Type
REMARK                         _______ _______ _______ _____ _____    ______ ____
ROOT
ATOM      1  O   UNL     1      -2.678  -0.585  23.702  0.00  0.00    -0.369 OA
ATOM      8  C   UNL     1      -3.643  -0.420  24.749  0.00  0.00    +0.161 C 
ATOM      9  C   UNL     1      -3.337  -1.335  25.940  0.00  0.00    +0.145 C 
ATOM     13  C   UNL     1      -1.316  -0.392  24.094  0.00  0.00    +0.125 C 
ATOM     14  C   UNL     1      -1.882  -1.235  26.392  0.00  0.00    +0.036 C 
ATOM     15  C   UNL     1      -0.933  -1.369  25.204  0.00  0.00    +0.034 C 
ENDROOT
BRANCH   9   2
ATOM      2  O   UNL     1      -3.582  -2.691  25.555  0.00  0.00    -0.389 OA
ATOM     26  H   UNL     1      -3.900  -3.166  26.342  0.00  0.00    +0.210 HD
ENDBRANCH   9   2
BRANCH   8  12
ATOM     12  C   UNL     1      -3.780   1.050  25.144  0.00  0.00    +0.115 C 
BRANCH  12   5
ATOM      5  N   UNL     1      -3.976   1.886  23.971  0.00  0.00    -0.311 NA
ATOM     25  H   UNL     1      -4.966   2.117  23.893  0.00  0.00    +0.122 HD
BRANCH   5   7
ATOM      7  C   UNL     1      -3.189   3.115  24.067  0.00  0.00    +0.054 C 
ATOM     10  C   UNL     1      -1.725   2.824  23.717  0.00  0.00    +0.019 C 
ATOM     11  C   UNL     1      -3.314   3.705  25.476  0.00  0.00    +0.019 C 
ATOM     16  C   UNL     1      -0.856   4.070  23.881  0.00  0.00    +0.002 C 
ATOM     17  C   UNL     1      -2.442   4.949  25.638  0.00  0.00    +0.002 C 
ATOM     18  C   UNL     1      -0.986   4.667  25.279  0.00  0.00    +0.000 C 
ENDBRANCH   5   7
ENDBRANCH  12   5
ENDBRANCH   8  12
BRANCH  13  19
ATOM     19  C   UNL     1      -0.449  -0.605  22.860  0.00  0.00    +0.090 C 
BRANCH  19  20
ATOM      3  O   UNL     1       2.355   1.511  23.666  0.00  0.00    -0.357 OA
ATOM      6  N   UNL     1       1.013   1.158  23.758  0.00  0.00    -0.083 NA
ATOM     20  C   UNL     1       0.891   0.067  22.997  0.00  0.00    +0.086 A 
ATOM     21  C   UNL     1       2.108  -0.312  22.406  0.00  0.00    +0.073 A 
ATOM     22  C   UNL     1       2.996   0.628  22.858  0.00  0.00    +0.163 A 
BRANCH  22  23
ATOM     23  C   UNL     1       4.431   0.855  22.650  0.00  0.00    +0.236 C 
BRANCH  23   4
ATOM      4  O   UNL     1       5.138   0.733  23.887  0.00  0.00    -0.375 OA
ATOM     24  C   UNL     1       5.486  -0.617  24.148  0.00  0.00    +0.194 C 
ENDBRANCH  23   4
ENDBRANCH  22  23
ENDBRANCH  19  20
ENDBRANCH  13  19
TORSDOF 8
ENDMDL
MODEL 5
REMARK VINA RESULT:      -3.4      2.668      5.407
REMARK  Name = 75536291
REMARK  9 active torsions:
REMARK  status: ('A' for Active; 'I' for Inactive)
REMARK    1  A    between atoms: O_2  and  C_9
REMARK    2  A    between atoms: O_4  and  C_23
REMARK    3  A    between atoms: O_4  and  C_24
REMARK    4  A    between atoms: N_5  and  C_7
REMARK    5  A    between atoms: N_5  and  C_12
REMARK    6  A    between atoms: C_8  and  C_12
REMARK    7  A    between atoms: C_13  and  C_19
REMARK    8  A    between atoms: C_19  and  C_20
REMARK    9  A    between atoms: C_22  and  C_23
REMARK                            x       y       z     vdW  Elec       q    Type
REMARK                         _______ _______ _______ _____ _____    ______ ____
ROOT
ATOM      1  O   UNL     1      -3.128  -0.306  23.539  0.00  0.00    -0.369 OA
ATOM      8  C   UNL     1      -4.455  -0.702  23.909  0.00  0.00    +0.161 C 
ATOM      9  C   UNL     1      -4.539  -2.212  24.159  0.00  0.00    +0.145 C 
ATOM     13  C   UNL     1      -2.102  -0.679  24.463  0.00  0.00    +0.125 C 
ATOM     14  C   UNL     1      -3.440  -2.708  25.095  0.00  0.00    +0.036 C 
ATOM     15  C   UNL     1      -2.073  -2.194  24.652  0.00  0.00    +0.034 C 
ENDROOT
BRANCH   9   2
ATOM      2  O   UNL     1      -4.390  -2.895  22.911  0.00  0.00    -0.389 OA
ATOM     26  H   UNL     1      -3.984  -2.273  22.283  0.00  0.00    +0.210 HD
ENDBRANCH   9   2
BRANCH   8  12
ATOM     12  C   UNL     1      -4.969   0.127  25.085  0.00  0.00    +0.115 C 
BRANCH  12   5
ATOM      5  N   UNL     1      -5.110   1.526  24.712  0.00  0.00    -0.311 NA
ATOM     25  H   UNL     1      -5.901   1.923  25.219  0.00  0.00    +0.122 HD
BRANCH   5   7
ATOM      7  C   UNL     1      -3.896   2.276  25.024  0.00  0.00    +0.054 C 
ATOM     10  C   UNL     1      -4.184   3.296  26.133  0.00  0.00    +0.019 C 
ATOM     11  C   UNL     1      -3.371   2.968  23.761  0.00  0.00    +0.019 C 
ATOM     16  C   UNL     1      -2.955   4.153  26.434  0.00  0.00    +0.002 C 
ATOM     17  C   UNL     1      -2.144   3.826  24.065  0.00  0.00    +0.002 C 
ATOM     18  C   UNL     1      -2.423   4.834  25.176  0.00  0.00    +0.000 C 
ENDBRANCH   5   7
ENDBRANCH  12   5
ENDBRANCH   8  12
BRANCH  13  19
ATOM     19  C   UNL     1      -0.777  -0.175  23.904  0.00  0.00    +0.090 C 
BRANCH  19  20
ATOM      3  O   UNL     1       0.997   2.655  25.258  0.00  0.00    -0.357 OA
ATOM      6  N   UNL     1       0.664   1.793  24.219  0.00  0.00    -0.083 NA
ATOM     20  C   UNL     1      -0.195   0.922  24.754  0.00  0.00    +0.086 A 
ATOM     21  C   UNL     1      -0.440   1.180  26.114  0.00  0.00    +0.073 A 
ATOM     22  C   UNL     1       0.333   2.278  26.381  0.00  0.00    +0.163 A 
BRANCH  22  23
ATOM     23  C   UNL     1       0.571   3.086  27.583  0.00  0.00    +0.236 C 
BRANCH  23   4
ATOM      4  O   UNL     1       1.807   2.713  28.197  0.00  0.00    -0.375 OA
ATOM     24  C   UNL     1       1.633   2.437  29.577  0.00  0.00    +0.194 C 
ENDBRANCH  23   4
ENDBRANCH  22  23
ENDBRANCH  19  20
ENDBRANCH  13  19
TORSDOF 8
ENDMDL
MODEL 6
REMARK VINA RESULT:      -3.4      2.176      5.947
REMARK  Name = 75536291
REMARK  9 active torsions:
REMARK  status: ('A' for Active; 'I' for Inactive)
REMARK    1  A    between atoms: O_2  and  C_9
REMARK    2  A    between atoms: O_4  and  C_23
REMARK    3  A    between atoms: O_4  and  C_24
REMARK    4  A    between atoms: N_5  and  C_7
REMARK    5  A    between atoms: N_5  and  C_12
REMARK    6  A    between atoms: C_8  and  C_12
REMARK    7  A    between atoms: C_13  and  C_19
REMARK    8  A    between atoms: C_19  and  C_20
REMARK    9  A    between atoms: C_22  and  C_23
REMARK                            x       y       z     vdW  Elec       q    Type
REMARK                         _______ _______ _______ _____ _____    ______ ____
ROOT
ATOM      1  O   UNL     1      -2.229  -0.304  23.690  0.00  0.00    -0.369 OA
ATOM      8  C   UNL     1      -3.049  -1.401  24.114  0.00  0.00    +0.161 C 
ATOM      9  C   UNL     1      -2.198  -2.569  24.626  0.00  0.00    +0.145 C 
ATOM     13  C   UNL     1      -1.314   0.187  24.673  0.00  0.00    +0.125 C 
ATOM     14  C   UNL     1      -1.151  -2.124  25.643  0.00  0.00    +0.036 C 
ATOM     15  C   UNL     1      -0.366  -0.921  25.126  0.00  0.00    +0.034 C 
ENDROOT
BRANCH   9   2
ATOM      2  O   UNL     1      -1.509  -3.157  23.519  0.00  0.00    -0.389 OA
ATOM     26  H   UNL     1      -0.740  -3.636  23.872  0.00  0.00    +0.210 HD
ENDBRANCH   9   2
BRANCH   8  12
ATOM     12  C   UNL     1      -4.102  -0.943  25.122  0.00  0.00    +0.115 C 
BRANCH  12   5
ATOM      5  N   UNL     1      -4.961   0.080  24.547  0.00  0.00    -0.311 NA
ATOM     25  H   UNL     1      -5.930  -0.136  24.778  0.00  0.00    +0.122 HD
BRANCH   5   7
ATOM      7  C   UNL     1      -4.614   1.404  25.059  0.00  0.00    +0.054 C 
ATOM     10  C   UNL     1      -5.835   2.038  25.735  0.00  0.00    +0.019 C 
ATOM     11  C   UNL     1      -4.095   2.285  23.917  0.00  0.00    +0.019 C 
ATOM     16  C   UNL     1      -5.532   3.456  26.216  0.00  0.00    +0.002 C 
ATOM     17  C   UNL     1      -3.794   3.704  24.400  0.00  0.00    +0.002 C 
ATOM     18  C   UNL     1      -5.004   4.334  25.085  0.00  0.00    +0.000 C 
ENDBRANCH   5   7
ENDBRANCH  12   5
ENDBRANCH   8  12
BRANCH  13  19
ATOM     19  C   UNL     1      -0.541   1.339  24.044  0.00  0.00    +0.090 C 
BRANCH  19  20
ATOM      3  O   UNL     1       2.018  -0.298  22.105  0.00  0.00    -0.357 OA
ATOM      6  N   UNL     1       0.696  -0.120  22.497  0.00  0.00    -0.083 NA
ATOM     20  C   UNL     1       0.733   0.868  23.396  0.00  0.00    +0.086 A 
ATOM     21  C   UNL     1       2.037   1.348  23.609  0.00  0.00    +0.073 A 
ATOM     22  C   UNL     1       2.806   0.582  22.774  0.00  0.00    +0.163 A 
BRANCH  22  23
ATOM     23  C   UNL     1       4.242   0.529  22.478  0.00  0.00    +0.236 C 
BRANCH  23   4
ATOM      4  O   UNL     1       4.886  -0.443  23.306  0.00  0.00    -0.375 OA
ATOM     24  C   UNL     1       5.672   0.175  24.311  0.00  0.00    +0.194 C 
ENDBRANCH  23   4
ENDBRANCH  22  23
ENDBRANCH  19  20
ENDBRANCH  13  19
TORSDOF 8
ENDMDL
MODEL 7
REMARK VINA RESULT:      -3.3      1.961      6.659
REMARK  Name = 75536291
REMARK  9 active torsions:
REMARK  status: ('A' for Active; 'I' for Inactive)
REMARK    1  A    between atoms: O_2  and  C_9
REMARK    2  A    between atoms: O_4  and  C_23
REMARK    3  A    between atoms: O_4  and  C_24
REMARK    4  A    between atoms: N_5  and  C_7
REMARK    5  A    between atoms: N_5  and  C_12
REMARK    6  A    between atoms: C_8  and  C_12
REMARK    7  A    between atoms: C_13  and  C_19
REMARK    8  A    between atoms: C_19  and  C_20
REMARK    9  A    between atoms: C_22  and  C_23
REMARK                            x       y       z     vdW  Elec       q    Type
REMARK                         _______ _______ _______ _____ _____    ______ ____
ROOT
ATOM      1  O   UNL     1      -4.323   2.654  24.089  0.00  0.00    -0.369 OA
ATOM      8  C   UNL     1      -5.135   3.049  25.203  0.00  0.00    +0.161 C 
ATOM      9  C   UNL     1      -6.119   1.941  25.598  0.00  0.00    +0.145 C 
ATOM     13  C   UNL     1      -3.598   1.434  24.268  0.00  0.00    +0.125 C 
ATOM     14  C   UNL     1      -5.436   0.586  25.755  0.00  0.00    +0.036 C 
ATOM     15  C   UNL     1      -4.554   0.276  24.548  0.00  0.00    +0.034 C 
ENDROOT
BRANCH   9   2
ATOM      2  O   UNL     1      -7.107   1.815  24.572  0.00  0.00    -0.389 OA
ATOM     26  H   UNL     1      -6.707   1.318  23.838  0.00  0.00    +0.210 HD
ENDBRANCH   9   2
BRANCH   8  12
ATOM     12  C   UNL     1      -4.273   3.527  26.371  0.00  0.00    +0.115 C 
BRANCH  12   5
ATOM      5  N   UNL     1      -3.585   4.763  26.036  0.00  0.00    -0.311 NA
ATOM     25  H   UNL     1      -3.800   5.462  26.747  0.00  0.00    +0.122 HD
BRANCH   5   7
ATOM      7  C   UNL     1      -2.140   4.556  25.969  0.00  0.00    +0.054 C 
ATOM     10  C   UNL     1      -1.609   5.025  24.609  0.00  0.00    +0.019 C 
ATOM     11  C   UNL     1      -1.813   3.078  26.209  0.00  0.00    +0.019 C 
ATOM     16  C   UNL     1      -0.112   4.754  24.472  0.00  0.00    +0.002 C 
ATOM     17  C   UNL     1      -0.316   2.809  26.069  0.00  0.00    +0.002 C 
ATOM     18  C   UNL     1       0.219   3.286  24.722  0.00  0.00    +0.000 C 
ENDBRANCH   5   7
ENDBRANCH  12   5
ENDBRANCH   8  12
BRANCH  13  19
ATOM     19  C   UNL     1      -2.801   1.184  22.994  0.00  0.00    +0.090 C 
BRANCH  19  20
ATOM      3  O   UNL     1       0.038  -0.610  24.301  0.00  0.00    -0.357 OA
ATOM      6  N   UNL     1      -1.306  -0.254  24.316  0.00  0.00    -0.083 NA
ATOM     20  C   UNL     1      -1.451   0.588  23.289  0.00  0.00    +0.086 A 
ATOM     21  C   UNL     1      -0.246   0.798  22.596  0.00  0.00    +0.073 A 
ATOM     22  C   UNL     1       0.658   0.023  23.272  0.00  0.00    +0.163 A 
BRANCH  22  23
ATOM     23  C   UNL     1       2.092  -0.242  23.110  0.00  0.00    +0.236 C 
BRANCH  23   4
ATOM      4  O   UNL     1       2.831   0.981  23.145  0.00  0.00    -0.375 OA
ATOM     24  C   UNL     1       4.190   0.771  22.798  0.00  0.00    +0.194 C 
ENDBRANCH  23   4
ENDBRANCH  22  23
ENDBRANCH  19  20
ENDBRANCH  13  19
TORSDOF 8
ENDMDL
MODEL 8
REMARK VINA RESULT:      -3.3      1.990      5.027
REMARK  Name = 75536291
REMARK  9 active torsions:
REMARK  status: ('A' for Active; 'I' for Inactive)
REMARK    1  A    between atoms: O_2  and  C_9
REMARK    2  A    between atoms: O_4  and  C_23
REMARK    3  A    between atoms: O_4  and  C_24
REMARK    4  A    between atoms: N_5  and  C_7
REMARK    5  A    between atoms: N_5  and  C_12
REMARK    6  A    between atoms: C_8  and  C_12
REMARK    7  A    between atoms: C_13  and  C_19
REMARK    8  A    between atoms: C_19  and  C_20
REMARK    9  A    between atoms: C_22  and  C_23
REMARK                            x       y       z     vdW  Elec       q    Type
REMARK                         _______ _______ _______ _____ _____    ______ ____
ROOT
ATOM      1  O   UNL     1      -3.015  -0.140  25.254  0.00  0.00    -0.369 OA
ATOM      8  C   UNL     1      -2.044  -1.185  25.107  0.00  0.00    +0.161 C 
ATOM      9  C   UNL     1      -2.718  -2.550  24.916  0.00  0.00    +0.145 C 
ATOM     13  C   UNL     1      -3.968  -0.040  24.193  0.00  0.00    +0.125 C 
ATOM     14  C   UNL     1      -3.795  -2.520  23.835  0.00  0.00    +0.036 C 
ATOM     15  C   UNL     1      -4.747  -1.346  24.045  0.00  0.00    +0.034 C 
ENDROOT
BRANCH   9   2
ATOM      2  O   UNL     1      -3.344  -2.931  26.144  0.00  0.00    -0.389 OA
ATOM     26  H   UNL     1      -2.650  -3.274  26.733  0.00  0.00    +0.210 HD
ENDBRANCH   9   2
BRANCH   8  12
ATOM     12  C   UNL     1      -1.043  -0.854  24.002  0.00  0.00    +0.115 C 
BRANCH  12   5
ATOM      5  N   UNL     1      -0.481   0.474  24.192  0.00  0.00    -0.311 NA
ATOM     25  H   UNL     1      -0.114   0.542  25.141  0.00  0.00    +0.122 HD
BRANCH   5   7
ATOM      7  C   UNL     1       0.588   0.732  23.229  0.00  0.00    +0.054 C 
ATOM     10  C   UNL     1       0.920  -0.552  22.460  0.00  0.00    +0.019 C 
ATOM     11  C   UNL     1       1.824   1.275  23.956  0.00  0.00    +0.019 C 
ATOM     16  C   UNL     1       2.086  -0.339  21.497  0.00  0.00    +0.002 C 
ATOM     17  C   UNL     1       2.990   1.485  22.991  0.00  0.00    +0.002 C 
ATOM     18  C   UNL     1       3.315   0.212  22.215  0.00  0.00    +0.000 C 
ENDBRANCH   5   7
ENDBRANCH  12   5
ENDBRANCH   8  12
BRANCH  13  19
ATOM     19  C   UNL     1      -4.903   1.116  24.524  0.00  0.00    +0.090 C 
BRANCH  19  20
ATOM      3  O   UNL     1      -3.666   4.109  26.105  0.00  0.00    -0.357 OA
ATOM      6  N   UNL     1      -4.586   3.074  25.979  0.00  0.00    -0.083 NA
ATOM     20  C   UNL     1      -4.143   2.342  24.953  0.00  0.00    +0.086 A 
ATOM     21  C   UNL     1      -2.960   2.860  24.399  0.00  0.00    +0.073 A 
ATOM     22  C   UNL     1      -2.703   3.970  25.159  0.00  0.00    +0.163 A 
BRANCH  22  23
ATOM     23  C   UNL     1      -1.643   4.985  25.150  0.00  0.00    +0.236 C 
BRANCH  23   4
ATOM      4  O   UNL     1      -0.362   4.366  25.012  0.00  0.00    -0.375 OA
ATOM     24  C   UNL     1      -0.197   3.313  25.947  0.00  0.00    +0.194 C 
ENDBRANCH  23   4
ENDBRANCH  22  23
ENDBRANCH  19  20
ENDBRANCH  13  19
TORSDOF 8
ENDMDL
MODEL 9
REMARK VINA RESULT:      -2.8     16.112     18.995
REMARK  Name = 75536291
REMARK  9 active torsions:
REMARK  status: ('A' for Active; 'I' for Inactive)
REMARK    1  A    between atoms: O_2  and  C_9
REMARK    2  A    between atoms: O_4  and  C_23
REMARK    3  A    between atoms: O_4  and  C_24
REMARK    4  A    between atoms: N_5  and  C_7
REMARK    5  A    between atoms: N_5  and  C_12
REMARK    6  A    between atoms: C_8  and  C_12
REMARK    7  A    between atoms: C_13  and  C_19
REMARK    8  A    between atoms: C_19  and  C_20
REMARK    9  A    between atoms: C_22  and  C_23
REMARK                            x       y       z     vdW  Elec       q    Type
REMARK                         _______ _______ _______ _____ _____    ______ ____
ROOT
ATOM      1  O   UNL     1      13.443  -7.649  32.674  0.00  0.00    -0.369 OA
ATOM      8  C   UNL     1      12.129  -7.081  32.738  0.00  0.00    +0.161 C 
ATOM      9  C   UNL     1      11.904  -6.066  31.610  0.00  0.00    +0.145 C 
ATOM     13  C   UNL     1      13.781  -8.262  31.427  0.00  0.00    +0.125 C 
ATOM     14  C   UNL     1      12.295  -6.620  30.243  0.00  0.00    +0.036 C 
ATOM     15  C   UNL     1      13.685  -7.251  30.287  0.00  0.00    +0.034 C 
ENDROOT
BRANCH   9   2
ATOM      2  O   UNL     1      12.712  -4.912  31.860  0.00  0.00    -0.389 OA
ATOM     26  H   UNL     1      13.626  -5.217  31.992  0.00  0.00    +0.210 HD
ENDBRANCH   9   2
BRANCH   8  12
ATOM     12  C   UNL     1      11.059  -8.171  32.781  0.00  0.00    +0.115 C 
BRANCH  12   5
ATOM      5  N   UNL     1       9.729  -7.589  32.873  0.00  0.00    -0.311 NA
ATOM     25  H   UNL     1       9.674  -6.794  32.237  0.00  0.00    +0.122 HD
BRANCH   5   7
ATOM      7  C   UNL     1       8.704  -8.571  32.527  0.00  0.00    +0.054 C 
ATOM     10  C   UNL     1       9.344  -9.760  31.800  0.00  0.00    +0.019 C 
ATOM     11  C   UNL     1       7.623  -7.913  31.662  0.00  0.00    +0.019 C 
ATOM     16  C   UNL     1       8.291 -10.773  31.354  0.00  0.00    +0.002 C 
ATOM     17  C   UNL     1       6.572  -8.928  31.215  0.00  0.00    +0.002 C 
ATOM     18  C   UNL     1       7.207 -10.119  30.503  0.00  0.00    +0.000 C 
ENDBRANCH   5   7
ENDBRANCH  12   5
ENDBRANCH   8  12
BRANCH  13  19
ATOM     19  C   UNL     1      15.200  -8.805  31.553  0.00  0.00    +0.090 C 
BRANCH  19  20
ATOM      3  O   UNL     1      17.285  -8.701  28.616  0.00  0.00    -0.357 OA
ATOM      6  N   UNL     1      16.958  -8.303  29.907  0.00  0.00    -0.083 NA
ATOM     20  C   UNL     1      15.849  -8.985  30.207  0.00  0.00    +0.086 A 
ATOM     21  C   UNL     1      15.435  -9.821  29.156  0.00  0.00    +0.073 A 
ATOM     22  C   UNL     1      16.371  -9.604  28.180  0.00  0.00    +0.163 A 
BRANCH  22  23
ATOM     23  C   UNL     1      16.567 -10.132  26.825  0.00  0.00    +0.236 C 
BRANCH  23   4
ATOM      4  O   UNL     1      15.394  -9.923  26.034  0.00  0.00    -0.375 OA
ATOM     24  C   UNL     1      15.414 -10.721  24.862  0.00  0.00    +0.194 C 
ENDBRANCH  23   4
ENDBRANCH  22  23
ENDBRANCH  19  20
ENDBRANCH  13  19
TORSDOF 8
ENDMDL
MODEL 10
REMARK VINA RESULT:      -2.7      2.174      5.129
REMARK  Name = 75536291
REMARK  9 active torsions:
REMARK  status: ('A' for Active; 'I' for Inactive)
REMARK    1  A    between atoms: O_2  and  C_9
REMARK    2  A    between atoms: O_4  and  C_23
REMARK    3  A    between atoms: O_4  and  C_24
REMARK    4  A    between atoms: N_5  and  C_7
REMARK    5  A    between atoms: N_5  and  C_12
REMARK    6  A    between atoms: C_8  and  C_12
REMARK    7  A    between atoms: C_13  and  C_19
REMARK    8  A    between atoms: C_19  and  C_20
REMARK    9  A    between atoms: C_22  and  C_23
REMARK                            x       y       z     vdW  Elec       q    Type
REMARK                         _______ _______ _______ _____ _____    ______ ____
ROOT
ATOM      1  O   UNL     1      -2.689  -0.788  23.635  0.00  0.00    -0.369 OA
ATOM      8  C   UNL     1      -4.073  -0.967  23.964  0.00  0.00    +0.161 C 
ATOM      9  C   UNL     1      -4.432  -2.454  24.081  0.00  0.00    +0.145 C 
ATOM     13  C   UNL     1      -1.766  -1.417  24.527  0.00  0.00    +0.125 C 
ATOM     14  C   UNL     1      -3.459  -3.218  24.974  0.00  0.00    +0.036 C 
ATOM     15  C   UNL     1      -2.013  -2.924  24.583  0.00  0.00    +0.034 C 
ENDROOT
BRANCH   9   2
ATOM      2  O   UNL     1      -4.383  -3.043  22.778  0.00  0.00    -0.389 OA
ATOM     26  H   UNL     1      -4.264  -4.001  22.893  0.00  0.00    +0.210 HD
ENDBRANCH   9   2
BRANCH   8  12
ATOM     12  C   UNL     1      -4.452  -0.163  25.207  0.00  0.00    +0.115 C 
BRANCH  12   5
ATOM      5  N   UNL     1      -5.726   0.514  25.019  0.00  0.00    -0.311 NA
ATOM     25  H   UNL     1      -6.279   0.416  25.869  0.00  0.00    +0.122 HD
BRANCH   5   7
ATOM      7  C   UNL     1      -5.526   1.931  24.719  0.00  0.00    +0.054 C 
ATOM     10  C   UNL     1      -4.100   2.159  24.204  0.00  0.00    +0.019 C 
ATOM     11  C   UNL     1      -5.802   2.771  25.971  0.00  0.00    +0.019 C 
ATOM     16  C   UNL     1      -3.830   3.641  23.953  0.00  0.00    +0.002 C 
ATOM     17  C   UNL     1      -5.529   4.253  25.718  0.00  0.00    +0.002 C 
ATOM     18  C   UNL     1      -4.114   4.483  25.193  0.00  0.00    +0.000 C 
ENDBRANCH   5   7
ENDBRANCH  12   5
ENDBRANCH   8  12
BRANCH  13  19
ATOM     19  C   UNL     1      -0.361  -1.116  24.020  0.00  0.00    +0.090 C 
BRANCH  19  20
ATOM      3  O   UNL     1       1.133   2.163  24.100  0.00  0.00    -0.357 OA
ATOM      6  N   UNL     1       1.030   0.870  23.601  0.00  0.00    -0.083 NA
ATOM     20  C   UNL     1       0.038   0.309  24.297  0.00  0.00    +0.086 A 
ATOM     21  C   UNL     1      -0.519   1.191  25.239  0.00  0.00    +0.073 A 
ATOM     22  C   UNL     1       0.205   2.342  25.074  0.00  0.00    +0.163 A 
BRANCH  22  23
ATOM     23  C   UNL     1       0.174   3.663  25.714  0.00  0.00    +0.236 C 
BRANCH  23   4
ATOM      4  O   UNL     1      -0.797   4.499  25.080  0.00  0.00    -0.375 OA
ATOM     24  C   UNL     1      -0.430   4.792  23.742  0.00  0.00    +0.194 C 
ENDBRANCH  23   4
ENDBRANCH  22  23
ENDBRANCH  19  20
ENDBRANCH  13  19
TORSDOF 8
ENDMDL
