MODEL 1
REMARK VINA RESULT:       0.3      0.000      0.000
REMARK  Name = 45783710
REMARK  8 active torsions:
REMARK  status: ('A' for Active; 'I' for Inactive)
REMARK    1  A    between atoms: O_2  and  C_27
REMARK    2  A    between atoms: O_2  and  C_29
REMARK    3  A    between atoms: N_4  and  C_13
REMARK    4  A    between atoms: N_7  and  C_21
REMARK    5  A    between atoms: C_9  and  C_14
REMARK    6  A    between atoms: C_13  and  C_15
REMARK    7  A    between atoms: C_18  and  C_22
REMARK    8  A    between atoms: C_26  and  C_28
REMARK                            x       y       z     vdW  Elec       q    Type
REMARK                         _______ _______ _______ _____ _____    ______ ____
ROOT
ATOM      4  N   UNL     1      -4.424  -1.563  23.908  0.00  0.00    -0.287 NA
ATOM      9  C   UNL     1      -3.477  -1.971  24.965  0.00  0.00    +0.146 C 
ATOM     10  C   UNL     1      -3.232  -3.469  24.714  0.00  0.00    +0.030 C 
ATOM     11  C   UNL     1      -4.128  -3.828  23.538  0.00  0.00    +0.017 C 
ATOM     12  C   UNL     1      -5.199  -2.756  23.566  0.00  0.00    +0.085 C 
ENDROOT
BRANCH   9  14
ATOM      1  O   UNL     1      -2.070  -0.213  25.914  0.00  0.00    -0.336 OA
ATOM      5  N   UNL     1      -1.182  -1.228  24.125  0.00  0.00    -0.190 NA
ATOM      6  N   UNL     1      -0.827   0.399  25.695  0.00  0.00    -0.056 NA
ATOM     14  C   UNL     1      -2.199  -1.158  24.947  0.00  0.00    +0.245 A 
ATOM     18  C   UNL     1      -0.367  -0.254  24.624  0.00  0.00    +0.204 A 
BRANCH  18  22
ATOM      8  N   UNL     1       3.010  -0.761  23.150  0.00  0.00    -0.221 NA
ATOM     22  C   UNL     1       0.905   0.040  24.030  0.00  0.00    +0.041 A 
ATOM     23  C   UNL     1       1.282   1.350  23.757  0.00  0.00    +0.018 A 
ATOM     24  C   UNL     1       1.797  -0.971  23.710  0.00  0.00    +0.126 A 
ATOM     25  C   UNL     1       2.522   1.606  23.182  0.00  0.00    +0.068 A 
ATOM     27  C   UNL     1       3.341   0.525  22.900  0.00  0.00    +0.214 A 
BRANCH  27   2
ATOM      2  O   UNL     1       4.568   0.752  22.332  0.00  0.00    -0.480 OA
ATOM     29  C   UNL     1       5.690   0.160  22.978  0.00  0.00    +0.279 C 
ENDBRANCH  27   2
ENDBRANCH  18  22
ENDBRANCH   9  14
BRANCH   4  13
ATOM     13  C   UNL     1      -5.277  -0.449  24.300  0.00  0.00    +0.120 C 
BRANCH  13  15
ATOM     15  C   UNL     1      -4.516   0.850  24.349  0.00  0.00    -0.033 A 
ATOM     16  C   UNL     1      -4.748   1.754  25.386  0.00  0.00    +0.007 A 
ATOM     17  C   UNL     1      -3.579   1.149  23.360  0.00  0.00    +0.007 A 
ATOM     19  C   UNL     1      -4.044   2.957  25.433  0.00  0.00    +0.023 A 
ATOM     20  C   UNL     1      -2.875   2.352  23.406  0.00  0.00    +0.023 A 
ATOM     21  C   UNL     1      -3.108   3.256  24.442  0.00  0.00    +0.033 A 
BRANCH  21   7
ATOM      3  O   UNL     1      -0.335   3.860  25.448  0.00  0.00    -0.276 OA
ATOM      7  N   UNL     1      -2.403   4.459  24.488  0.00  0.00    -0.286 N 
ATOM     26  C   UNL     1      -1.107   4.685  24.971  0.00  0.00    +0.214 C 
ATOM     28  C   UNL     1      -0.707   6.133  24.843  0.00  0.00    +0.109 C 
ATOM     30  H   UNL     1      -2.901   5.268  24.124  0.00  0.00    +0.155 HD
ENDBRANCH  21   7
ENDBRANCH  13  15
ENDBRANCH   4  13
TORSDOF 6
ENDMDL
MODEL 2
REMARK VINA RESULT:       0.3      1.918      4.719
REMARK  Name = 45783710
REMARK  8 active torsions:
REMARK  status: ('A' for Active; 'I' for Inactive)
REMARK    1  A    between atoms: O_2  and  C_27
REMARK    2  A    between atoms: O_2  and  C_29
REMARK    3  A    between atoms: N_4  and  C_13
REMARK    4  A    between atoms: N_7  and  C_21
REMARK    5  A    between atoms: C_9  and  C_14
REMARK    6  A    between atoms: C_13  and  C_15
REMARK    7  A    between atoms: C_18  and  C_22
REMARK    8  A    between atoms: C_26  and  C_28
REMARK                            x       y       z     vdW  Elec       q    Type
REMARK                         _______ _______ _______ _____ _____    ______ ____
ROOT
ATOM      4  N   UNL     1      -5.394   2.445  25.311  0.00  0.00    -0.287 NA
ATOM      9  C   UNL     1      -4.492   3.140  24.370  0.00  0.00    +0.146 C 
ATOM     10  C   UNL     1      -4.708   4.637  24.653  0.00  0.00    +0.030 C 
ATOM     11  C   UNL     1      -5.790   4.688  25.723  0.00  0.00    +0.017 C 
ATOM     12  C   UNL     1      -6.505   3.361  25.569  0.00  0.00    +0.085 C 
ENDROOT
BRANCH   9  14
ATOM      1  O   UNL     1      -2.467   2.984  25.728  0.00  0.00    -0.336 OA
ATOM      5  N   UNL     1      -2.256   2.121  23.672  0.00  0.00    -0.190 NA
ATOM      6  N   UNL     1      -1.152   2.507  25.638  0.00  0.00    -0.056 NA
ATOM     14  C   UNL     1      -3.047   2.716  24.529  0.00  0.00    +0.245 A 
ATOM     18  C   UNL     1      -1.106   2.014  24.397  0.00  0.00    +0.204 A 
BRANCH  18  22
ATOM      8  N   UNL     1       2.461   1.497  23.479  0.00  0.00    -0.221 NA
ATOM     22  C   UNL     1       0.074   1.406  23.852  0.00  0.00    +0.041 A 
ATOM     23  C   UNL     1       0.009   0.188  23.185  0.00  0.00    +0.018 A 
ATOM     24  C   UNL     1       1.313   2.015  23.971  0.00  0.00    +0.126 A 
ATOM     25  C   UNL     1       1.169  -0.376  22.665  0.00  0.00    +0.068 A 
ATOM     27  C   UNL     1       2.359   0.312  22.838  0.00  0.00    +0.214 A 
BRANCH  27   2
ATOM      2  O   UNL     1       3.516  -0.224  22.334  0.00  0.00    -0.480 OA
ATOM     29  C   UNL     1       4.717   0.075  23.035  0.00  0.00    +0.279 C 
ENDBRANCH  27   2
ENDBRANCH  18  22
ENDBRANCH   9  14
BRANCH   4  13
ATOM     13  C   UNL     1      -5.851   1.152  24.821  0.00  0.00    +0.120 C 
BRANCH  13  15
ATOM     15  C   UNL     1      -4.756   0.119  24.857  0.00  0.00    -0.033 A 
ATOM     16  C   UNL     1      -4.460  -0.623  23.714  0.00  0.00    +0.007 A 
ATOM     17  C   UNL     1      -4.038  -0.096  26.033  0.00  0.00    +0.007 A 
ATOM     19  C   UNL     1      -3.445  -1.580  23.746  0.00  0.00    +0.023 A 
ATOM     20  C   UNL     1      -3.023  -1.053  26.067  0.00  0.00    +0.023 A 
ATOM     21  C   UNL     1      -2.728  -1.795  24.923  0.00  0.00    +0.033 A 
BRANCH  21   7
ATOM      3  O   UNL     1       0.116  -1.596  25.892  0.00  0.00    -0.276 OA
ATOM      7  N   UNL     1      -1.714  -2.752  24.957  0.00  0.00    -0.286 N 
ATOM     26  C   UNL     1      -0.399  -2.605  25.420  0.00  0.00    +0.214 C 
ATOM     28  C   UNL     1       0.389  -3.883  25.286  0.00  0.00    +0.109 C 
ATOM     30  H   UNL     1      -1.970  -3.670  24.598  0.00  0.00    +0.155 HD
ENDBRANCH  21   7
ENDBRANCH  13  15
ENDBRANCH   4  13
TORSDOF 6
ENDMDL
MODEL 3
REMARK VINA RESULT:       2.5      2.325      3.656
REMARK  Name = 45783710
REMARK  8 active torsions:
REMARK  status: ('A' for Active; 'I' for Inactive)
REMARK    1  A    between atoms: O_2  and  C_27
REMARK    2  A    between atoms: O_2  and  C_29
REMARK    3  A    between atoms: N_4  and  C_13
REMARK    4  A    between atoms: N_7  and  C_21
REMARK    5  A    between atoms: C_9  and  C_14
REMARK    6  A    between atoms: C_13  and  C_15
REMARK    7  A    between atoms: C_18  and  C_22
REMARK    8  A    between atoms: C_26  and  C_28
REMARK                            x       y       z     vdW  Elec       q    Type
REMARK                         _______ _______ _______ _____ _____    ______ ____
ROOT
ATOM      4  N   UNL     1      -4.344   2.757  24.475  0.00  0.00    -0.287 NA
ATOM      9  C   UNL     1      -3.898   1.583  25.252  0.00  0.00    +0.146 C 
ATOM     10  C   UNL     1      -5.138   0.677  25.341  0.00  0.00    +0.030 C 
ATOM     11  C   UNL     1      -6.247   1.449  24.640  0.00  0.00    +0.017 C 
ATOM     12  C   UNL     1      -5.781   2.890  24.717  0.00  0.00    +0.085 C 
ENDROOT
BRANCH   9  14
ATOM      1  O   UNL     1      -2.881  -0.416  24.282  0.00  0.00    -0.336 OA
ATOM      5  N   UNL     1      -1.518   1.360  24.353  0.00  0.00    -0.190 NA
ATOM      6  N   UNL     1      -1.665  -0.837  23.728  0.00  0.00    -0.056 NA
ATOM     14  C   UNL     1      -2.709   0.888  24.623  0.00  0.00    +0.245 A 
ATOM     18  C   UNL     1      -0.913   0.266  23.805  0.00  0.00    +0.204 A 
BRANCH  18  22
ATOM      8  N   UNL     1       2.648   1.289  23.494  0.00  0.00    -0.221 NA
ATOM     22  C   UNL     1       0.444   0.308  23.343  0.00  0.00    +0.041 A 
ATOM     23  C   UNL     1       0.884  -0.542  22.334  0.00  0.00    +0.018 A 
ATOM     24  C   UNL     1       1.357   1.198  23.885  0.00  0.00    +0.126 A 
ATOM     25  C   UNL     1       2.205  -0.477  21.905  0.00  0.00    +0.068 A 
ATOM     27  C   UNL     1       3.039   0.448  22.512  0.00  0.00    +0.214 A 
BRANCH  27   2
ATOM      2  O   UNL     1       4.346   0.531  22.106  0.00  0.00    -0.480 OA
ATOM     29  C   UNL     1       5.334   0.118  23.043  0.00  0.00    +0.279 C 
ENDBRANCH  27   2
ENDBRANCH  18  22
ENDBRANCH   9  14
BRANCH   4  13
ATOM     13  C   UNL     1      -3.618   3.975  24.805  0.00  0.00    +0.120 C 
BRANCH  13  15
ATOM     15  C   UNL     1      -2.313   3.680  25.497  0.00  0.00    -0.033 A 
ATOM     16  C   UNL     1      -2.313   3.122  26.775  0.00  0.00    +0.007 A 
ATOM     17  C   UNL     1      -1.105   3.965  24.861  0.00  0.00    +0.007 A 
ATOM     19  C   UNL     1      -1.105   2.848  27.417  0.00  0.00    +0.023 A 
ATOM     20  C   UNL     1       0.103   3.692  25.502  0.00  0.00    +0.023 A 
ATOM     21  C   UNL     1       0.103   3.134  26.780  0.00  0.00    +0.033 A 
BRANCH  21   7
ATOM      3  O   UNL     1       0.719   2.726  29.698  0.00  0.00    -0.276 OA
ATOM      7  N   UNL     1       1.311   2.861  27.421  0.00  0.00    -0.286 N 
ATOM     26  C   UNL     1       1.543   2.680  28.791  0.00  0.00    +0.214 C 
ATOM     28  C   UNL     1       2.996   2.400  29.081  0.00  0.00    +0.109 C 
ATOM     30  H   UNL     1       2.121   2.785  26.808  0.00  0.00    +0.155 HD
ENDBRANCH  21   7
ENDBRANCH  13  15
ENDBRANCH   4  13
TORSDOF 6
ENDMDL
MODEL 4
REMARK VINA RESULT:       2.5      2.503      3.112
REMARK  Name = 45783710
REMARK  8 active torsions:
REMARK  status: ('A' for Active; 'I' for Inactive)
REMARK    1  A    between atoms: O_2  and  C_27
REMARK    2  A    between atoms: O_2  and  C_29
REMARK    3  A    between atoms: N_4  and  C_13
REMARK    4  A    between atoms: N_7  and  C_21
REMARK    5  A    between atoms: C_9  and  C_14
REMARK    6  A    between atoms: C_13  and  C_15
REMARK    7  A    between atoms: C_18  and  C_22
REMARK    8  A    between atoms: C_26  and  C_28
REMARK                            x       y       z     vdW  Elec       q    Type
REMARK                         _______ _______ _______ _____ _____    ______ ____
ROOT
ATOM      4  N   UNL     1      -3.173  -0.167  23.861  0.00  0.00    -0.287 NA
ATOM      9  C   UNL     1      -2.065  -0.930  24.471  0.00  0.00    +0.146 C 
ATOM     10  C   UNL     1      -2.507  -2.401  24.381  0.00  0.00    +0.030 C 
ATOM     11  C   UNL     1      -3.898  -2.363  23.764  0.00  0.00    +0.017 C 
ATOM     12  C   UNL     1      -4.384  -0.960  24.070  0.00  0.00    +0.085 C 
ENDROOT
BRANCH   9  14
ATOM      1  O   UNL     1      -0.785  -0.395  22.459  0.00  0.00    -0.336 OA
ATOM      5  N   UNL     1       0.471  -0.683  24.291  0.00  0.00    -0.190 NA
ATOM      6  N   UNL     1       0.543  -0.199  22.056  0.00  0.00    -0.056 NA
ATOM     14  C   UNL     1      -0.738  -0.675  23.787  0.00  0.00    +0.245 A 
ATOM     18  C   UNL     1       1.222  -0.386  23.191  0.00  0.00    +0.204 A 
BRANCH  18  22
ATOM      8  N   UNL     1       4.771  -1.297  23.827  0.00  0.00    -0.221 NA
ATOM     22  C   UNL     1       2.651  -0.282  23.262  0.00  0.00    +0.041 A 
ATOM     23  C   UNL     1       3.305   0.877  22.859  0.00  0.00    +0.018 A 
ATOM     24  C   UNL     1       3.422  -1.331  23.733  0.00  0.00    +0.126 A 
ATOM     25  C   UNL     1       4.691   0.950  22.940  0.00  0.00    +0.068 A 
ATOM     27  C   UNL     1       5.371  -0.155  23.426  0.00  0.00    +0.214 A 
BRANCH  27   2
ATOM      2  O   UNL     1       6.739  -0.107  23.516  0.00  0.00    -0.480 OA
ATOM     29  C   UNL     1       7.469  -0.870  22.562  0.00  0.00    +0.279 C 
ENDBRANCH  27   2
ENDBRANCH  18  22
ENDBRANCH   9  14
BRANCH   4  13
ATOM     13  C   UNL     1      -3.302   1.183  24.394  0.00  0.00    +0.120 C 
BRANCH  13  15
ATOM     15  C   UNL     1      -2.073   1.606  25.154  0.00  0.00    -0.033 A 
ATOM     16  C   UNL     1      -1.621   0.840  26.229  0.00  0.00    +0.007 A 
ATOM     17  C   UNL     1      -1.387   2.763  24.786  0.00  0.00    +0.007 A 
ATOM     19  C   UNL     1      -0.482   1.231  26.934  0.00  0.00    +0.023 A 
ATOM     20  C   UNL     1      -0.249   3.155  25.491  0.00  0.00    +0.023 A 
ATOM     21  C   UNL     1       0.202   2.388  26.565  0.00  0.00    +0.033 A 
BRANCH  21   7
ATOM      3  O   UNL     1       0.782   2.349  29.519  0.00  0.00    -0.276 OA
ATOM      7  N   UNL     1       1.341   2.780  27.270  0.00  0.00    -0.286 N 
ATOM     26  C   UNL     1       1.558   2.742  28.654  0.00  0.00    +0.214 C 
ATOM     28  C   UNL     1       2.927   3.256  29.020  0.00  0.00    +0.109 C 
ATOM     30  H   UNL     1       2.104   3.138  26.699  0.00  0.00    +0.155 HD
ENDBRANCH  21   7
ENDBRANCH  13  15
ENDBRANCH   4  13
TORSDOF 6
ENDMDL
MODEL 5
REMARK VINA RESULT:       3.6      1.764      5.096
REMARK  Name = 45783710
REMARK  8 active torsions:
REMARK  status: ('A' for Active; 'I' for Inactive)
REMARK    1  A    between atoms: O_2  and  C_27
REMARK    2  A    between atoms: O_2  and  C_29
REMARK    3  A    between atoms: N_4  and  C_13
REMARK    4  A    between atoms: N_7  and  C_21
REMARK    5  A    between atoms: C_9  and  C_14
REMARK    6  A    between atoms: C_13  and  C_15
REMARK    7  A    between atoms: C_18  and  C_22
REMARK    8  A    between atoms: C_26  and  C_28
REMARK                            x       y       z     vdW  Elec       q    Type
REMARK                         _______ _______ _______ _____ _____    ______ ____
ROOT
ATOM      4  N   UNL     1      -3.709   3.451  25.923  0.00  0.00    -0.287 NA
ATOM      9  C   UNL     1      -3.247   3.883  24.589  0.00  0.00    +0.146 C 
ATOM     10  C   UNL     1      -2.577   5.248  24.829  0.00  0.00    +0.030 C 
ATOM     11  C   UNL     1      -2.766   5.529  26.313  0.00  0.00    +0.017 C 
ATOM     12  C   UNL     1      -3.959   4.673  26.688  0.00  0.00    +0.085 C 
ENDROOT
BRANCH   9  14
ATOM      1  O   UNL     1      -2.847   2.099  22.967  0.00  0.00    -0.336 OA
ATOM      5  N   UNL     1      -1.050   2.643  24.188  0.00  0.00    -0.190 NA
ATOM      6  N   UNL     1      -1.811   1.264  22.528  0.00  0.00    -0.056 NA
ATOM     14  C   UNL     1      -2.315   2.879  23.943  0.00  0.00    +0.245 A 
ATOM     18  C   UNL     1      -0.786   1.645  23.296  0.00  0.00    +0.204 A 
BRANCH  18  22
ATOM      8  N   UNL     1       2.908   1.255  23.481  0.00  0.00    -0.221 NA
ATOM     22  C   UNL     1       0.516   1.051  23.195  0.00  0.00    +0.041 A 
ATOM     23  C   UNL     1       0.675  -0.251  22.735  0.00  0.00    +0.018 A 
ATOM     24  C   UNL     1       1.654   1.755  23.553  0.00  0.00    +0.126 A 
ATOM     25  C   UNL     1       1.949  -0.801  22.646  0.00  0.00    +0.068 A 
ATOM     27  C   UNL     1       3.023  -0.013  23.029  0.00  0.00    +0.214 A 
BRANCH  27   2
ATOM      2  O   UNL     1       4.289  -0.533  22.951  0.00  0.00    -0.480 OA
ATOM     29  C   UNL     1       5.339   0.254  23.503  0.00  0.00    +0.279 C 
ENDBRANCH  27   2
ENDBRANCH  18  22
ENDBRANCH   9  14
BRANCH   4  13
ATOM     13  C   UNL     1      -4.880   2.586  25.874  0.00  0.00    +0.120 C 
BRANCH  13  15
ATOM     15  C   UNL     1      -4.536   1.203  25.388  0.00  0.00    -0.033 A 
ATOM     16  C   UNL     1      -5.298   0.608  24.383  0.00  0.00    +0.007 A 
ATOM     17  C   UNL     1      -3.454   0.518  25.941  0.00  0.00    +0.007 A 
ATOM     19  C   UNL     1      -4.980  -0.674  23.932  0.00  0.00    +0.023 A 
ATOM     20  C   UNL     1      -3.135  -0.764  25.491  0.00  0.00    +0.023 A 
ATOM     21  C   UNL     1      -3.899  -1.359  24.487  0.00  0.00    +0.033 A 
BRANCH  21   7
ATOM      3  O   UNL     1      -1.222  -2.658  24.022  0.00  0.00    -0.276 OA
ATOM      7  N   UNL     1      -3.580  -2.640  24.036  0.00  0.00    -0.286 N 
ATOM     26  C   UNL     1      -2.309  -3.196  23.836  0.00  0.00    +0.214 C 
ATOM     28  C   UNL     1      -2.392  -4.617  23.339  0.00  0.00    +0.109 C 
ATOM     30  H   UNL     1      -4.377  -3.239  23.830  0.00  0.00    +0.155 HD
ENDBRANCH  21   7
ENDBRANCH  13  15
ENDBRANCH   4  13
TORSDOF 6
ENDMDL
