MODEL 1
REMARK VINA RESULT:      -0.6      0.000      0.000
REMARK  Name = 45361481
REMARK  9 active torsions:
REMARK  status: ('A' for Active; 'I' for Inactive)
REMARK    1  A    between atoms: O_1  and  C_9
REMARK    2  A    between atoms: N_4  and  C_13
REMARK    3  A    between atoms: C_6  and  C_16
REMARK    4  A    between atoms: C_8  and  C_18
REMARK    5  A    between atoms: C_11  and  C_17
REMARK    6  A    between atoms: C_17  and  C_19
REMARK    7  A    between atoms: C_17  and  C_20
REMARK    8  A    between atoms: C_21  and  C_22
REMARK    9  A    between atoms: C_29  and  C_30
REMARK                            x       y       z     vdW  Elec       q    Type
REMARK                         _______ _______ _______ _____ _____    ______ ____
ROOT
ATOM      6  C   UNL     1      -1.719  -1.166  25.248  0.00  0.00    -0.027 C 
ATOM      7  C   UNL     1      -1.719   0.068  24.284  0.00  0.00    +0.028 C 
ATOM      8  C   UNL     1      -0.262   0.615  24.075  0.00  0.00    +0.012 C 
ATOM      9  C   UNL     1      -2.774   1.125  24.722  0.00  0.00    +0.122 C 
ATOM     10  C   UNL     1      -3.149  -1.747  25.342  0.00  0.00    +0.007 C 
ATOM     11  C   UNL     1      -4.182   0.516  24.916  0.00  0.00    +0.029 C 
ATOM     12  C   UNL     1      -0.802  -2.263  24.662  0.00  0.00    +0.009 C 
ATOM     13  C   UNL     1       0.668  -0.518  23.556  0.00  0.00    +0.076 C 
ATOM     14  C   UNL     1      -4.178  -0.725  25.809  0.00  0.00    +0.007 C 
ATOM     15  C   UNL     1       0.621  -1.784  24.411  0.00  0.00    +0.023 C 
ATOM     16  C   UNL     1      -1.233  -0.804  26.674  0.00  0.00    +0.011 C 
ATOM     18  C   UNL     1      -0.186   1.812  23.113  0.00  0.00    +0.010 C 
ENDROOT
BRANCH  13   4
ATOM      3  O   UNL     1       2.272  -0.218  21.150  0.00  0.00    -0.276 OA
ATOM      4  N   UNL     1       2.045  -0.079  23.462  0.00  0.00    -0.312 N 
ATOM     22  C   UNL     1       2.720   0.030  22.263  0.00  0.00    +0.216 C 
ATOM     31  H   UNL     1       2.547   0.099  24.327  0.00  0.00    +0.149 HD
BRANCH  22  21
ATOM     21  C   UNL     1       4.130   0.502  22.402  0.00  0.00    +0.075 C 
ATOM     23  C   UNL     1       4.659   0.830  23.766  0.00  0.00    +0.013 C 
ATOM     24  C   UNL     1       5.140  -0.398  23.052  0.00  0.00    +0.013 C 
ENDBRANCH  22  21
ENDBRANCH  13   4
BRANCH   9   1
ATOM      1  O   UNL     1      -2.897   2.123  23.708  0.00  0.00    -0.391 OA
ATOM     32  H   UNL     1      -3.829   2.398  23.666  0.00  0.00    +0.210 HD
ENDBRANCH   9   1
BRANCH  11  17
ATOM     17  C   UNL     1      -5.175   1.544  25.472  0.00  0.00    +0.078 C 
ATOM     19  C   UNL     1      -6.595   1.012  25.432  0.00  0.00    +0.017 C 
BRANCH  17  20
ATOM      2  O   UNL     1      -5.752   2.917  23.630  0.00  0.00    -0.275 OA
ATOM      5  N   UNL     1      -4.190   3.782  25.117  0.00  0.00    -0.301 N 
ATOM     20  C   UNL     1      -5.071   2.806  24.652  0.00  0.00    +0.219 C 
ATOM     25  C   UNL     1      -4.063   5.050  24.398  0.00  0.00    +0.108 C 
ATOM     26  C   UNL     1      -3.369   3.678  26.328  0.00  0.00    +0.108 C 
ATOM     27  C   UNL     1      -2.606   5.329  24.036  0.00  0.00    +0.022 C 
ATOM     28  C   UNL     1      -1.896   3.929  26.007  0.00  0.00    +0.022 C 
ATOM     29  C   UNL     1      -1.703   5.267  25.277  0.00  0.00    -0.011 C 
ATOM     30  C   UNL     1      -0.239   5.471  24.895  0.00  0.00    +0.007 C 
ENDBRANCH  17  20
ENDBRANCH  11  17
TORSDOF 5
ENDMDL
