MODEL 1
REMARK VINA RESULT:      -4.9      0.000      0.000
REMARK  Name = 7135440
REMARK  14 active torsions:
REMARK  status: ('A' for Active; 'I' for Inactive)
REMARK    1  A    between atoms: O_1  and  C_17
REMARK    2  A    between atoms: O_1  and  C_22
REMARK    3  A    between atoms: O_3  and  C_24
REMARK    4  A    between atoms: O_3  and  C_30
REMARK    5  A    between atoms: O_4  and  C_29
REMARK    6  A    between atoms: O_4  and  C_31
REMARK    7  A    between atoms: N_5  and  C_21
REMARK    8  A    between atoms: C_6  and  C_9
REMARK    9  A    between atoms: C_9  and  C_15
REMARK   10  A    between atoms: C_9  and  C_16
REMARK   11  A    between atoms: C_13  and  C_19
REMARK   12  A    between atoms: C_14  and  C_20
REMARK   13  A    between atoms: C_21  and  C_23
REMARK   14  A    between atoms: C_22  and  C_24
REMARK                            x       y       z     vdW  Elec       q    Type
REMARK                         _______ _______ _______ _____ _____    ______ ____
ROOT
ATOM      6  C   UNL     1      -3.486 -10.141  14.973  0.00  0.00    +0.005 C 
ATOM      7  C   UNL     1      -3.130 -10.781  16.317  0.00  0.00    +0.009 C 
ATOM      8  C   UNL     1      -4.870 -10.626  14.517  0.00  0.00    +0.040 C 
ATOM     10  C   UNL     1      -4.124 -10.353  17.395  0.00  0.00    +0.036 C 
ATOM     11  C   UNL     1      -5.916 -10.560  15.603  0.00  0.00    -0.037 A 
ATOM     12  C   UNL     1      -5.563 -10.471  16.961  0.00  0.00    -0.041 A 
ATOM     13  C   UNL     1      -7.271 -10.646  15.248  0.00  0.00    -0.005 A 
ATOM     14  C   UNL     1      -6.574 -10.434  17.935  0.00  0.00    -0.044 A 
ATOM     17  C   UNL     1      -8.265 -10.618  16.226  0.00  0.00    +0.124 A 
ATOM     18  C   UNL     1      -7.916 -10.510  17.569  0.00  0.00    +0.049 A 
ATOM     19  C   UNL     1      -7.682 -10.781  13.814  0.00  0.00    +0.048 C 
ATOM     20  C   UNL     1      -6.252 -10.303  19.390  0.00  0.00    +0.044 C 
ENDROOT
BRANCH   6   9
ATOM      9  C   UNL     1      -2.430 -10.461  13.918  0.00  0.00    +0.075 C 
ATOM     15  C   UNL     1      -1.208  -9.563  14.097  0.00  0.00    +0.017 C 
BRANCH   9  16
ATOM      2  O   UNL     1      -4.075 -10.781  12.166  0.00  0.00    -0.276 OA
ATOM      5  N   UNL     1      -2.158  -9.569  11.680  0.00  0.00    -0.311 N 
ATOM     16  C   UNL     1      -2.995 -10.304  12.507  0.00  0.00    +0.216 C 
ATOM     32  H   UNL     1      -1.279  -9.210  12.036  0.00  0.00    +0.149 HD
BRANCH   5  21
ATOM     21  C   UNL     1      -2.478  -9.283  10.301  0.00  0.00    +0.139 C 
BRANCH  21  23
ATOM     23  C   UNL     1      -3.954  -9.370  10.037  0.00  0.00    -0.030 A 
ATOM     25  C   UNL     1      -4.772  -8.264  10.271  0.00  0.00    +0.009 A 
ATOM     26  C   UNL     1      -4.507 -10.558   9.558  0.00  0.00    +0.009 A 
ATOM     27  C   UNL     1      -6.142  -8.346  10.025  0.00  0.00    +0.046 A 
ATOM     28  C   UNL     1      -5.878 -10.639   9.312  0.00  0.00    +0.046 A 
ATOM     29  C   UNL     1      -6.695  -9.534   9.546  0.00  0.00    +0.120 A 
BRANCH  29   4
ATOM      4  O   UNL     1      -8.032  -9.613   9.306  0.00  0.00    -0.495 OA
ATOM     31  C   UNL     1      -8.821  -8.472   9.638  0.00  0.00    +0.277 C 
ENDBRANCH  29   4
ENDBRANCH  21  23
ENDBRANCH   5  21
ENDBRANCH   9  16
ENDBRANCH   6   9
BRANCH  17   1
ATOM      1  O   UNL     1      -9.583 -10.697  15.887  0.00  0.00    -0.489 OA
BRANCH   1  22
ATOM     22  C   UNL     1     -10.374  -9.527  16.088  0.00  0.00    +0.257 C 
BRANCH  22  24
ATOM     24  C   UNL     1     -10.220  -8.615  14.885  0.00  0.00    +0.200 C 
BRANCH  24   3
ATOM      3  O   UNL     1      -9.630  -7.391  15.303  0.00  0.00    -0.380 OA
ATOM     30  C   UNL     1     -10.612  -6.388  15.524  0.00  0.00    +0.194 C 
ENDBRANCH  24   3
ENDBRANCH  22  24
ENDBRANCH   1  22
ENDBRANCH  17   1
TORSDOF 9
ENDMDL
MODEL 2
REMARK VINA RESULT:      -1.5      1.472      2.210
REMARK  Name = 7135440
REMARK  14 active torsions:
REMARK  status: ('A' for Active; 'I' for Inactive)
REMARK    1  A    between atoms: O_1  and  C_17
REMARK    2  A    between atoms: O_1  and  C_22
REMARK    3  A    between atoms: O_3  and  C_24
REMARK    4  A    between atoms: O_3  and  C_30
REMARK    5  A    between atoms: O_4  and  C_29
REMARK    6  A    between atoms: O_4  and  C_31
REMARK    7  A    between atoms: N_5  and  C_21
REMARK    8  A    between atoms: C_6  and  C_9
REMARK    9  A    between atoms: C_9  and  C_15
REMARK   10  A    between atoms: C_9  and  C_16
REMARK   11  A    between atoms: C_13  and  C_19
REMARK   12  A    between atoms: C_14  and  C_20
REMARK   13  A    between atoms: C_21  and  C_23
REMARK   14  A    between atoms: C_22  and  C_24
REMARK                            x       y       z     vdW  Elec       q    Type
REMARK                         _______ _______ _______ _____ _____    ______ ____
ROOT
ATOM      6  C   UNL     1      -4.471 -10.205  15.865  0.00  0.00    +0.005 C 
ATOM      7  C   UNL     1      -4.669 -10.781  17.270  0.00  0.00    +0.009 C 
ATOM      8  C   UNL     1      -5.627 -10.646  14.955  0.00  0.00    +0.040 C 
ATOM     10  C   UNL     1      -5.954 -10.240  17.895  0.00  0.00    +0.036 C 
ATOM     11  C   UNL     1      -6.987 -10.464  15.583  0.00  0.00    -0.037 A 
ATOM     12  C   UNL     1      -7.143 -10.312  16.972  0.00  0.00    -0.041 A 
ATOM     13  C   UNL     1      -8.125 -10.503  14.762  0.00  0.00    -0.005 A 
ATOM     14  C   UNL     1      -8.432 -10.167  17.508  0.00  0.00    -0.044 A 
ATOM     17  C   UNL     1      -9.400 -10.368  15.309  0.00  0.00    +0.124 A 
ATOM     18  C   UNL     1      -9.553 -10.197  16.681  0.00  0.00    +0.049 A 
ATOM     19  C   UNL     1      -7.998 -10.702  13.282  0.00  0.00    +0.048 C 
ATOM     20  C   UNL     1      -8.650  -9.966  18.975  0.00  0.00    +0.044 C 
ENDROOT
BRANCH   6   9
ATOM      9  C   UNL     1      -3.129 -10.639  15.280  0.00  0.00    +0.075 C 
ATOM     15  C   UNL     1      -2.008  -9.735  15.787  0.00  0.00    +0.017 C 
BRANCH   9  16
ATOM      2  O   UNL     1      -4.209 -10.710  13.110  0.00  0.00    -0.276 OA
ATOM      5  N   UNL     1      -1.899 -10.506  13.195  0.00  0.00    -0.311 N 
ATOM     16  C   UNL     1      -3.165 -10.626  13.753  0.00  0.00    +0.216 C 
ATOM     32  H   UNL     1      -1.083 -10.443  13.794  0.00  0.00    +0.149 HD
BRANCH   5  21
ATOM     21  C   UNL     1      -1.676 -10.466  11.769  0.00  0.00    +0.139 C 
BRANCH  21  23
ATOM     23  C   UNL     1      -2.891  -9.995  11.023  0.00  0.00    -0.030 A 
ATOM     25  C   UNL     1      -2.867  -8.776  10.346  0.00  0.00    +0.009 A 
ATOM     26  C   UNL     1      -4.046 -10.779  11.006  0.00  0.00    +0.009 A 
ATOM     27  C   UNL     1      -3.995  -8.340   9.653  0.00  0.00    +0.046 A 
ATOM     28  C   UNL     1      -5.175 -10.343  10.312  0.00  0.00    +0.046 A 
ATOM     29  C   UNL     1      -5.150  -9.123   9.637  0.00  0.00    +0.120 A 
BRANCH  29   4
ATOM      4  O   UNL     1      -6.251  -8.697   8.960  0.00  0.00    -0.495 OA
ATOM     31  C   UNL     1      -7.086  -9.700   8.381  0.00  0.00    +0.277 C 
ENDBRANCH  29   4
ENDBRANCH  21  23
ENDBRANCH   5  21
ENDBRANCH   9  16
ENDBRANCH   6   9
BRANCH  17   1
ATOM      1  O   UNL     1     -10.509 -10.401  14.517  0.00  0.00    -0.489 OA
BRANCH   1  22
ATOM     22  C   UNL     1     -10.648  -9.358  13.553  0.00  0.00    +0.257 C 
BRANCH  22  24
ATOM     24  C   UNL     1     -10.179  -9.867  12.204  0.00  0.00    +0.200 C 
BRANCH  24   3
ATOM      3  O   UNL     1     -10.402  -8.860  11.225  0.00  0.00    -0.380 OA
ATOM     30  C   UNL     1     -10.719  -9.424   9.960  0.00  0.00    +0.194 C 
ENDBRANCH  24   3
ENDBRANCH  22  24
ENDBRANCH   1  22
ENDBRANCH  17   1
TORSDOF 9
ENDMDL
