MODEL 1
REMARK VINA RESULT:      -6.9      0.000      0.000
REMARK  Name = 75536567
REMARK  7 active torsions:
REMARK  status: ('A' for Active; 'I' for Inactive)
REMARK    1  A    between atoms: O_2  and  C_9
REMARK    2  A    between atoms: N_4  and  C_17
REMARK    3  A    between atoms: N_5  and  C_10
REMARK    4  A    between atoms: N_5  and  C_19
REMARK    5  A    between atoms: C_8  and  C_17
REMARK    6  A    between atoms: C_11  and  C_18
REMARK    7  A    between atoms: C_19  and  C_20
REMARK                            x       y       z     vdW  Elec       q    Type
REMARK                         _______ _______ _______ _____ _____    ______ ____
ROOT
ATOM      1  O   UNL     1      -3.680   3.912  25.440  0.00  0.00    -0.371 OA
ATOM      8  C   UNL     1      -3.906   2.997  24.355  0.00  0.00    +0.165 C 
ATOM      9  C   UNL     1      -2.537   2.455  23.969  0.00  0.00    +0.164 C 
ATOM     10  C   UNL     1      -1.663   3.672  24.210  0.00  0.00    +0.111 C 
ATOM     14  C   UNL     1      -2.279   4.239  25.477  0.00  0.00    +0.181 C 
ENDROOT
BRANCH   9   2
ATOM      2  O   UNL     1      -2.503   2.016  22.625  0.00  0.00    -0.388 OA
ATOM     25  H   UNL     1      -3.241   1.399  22.486  0.00  0.00    +0.210 HD
ENDBRANCH   9   2
BRANCH  10   5
ATOM      5  N   UNL     1      -0.251   3.355  24.361  0.00  0.00    -0.302 NA
ATOM     24  H   UNL     1       0.166   3.998  25.034  0.00  0.00    +0.123 HD
BRANCH   5  19
ATOM     19  C   UNL     1      -0.068   1.989  24.837  0.00  0.00    +0.156 C 
BRANCH  19  20
ATOM      6  N   UNL     1       2.033   1.378  23.615  0.00  0.00    -0.347 N 
ATOM      7  N   UNL     1       0.244   0.153  23.133  0.00  0.00    -0.240 NA
ATOM     20  C   UNL     1       0.706   1.152  23.854  0.00  0.00    +0.121 A 
ATOM     21  C   UNL     1       2.443   0.466  22.684  0.00  0.00    +0.104 A 
ATOM     22  C   UNL     1       1.322  -0.278  22.403  0.00  0.00    +0.130 A 
ATOM     26  H   UNL     1       2.607   2.089  24.049  0.00  0.00    +0.167 HD
ENDBRANCH  19  20
ENDBRANCH   5  19
ENDBRANCH  10   5
BRANCH   8  17
ATOM     17  C   UNL     1      -4.880   1.915  24.790  0.00  0.00    +0.138 C 
BRANCH  17   4
ATOM      3  O   UNL     1      -4.757  -0.815  23.808  0.00  0.00    -0.276 OA
ATOM      4  N   UNL     1      -4.194   0.805  25.385  0.00  0.00    -0.313 N 
ATOM     18  C   UNL     1      -4.189  -0.475  24.843  0.00  0.00    +0.216 C 
ATOM     23  H   UNL     1      -3.686   0.977  26.248  0.00  0.00    +0.149 HD
BRANCH  18  11
ATOM     11  C   UNL     1      -3.376  -1.440  25.651  0.00  0.00    +0.075 C 
ATOM     12  C   UNL     1      -1.976  -0.872  25.907  0.00  0.00    +0.013 C 
ATOM     13  C   UNL     1      -3.174  -2.748  24.885  0.00  0.00    +0.013 C 
ATOM     15  C   UNL     1      -1.000  -1.914  25.373  0.00  0.00    +0.001 C 
ATOM     16  C   UNL     1      -1.779  -2.632  24.286  0.00  0.00    +0.001 C 
ENDBRANCH  18  11
ENDBRANCH  17   4
ENDBRANCH   8  17
TORSDOF 7
ENDMDL
MODEL 2
REMARK VINA RESULT:      -6.6      2.175      4.678
REMARK  Name = 75536567
REMARK  7 active torsions:
REMARK  status: ('A' for Active; 'I' for Inactive)
REMARK    1  A    between atoms: O_2  and  C_9
REMARK    2  A    between atoms: N_4  and  C_17
REMARK    3  A    between atoms: N_5  and  C_10
REMARK    4  A    between atoms: N_5  and  C_19
REMARK    5  A    between atoms: C_8  and  C_17
REMARK    6  A    between atoms: C_11  and  C_18
REMARK    7  A    between atoms: C_19  and  C_20
REMARK                            x       y       z     vdW  Elec       q    Type
REMARK                         _______ _______ _______ _____ _____    ______ ____
ROOT
ATOM      1  O   UNL     1      -0.197   2.721  23.431  0.00  0.00    -0.371 OA
ATOM      8  C   UNL     1       0.176   1.814  24.481  0.00  0.00    +0.165 C 
ATOM      9  C   UNL     1      -0.779   2.089  25.634  0.00  0.00    +0.164 C 
ATOM     10  C   UNL     1      -0.972   3.588  25.501  0.00  0.00    +0.111 C 
ATOM     14  C   UNL     1      -1.030   3.752  23.992  0.00  0.00    +0.181 C 
ENDROOT
BRANCH   9   2
ATOM      2  O   UNL     1      -0.221   1.719  26.880  0.00  0.00    -0.388 OA
ATOM     25  H   UNL     1      -0.943   1.638  27.526  0.00  0.00    +0.210 HD
ENDBRANCH   9   2
BRANCH  10   5
ATOM      5  N   UNL     1      -2.165   4.084  26.170  0.00  0.00    -0.302 NA
ATOM     24  H   UNL     1      -1.924   4.915  26.711  0.00  0.00    +0.123 HD
BRANCH   5  19
ATOM     19  C   UNL     1      -3.201   4.433  25.205  0.00  0.00    +0.156 C 
BRANCH  19  20
ATOM      6  N   UNL     1      -5.132   3.315  26.344  0.00  0.00    -0.347 N 
ATOM      7  N   UNL     1      -4.726   2.657  24.263  0.00  0.00    -0.240 NA
ATOM     20  C   UNL     1      -4.346   3.457  25.234  0.00  0.00    +0.121 A 
ATOM     21  C   UNL     1      -6.072   2.364  26.063  0.00  0.00    +0.104 A 
ATOM     22  C   UNL     1      -5.801   1.973  24.772  0.00  0.00    +0.130 A 
ATOM     26  H   UNL     1      -5.037   3.820  27.215  0.00  0.00    +0.167 HD
ENDBRANCH  19  20
ENDBRANCH   5  19
ENDBRANCH  10   5
BRANCH   8  17
ATOM     17  C   UNL     1       0.107   0.384  23.973  0.00  0.00    +0.138 C 
BRANCH  17   4
ATOM      3  O   UNL     1      -0.143  -2.057  25.525  0.00  0.00    -0.276 OA
ATOM      4  N   UNL     1      -1.103  -0.261  24.393  0.00  0.00    -0.313 N 
ATOM     18  C   UNL     1      -1.129  -1.435  25.138  0.00  0.00    +0.216 C 
ATOM     23  H   UNL     1      -1.982   0.173  24.127  0.00  0.00    +0.149 HD
BRANCH  18  11
ATOM     11  C   UNL     1      -2.522  -1.880  25.463  0.00  0.00    +0.075 C 
ATOM     12  C   UNL     1      -2.976  -2.964  24.478  0.00  0.00    +0.013 C 
ATOM     13  C   UNL     1      -3.508  -0.722  25.310  0.00  0.00    +0.013 C 
ATOM     15  C   UNL     1      -4.269  -2.445  23.857  0.00  0.00    +0.001 C 
ATOM     16  C   UNL     1      -4.144  -0.936  23.944  0.00  0.00    +0.001 C 
ENDBRANCH  18  11
ENDBRANCH  17   4
ENDBRANCH   8  17
TORSDOF 7
ENDMDL
MODEL 3
REMARK VINA RESULT:      -6.3      1.715      4.315
REMARK  Name = 75536567
REMARK  7 active torsions:
REMARK  status: ('A' for Active; 'I' for Inactive)
REMARK    1  A    between atoms: O_2  and  C_9
REMARK    2  A    between atoms: N_4  and  C_17
REMARK    3  A    between atoms: N_5  and  C_10
REMARK    4  A    between atoms: N_5  and  C_19
REMARK    5  A    between atoms: C_8  and  C_17
REMARK    6  A    between atoms: C_11  and  C_18
REMARK    7  A    between atoms: C_19  and  C_20
REMARK                            x       y       z     vdW  Elec       q    Type
REMARK                         _______ _______ _______ _____ _____    ______ ____
ROOT
ATOM      1  O   UNL     1      -3.101  -2.331  24.495  0.00  0.00    -0.371 OA
ATOM      8  C   UNL     1      -3.301  -1.029  25.069  0.00  0.00    +0.165 C 
ATOM      9  C   UNL     1      -1.983  -0.288  24.902  0.00  0.00    +0.164 C 
ATOM     10  C   UNL     1      -0.987  -1.419  25.078  0.00  0.00    +0.111 C 
ATOM     14  C   UNL     1      -1.686  -2.553  24.347  0.00  0.00    +0.181 C 
ENDROOT
BRANCH   9   2
ATOM      2  O   UNL     1      -1.825   0.733  25.868  0.00  0.00    -0.388 OA
ATOM     25  H   UNL     1      -1.058   1.275  25.618  0.00  0.00    +0.210 HD
ENDBRANCH   9   2
BRANCH  10   5
ATOM      5  N   UNL     1       0.331  -1.126  24.538  0.00  0.00    -0.302 NA
ATOM     24  H   UNL     1       0.733  -1.982  24.154  0.00  0.00    +0.123 HD
BRANCH   5  19
ATOM     19  C   UNL     1       0.254  -0.125  23.480  0.00  0.00    +0.156 C 
BRANCH  19  20
ATOM      6  N   UNL     1       2.418   1.138  23.473  0.00  0.00    -0.347 N 
ATOM      7  N   UNL     1       2.169  -0.361  21.854  0.00  0.00    -0.240 NA
ATOM     20  C   UNL     1       1.609   0.191  22.908  0.00  0.00    +0.121 A 
ATOM     21  C   UNL     1       3.565   1.194  22.732  0.00  0.00    +0.104 A 
ATOM     22  C   UNL     1       3.387   0.259  21.740  0.00  0.00    +0.130 A 
ATOM     26  H   UNL     1       2.207   1.697  24.290  0.00  0.00    +0.167 HD
ENDBRANCH  19  20
ENDBRANCH   5  19
ENDBRANCH  10   5
BRANCH   8  17
ATOM     17  C   UNL     1      -4.469  -0.340  24.383  0.00  0.00    +0.138 C 
BRANCH  17   4
ATOM      3  O   UNL     1      -5.929   1.719  25.817  0.00  0.00    -0.276 OA
ATOM      4  N   UNL     1      -4.269   1.078  24.313  0.00  0.00    -0.313 N 
ATOM     18  C   UNL     1      -5.019   1.996  25.039  0.00  0.00    +0.216 C 
ATOM     23  H   UNL     1      -3.536   1.418  23.697  0.00  0.00    +0.149 HD
BRANCH  18  11
ATOM     11  C   UNL     1      -4.588   3.411  24.799  0.00  0.00    +0.075 C 
ATOM     12  C   UNL     1      -3.297   3.440  23.973  0.00  0.00    +0.013 C 
ATOM     13  C   UNL     1      -4.266   4.108  26.121  0.00  0.00    +0.013 C 
ATOM     15  C   UNL     1      -2.295   4.241  24.797  0.00  0.00    +0.001 C 
ATOM     16  C   UNL     1      -2.749   4.044  26.231  0.00  0.00    +0.001 C 
ENDBRANCH  18  11
ENDBRANCH  17   4
ENDBRANCH   8  17
TORSDOF 7
ENDMDL
MODEL 4
REMARK VINA RESULT:      -6.2      2.025      4.448
REMARK  Name = 75536567
REMARK  7 active torsions:
REMARK  status: ('A' for Active; 'I' for Inactive)
REMARK    1  A    between atoms: O_2  and  C_9
REMARK    2  A    between atoms: N_4  and  C_17
REMARK    3  A    between atoms: N_5  and  C_10
REMARK    4  A    between atoms: N_5  and  C_19
REMARK    5  A    between atoms: C_8  and  C_17
REMARK    6  A    between atoms: C_11  and  C_18
REMARK    7  A    between atoms: C_19  and  C_20
REMARK                            x       y       z     vdW  Elec       q    Type
REMARK                         _______ _______ _______ _____ _____    ______ ____
ROOT
ATOM      1  O   UNL     1      -1.729  -1.934  24.231  0.00  0.00    -0.371 OA
ATOM      8  C   UNL     1      -1.932  -0.999  25.303  0.00  0.00    +0.165 C 
ATOM      9  C   UNL     1      -1.071   0.212  24.973  0.00  0.00    +0.164 C 
ATOM     10  C   UNL     1       0.123  -0.449  24.311  0.00  0.00    +0.111 C 
ATOM     14  C   UNL     1      -0.551  -1.545  23.502  0.00  0.00    +0.181 C 
ENDROOT
BRANCH   9   2
ATOM      2  O   UNL     1      -0.718   0.940  26.133  0.00  0.00    -0.388 OA
ATOM     25  H   UNL     1      -1.428   1.576  26.323  0.00  0.00    +0.210 HD
ENDBRANCH   9   2
BRANCH  10   5
ATOM      5  N   UNL     1       0.911   0.457  23.490  0.00  0.00    -0.302 NA
ATOM     24  H   UNL     1       1.460   1.065  24.097  0.00  0.00    +0.123 HD
BRANCH   5  19
ATOM     19  C   UNL     1       1.816  -0.280  22.615  0.00  0.00    +0.156 C 
BRANCH  19  20
ATOM      6  N   UNL     1       3.917  -1.208  23.616  0.00  0.00    -0.347 N 
ATOM      7  N   UNL     1       4.008   0.917  22.977  0.00  0.00    -0.240 NA
ATOM     20  C   UNL     1       3.249  -0.154  23.058  0.00  0.00    +0.121 A 
ATOM     21  C   UNL     1       5.182  -0.783  23.909  0.00  0.00    +0.104 A 
ATOM     22  C   UNL     1       5.214   0.531  23.506  0.00  0.00    +0.130 A 
ATOM     26  H   UNL     1       3.545  -2.134  23.781  0.00  0.00    +0.167 HD
ENDBRANCH  19  20
ENDBRANCH   5  19
ENDBRANCH  10   5
BRANCH   8  17
ATOM     17  C   UNL     1      -3.410  -0.670  25.424  0.00  0.00    +0.138 C 
BRANCH  17   4
ATOM      3  O   UNL     1      -5.826   0.879  25.865  0.00  0.00    -0.276 OA
ATOM      4  N   UNL     1      -3.688   0.661  24.966  0.00  0.00    -0.313 N 
ATOM     18  C   UNL     1      -4.879   1.329  25.226  0.00  0.00    +0.216 C 
ATOM     23  H   UNL     1      -2.967   1.130  24.426  0.00  0.00    +0.149 HD
BRANCH  18  11
ATOM     11  C   UNL     1      -4.898   2.715  24.654  0.00  0.00    +0.075 C 
ATOM     12  C   UNL     1      -3.646   2.956  23.804  0.00  0.00    +0.013 C 
ATOM     13  C   UNL     1      -4.865   3.759  25.771  0.00  0.00    +0.013 C 
ATOM     15  C   UNL     1      -2.978   4.195  24.390  0.00  0.00    +0.001 C 
ATOM     16  C   UNL     1      -3.410   4.198  25.845  0.00  0.00    +0.001 C 
ENDBRANCH  18  11
ENDBRANCH  17   4
ENDBRANCH   8  17
TORSDOF 7
ENDMDL
MODEL 5
REMARK VINA RESULT:      -5.1      1.793      4.526
REMARK  Name = 75536567
REMARK  7 active torsions:
REMARK  status: ('A' for Active; 'I' for Inactive)
REMARK    1  A    between atoms: O_2  and  C_9
REMARK    2  A    between atoms: N_4  and  C_17
REMARK    3  A    between atoms: N_5  and  C_10
REMARK    4  A    between atoms: N_5  and  C_19
REMARK    5  A    between atoms: C_8  and  C_17
REMARK    6  A    between atoms: C_11  and  C_18
REMARK    7  A    between atoms: C_19  and  C_20
REMARK                            x       y       z     vdW  Elec       q    Type
REMARK                         _______ _______ _______ _____ _____    ______ ____
ROOT
ATOM      1  O   UNL     1      -2.985  -2.657  24.388  0.00  0.00    -0.371 OA
ATOM      8  C   UNL     1      -3.433  -1.484  25.085  0.00  0.00    +0.165 C 
ATOM      9  C   UNL     1      -2.277  -0.495  25.033  0.00  0.00    +0.164 C 
ATOM     10  C   UNL     1      -1.087  -1.432  25.122  0.00  0.00    +0.111 C 
ATOM     14  C   UNL     1      -1.553  -2.593  24.259  0.00  0.00    +0.181 C 
ENDROOT
BRANCH   9   2
ATOM      2  O   UNL     1      -2.325   0.430  26.102  0.00  0.00    -0.388 OA
ATOM     25  H   UNL     1      -1.416   0.707  26.307  0.00  0.00    +0.210 HD
ENDBRANCH   9   2
BRANCH  10   5
ATOM      5  N   UNL     1       0.157  -0.842  24.652  0.00  0.00    -0.302 NA
ATOM     24  H   UNL     1       0.698  -1.552  24.158  0.00  0.00    +0.123 HD
BRANCH   5  19
ATOM     19  C   UNL     1      -0.100   0.272  23.746  0.00  0.00    +0.156 C 
BRANCH  19  20
ATOM      6  N   UNL     1       0.205   1.680  25.796  0.00  0.00    -0.347 N 
ATOM      7  N   UNL     1      -0.045   2.791  23.889  0.00  0.00    -0.240 NA
ATOM     20  C   UNL     1       0.016   1.600  24.444  0.00  0.00    +0.121 A 
ATOM     21  C   UNL     1       0.268   3.005  26.124  0.00  0.00    +0.104 A 
ATOM     22  C   UNL     1       0.112   3.670  24.930  0.00  0.00    +0.130 A 
ATOM     26  H   UNL     1       0.283   0.902  26.438  0.00  0.00    +0.167 HD
ENDBRANCH  19  20
ENDBRANCH   5  19
ENDBRANCH  10   5
BRANCH   8  17
ATOM     17  C   UNL     1      -4.704  -0.957  24.440  0.00  0.00    +0.138 C 
BRANCH  17   4
ATOM      3  O   UNL     1      -6.174   1.088  25.883  0.00  0.00    -0.276 OA
ATOM      4  N   UNL     1      -4.640   0.462  24.245  0.00  0.00    -0.313 N 
ATOM     18  C   UNL     1      -5.384   1.373  24.987  0.00  0.00    +0.216 C 
ATOM     23  H   UNL     1      -4.013   0.809  23.525  0.00  0.00    +0.149 HD
BRANCH  18  11
ATOM     11  C   UNL     1      -5.110   2.794  24.597  0.00  0.00    +0.075 C 
ATOM     12  C   UNL     1      -3.786   2.888  23.832  0.00  0.00    +0.013 C 
ATOM     13  C   UNL     1      -4.950   3.672  25.839  0.00  0.00    +0.013 C 
ATOM     15  C   UNL     1      -2.935   3.897  24.596  0.00  0.00    +0.001 C 
ATOM     16  C   UNL     1      -3.446   3.810  26.022  0.00  0.00    +0.001 C 
ENDBRANCH  18  11
ENDBRANCH  17   4
ENDBRANCH   8  17
TORSDOF 7
ENDMDL
MODEL 6
REMARK VINA RESULT:      -4.4      2.199      4.679
REMARK  Name = 75536567
REMARK  7 active torsions:
REMARK  status: ('A' for Active; 'I' for Inactive)
REMARK    1  A    between atoms: O_2  and  C_9
REMARK    2  A    between atoms: N_4  and  C_17
REMARK    3  A    between atoms: N_5  and  C_10
REMARK    4  A    between atoms: N_5  and  C_19
REMARK    5  A    between atoms: C_8  and  C_17
REMARK    6  A    between atoms: C_11  and  C_18
REMARK    7  A    between atoms: C_19  and  C_20
REMARK                            x       y       z     vdW  Elec       q    Type
REMARK                         _______ _______ _______ _____ _____    ______ ____
ROOT
ATOM      1  O   UNL     1      -3.425   3.851  23.615  0.00  0.00    -0.371 OA
ATOM      8  C   UNL     1      -3.626   4.234  24.985  0.00  0.00    +0.165 C 
ATOM      9  C   UNL     1      -4.302   3.049  25.659  0.00  0.00    +0.164 C 
ATOM     10  C   UNL     1      -5.173   2.529  24.530  0.00  0.00    +0.111 C 
ATOM     14  C   UNL     1      -4.253   2.708  23.334  0.00  0.00    +0.181 C 
ENDROOT
BRANCH   9   2
ATOM      2  O   UNL     1      -5.054   3.444  26.790  0.00  0.00    -0.388 OA
ATOM     25  H   UNL     1      -4.461   3.908  27.404  0.00  0.00    +0.210 HD
ENDBRANCH   9   2
BRANCH  10   5
ATOM      5  N   UNL     1      -5.603   1.151  24.712  0.00  0.00    -0.302 NA
ATOM     24  H   UNL     1      -5.613   0.682  23.806  0.00  0.00    +0.123 HD
BRANCH   5  19
ATOM     19  C   UNL     1      -4.701   0.434  25.606  0.00  0.00    +0.156 C 
BRANCH  19  20
ATOM      6  N   UNL     1      -3.497  -1.760  25.735  0.00  0.00    -0.347 N 
ATOM      7  N   UNL     1      -4.497  -1.319  23.802  0.00  0.00    -0.240 NA
ATOM     20  C   UNL     1      -4.249  -0.874  25.014  0.00  0.00    +0.121 A 
ATOM     21  C   UNL     1      -3.249  -2.837  24.931  0.00  0.00    +0.104 A 
ATOM     22  C   UNL     1      -3.877  -2.541  23.744  0.00  0.00    +0.130 A 
ATOM     26  H   UNL     1      -3.181  -1.641  26.688  0.00  0.00    +0.167 HD
ENDBRANCH  19  20
ENDBRANCH   5  19
ENDBRANCH  10   5
BRANCH   8  17
ATOM     17  C   UNL     1      -2.294   4.603  25.615  0.00  0.00    +0.138 C 
BRANCH  17   4
ATOM      3  O   UNL     1      -0.248   3.815  23.711  0.00  0.00    -0.276 OA
ATOM      4  N   UNL     1      -1.421   3.467  25.693  0.00  0.00    -0.313 N 
ATOM     18  C   UNL     1      -0.466   3.165  24.730  0.00  0.00    +0.216 C 
ATOM     23  H   UNL     1      -1.516   2.859  26.502  0.00  0.00    +0.149 HD
BRANCH  18  11
ATOM     11  C   UNL     1       0.326   1.939  25.069  0.00  0.00    +0.075 C 
ATOM     12  C   UNL     1       1.057   1.418  23.826  0.00  0.00    +0.013 C 
ATOM     13  C   UNL     1      -0.598   0.809  25.526  0.00  0.00    +0.013 C 
ATOM     15  C   UNL     1       0.613  -0.031  23.659  0.00  0.00    +0.001 C 
ATOM     16  C   UNL     1      -0.763  -0.074  24.298  0.00  0.00    +0.001 C 
ENDBRANCH  18  11
ENDBRANCH  17   4
ENDBRANCH   8  17
TORSDOF 7
ENDMDL
MODEL 7
REMARK VINA RESULT:      -4.1      1.702      5.347
REMARK  Name = 75536567
REMARK  7 active torsions:
REMARK  status: ('A' for Active; 'I' for Inactive)
REMARK    1  A    between atoms: O_2  and  C_9
REMARK    2  A    between atoms: N_4  and  C_17
REMARK    3  A    between atoms: N_5  and  C_10
REMARK    4  A    between atoms: N_5  and  C_19
REMARK    5  A    between atoms: C_8  and  C_17
REMARK    6  A    between atoms: C_11  and  C_18
REMARK    7  A    between atoms: C_19  and  C_20
REMARK                            x       y       z     vdW  Elec       q    Type
REMARK                         _______ _______ _______ _____ _____    ______ ____
ROOT
ATOM      1  O   UNL     1      -1.131   1.925  22.960  0.00  0.00    -0.371 OA
ATOM      8  C   UNL     1      -0.933   2.634  24.194  0.00  0.00    +0.165 C 
ATOM      9  C   UNL     1      -2.257   2.556  24.941  0.00  0.00    +0.164 C 
ATOM     10  C   UNL     1      -3.245   2.617  23.791  0.00  0.00    +0.111 C 
ATOM     14  C   UNL     1      -2.545   1.764  22.747  0.00  0.00    +0.181 C 
ENDROOT
BRANCH   9   2
ATOM      2  O   UNL     1      -2.412   3.627  25.852  0.00  0.00    -0.388 OA
ATOM     25  H   UNL     1      -1.854   3.452  26.628  0.00  0.00    +0.210 HD
ENDBRANCH   9   2
BRANCH  10   5
ATOM      5  N   UNL     1      -4.569   2.120  24.133  0.00  0.00    -0.302 NA
ATOM     24  H   UNL     1      -4.933   1.576  23.351  0.00  0.00    +0.123 HD
BRANCH   5  19
ATOM     19  C   UNL     1      -4.521   1.271  25.318  0.00  0.00    +0.156 C 
BRANCH  19  20
ATOM      6  N   UNL     1      -3.477  -0.954  25.808  0.00  0.00    -0.347 N 
ATOM      7  N   UNL     1      -4.571  -0.803  23.882  0.00  0.00    -0.240 NA
ATOM     20  C   UNL     1      -4.209  -0.159  24.969  0.00  0.00    +0.121 A 
ATOM     21  C   UNL     1      -3.365  -2.181  25.217  0.00  0.00    +0.104 A 
ATOM     22  C   UNL     1      -4.049  -2.063  24.030  0.00  0.00    +0.130 A 
ATOM     26  H   UNL     1      -3.088  -0.684  26.702  0.00  0.00    +0.167 HD
ENDBRANCH  19  20
ENDBRANCH   5  19
ENDBRANCH  10   5
BRANCH   8  17
ATOM     17  C   UNL     1       0.226   2.018  24.960  0.00  0.00    +0.138 C 
BRANCH  17   4
ATOM      3  O   UNL     1       0.540  -0.650  23.860  0.00  0.00    -0.276 OA
ATOM      4  N   UNL     1       1.253   1.558  24.071  0.00  0.00    -0.313 N 
ATOM     18  C   UNL     1       1.326   0.255  23.591  0.00  0.00    +0.216 C 
ATOM     23  H   UNL     1       1.957   2.230  23.781  0.00  0.00    +0.149 HD
BRANCH  18  11
ATOM     11  C   UNL     1       2.481   0.047  22.660  0.00  0.00    +0.075 C 
ATOM     12  C   UNL     1       3.347  -1.123  23.141  0.00  0.00    +0.013 C 
ATOM     13  C   UNL     1       3.392   1.276  22.649  0.00  0.00    +0.013 C 
ATOM     15  C   UNL     1       4.756  -0.562  23.295  0.00  0.00    +0.001 C 
ATOM     16  C   UNL     1       4.541   0.913  23.579  0.00  0.00    +0.001 C 
ENDBRANCH  18  11
ENDBRANCH  17   4
ENDBRANCH   8  17
TORSDOF 7
ENDMDL
MODEL 8
REMARK VINA RESULT:      -3.5     15.401     18.034
REMARK  Name = 75536567
REMARK  7 active torsions:
REMARK  status: ('A' for Active; 'I' for Inactive)
REMARK    1  A    between atoms: O_2  and  C_9
REMARK    2  A    between atoms: N_4  and  C_17
REMARK    3  A    between atoms: N_5  and  C_10
REMARK    4  A    between atoms: N_5  and  C_19
REMARK    5  A    between atoms: C_8  and  C_17
REMARK    6  A    between atoms: C_11  and  C_18
REMARK    7  A    between atoms: C_19  and  C_20
REMARK                            x       y       z     vdW  Elec       q    Type
REMARK                         _______ _______ _______ _____ _____    ______ ____
ROOT
ATOM      1  O   UNL     1      11.009   7.627  21.983  0.00  0.00    -0.371 OA
ATOM      8  C   UNL     1      11.861   6.694  21.299  0.00  0.00    +0.165 C 
ATOM      9  C   UNL     1      12.176   7.322  19.949  0.00  0.00    +0.164 C 
ATOM     10  C   UNL     1      10.871   8.035  19.647  0.00  0.00    +0.111 C 
ATOM     14  C   UNL     1      10.493   8.565  21.020  0.00  0.00    +0.181 C 
ENDROOT
BRANCH   9   2
ATOM      2  O   UNL     1      12.503   6.347  18.977  0.00  0.00    -0.388 OA
ATOM     25  H   UNL     1      13.452   6.154  19.046  0.00  0.00    +0.210 HD
ENDBRANCH   9   2
BRANCH  10   5
ATOM      5  N   UNL     1      10.998   9.087  18.651  0.00  0.00    -0.302 NA
ATOM     24  H   UNL     1      11.884   9.574  18.790  0.00  0.00    +0.123 HD
BRANCH   5  19
ATOM     19  C   UNL     1      10.969   8.537  17.300  0.00  0.00    +0.156 C 
BRANCH  19  20
ATOM      6  N   UNL     1      13.447   8.906  17.255  0.00  0.00    -0.347 N 
ATOM      7  N   UNL     1      12.444   8.843  15.276  0.00  0.00    -0.240 NA
ATOM     20  C   UNL     1      12.269   8.761  16.576  0.00  0.00    +0.121 A 
ATOM     21  C   UNL     1      14.434   9.094  16.330  0.00  0.00    +0.104 A 
ATOM     22  C   UNL     1      13.790   9.050  15.116  0.00  0.00    +0.130 A 
ATOM     26  H   UNL     1      13.567   8.880  18.260  0.00  0.00    +0.167 HD
ENDBRANCH  19  20
ENDBRANCH   5  19
ENDBRANCH  10   5
BRANCH   8  17
ATOM     17  C   UNL     1      13.098   6.419  22.137  0.00  0.00    +0.138 C 
BRANCH  17   4
ATOM      3  O   UNL     1      14.765   8.781  22.402  0.00  0.00    -0.276 OA
ATOM      4  N   UNL     1      14.297   6.725  21.412  0.00  0.00    -0.313 N 
ATOM     18  C   UNL     1      15.036   7.887  21.605  0.00  0.00    +0.216 C 
ATOM     23  H   UNL     1      14.615   6.048  20.725  0.00  0.00    +0.149 HD
BRANCH  18  11
ATOM     11  C   UNL     1      16.256   7.945  20.737  0.00  0.00    +0.075 C 
ATOM     12  C   UNL     1      15.926   7.450  19.324  0.00  0.00    +0.013 C 
ATOM     13  C   UNL     1      17.344   7.015  21.273  0.00  0.00    +0.013 C 
ATOM     15  C   UNL     1      16.903   6.312  19.044  0.00  0.00    +0.001 C 
ATOM     16  C   UNL     1      17.236   5.761  20.418  0.00  0.00    +0.001 C 
ENDBRANCH  18  11
ENDBRANCH  17   4
ENDBRANCH   8  17
TORSDOF 7
ENDMDL
MODEL 9
REMARK VINA RESULT:      -3.4      1.870      4.506
REMARK  Name = 75536567
REMARK  7 active torsions:
REMARK  status: ('A' for Active; 'I' for Inactive)
REMARK    1  A    between atoms: O_2  and  C_9
REMARK    2  A    between atoms: N_4  and  C_17
REMARK    3  A    between atoms: N_5  and  C_10
REMARK    4  A    between atoms: N_5  and  C_19
REMARK    5  A    between atoms: C_8  and  C_17
REMARK    6  A    between atoms: C_11  and  C_18
REMARK    7  A    between atoms: C_19  and  C_20
REMARK                            x       y       z     vdW  Elec       q    Type
REMARK                         _______ _______ _______ _____ _____    ______ ____
ROOT
ATOM      1  O   UNL     1      -1.015  -1.647  24.463  0.00  0.00    -0.371 OA
ATOM      8  C   UNL     1      -1.301  -0.962  25.694  0.00  0.00    +0.165 C 
ATOM      9  C   UNL     1      -0.896   0.489  25.472  0.00  0.00    +0.164 C 
ATOM     10  C   UNL     1       0.312   0.320  24.569  0.00  0.00    +0.111 C 
ATOM     14  C   UNL     1      -0.139  -0.822  23.674  0.00  0.00    +0.181 C 
ENDROOT
BRANCH   9   2
ATOM      2  O   UNL     1      -0.582   1.140  26.688  0.00  0.00    -0.388 OA
ATOM     25  H   UNL     1      -1.020   0.663  27.413  0.00  0.00    +0.210 HD
ENDBRANCH   9   2
BRANCH  10   5
ATOM      5  N   UNL     1       0.655   1.522  23.825  0.00  0.00    -0.302 NA
ATOM     24  H   UNL     1       1.235   1.265  23.026  0.00  0.00    +0.123 HD
BRANCH   5  19
ATOM     19  C   UNL     1      -0.543   2.198  23.340  0.00  0.00    +0.156 C 
BRANCH  19  20
ATOM      6  N   UNL     1      -1.659   3.544  25.135  0.00  0.00    -0.347 N 
ATOM      7  N   UNL     1      -0.258   4.659  23.822  0.00  0.00    -0.240 NA
ATOM     20  C   UNL     1      -0.795   3.486  24.076  0.00  0.00    +0.121 A 
ATOM     21  C   UNL     1      -1.674   4.834  25.583  0.00  0.00    +0.104 A 
ATOM     22  C   UNL     1      -0.801   5.503  24.757  0.00  0.00    +0.130 A 
ATOM     26  H   UNL     1      -2.191   2.773  25.517  0.00  0.00    +0.167 HD
ENDBRANCH  19  20
ENDBRANCH   5  19
ENDBRANCH  10   5
BRANCH   8  17
ATOM     17  C   UNL     1      -2.769  -1.129  26.045  0.00  0.00    +0.138 C 
BRANCH  17   4
ATOM      3  O   UNL     1      -4.714  -1.155  23.890  0.00  0.00    -0.276 OA
ATOM      4  N   UNL     1      -3.550  -0.027  25.562  0.00  0.00    -0.313 N 
ATOM     18  C   UNL     1      -4.462  -0.131  24.519  0.00  0.00    +0.216 C 
ATOM     23  H   UNL     1      -3.420   0.873  26.016  0.00  0.00    +0.149 HD
BRANCH  18  11
ATOM     11  C   UNL     1      -5.160   1.164  24.232  0.00  0.00    +0.075 C 
ATOM     12  C   UNL     1      -4.259   2.347  24.605  0.00  0.00    +0.013 C 
ATOM     13  C   UNL     1      -6.419   1.300  25.088  0.00  0.00    +0.013 C 
ATOM     15  C   UNL     1      -5.063   3.188  25.590  0.00  0.00    +0.001 C 
ATOM     16  C   UNL     1      -6.004   2.195  26.246  0.00  0.00    +0.001 C 
ENDBRANCH  18  11
ENDBRANCH  17   4
ENDBRANCH   8  17
TORSDOF 7
ENDMDL
MODEL 10
REMARK VINA RESULT:      -3.4      2.160      5.692
REMARK  Name = 75536567
REMARK  7 active torsions:
REMARK  status: ('A' for Active; 'I' for Inactive)
REMARK    1  A    between atoms: O_2  and  C_9
REMARK    2  A    between atoms: N_4  and  C_17
REMARK    3  A    between atoms: N_5  and  C_10
REMARK    4  A    between atoms: N_5  and  C_19
REMARK    5  A    between atoms: C_8  and  C_17
REMARK    6  A    between atoms: C_11  and  C_18
REMARK    7  A    between atoms: C_19  and  C_20
REMARK                            x       y       z     vdW  Elec       q    Type
REMARK                         _______ _______ _______ _____ _____    ______ ____
ROOT
ATOM      1  O   UNL     1       0.030   2.682  25.604  0.00  0.00    -0.371 OA
ATOM      8  C   UNL     1       0.232   1.733  24.544  0.00  0.00    +0.165 C 
ATOM      9  C   UNL     1      -1.142   1.477  23.941  0.00  0.00    +0.164 C 
ATOM     10  C   UNL     1      -2.023   1.569  25.172  0.00  0.00    +0.111 C 
ATOM     14  C   UNL     1      -1.373   2.719  25.922  0.00  0.00    +0.181 C 
ENDROOT
BRANCH   9   2
ATOM      2  O   UNL     1      -1.214   0.212  23.311  0.00  0.00    -0.388 OA
ATOM     25  H   UNL     1      -2.104  -0.151  23.455  0.00  0.00    +0.210 HD
ENDBRANCH   9   2
BRANCH  10   5
ATOM      5  N   UNL     1      -3.425   1.811  24.869  0.00  0.00    -0.302 NA
ATOM     24  H   UNL     1      -3.571   1.717  23.864  0.00  0.00    +0.123 HD
BRANCH   5  19
ATOM     19  C   UNL     1      -4.284   0.858  25.563  0.00  0.00    +0.156 C 
BRANCH  19  20
ATOM      6  N   UNL     1      -4.246  -1.002  23.884  0.00  0.00    -0.347 N 
ATOM      7  N   UNL     1      -3.487  -1.511  25.907  0.00  0.00    -0.240 NA
ATOM     20  C   UNL     1      -3.993  -0.560  25.153  0.00  0.00    +0.121 A 
ATOM     21  C   UNL     1      -3.880  -2.317  23.826  0.00  0.00    +0.104 A 
ATOM     22  C   UNL     1      -3.414  -2.608  25.087  0.00  0.00    +0.130 A 
ATOM     26  H   UNL     1      -4.634  -0.456  23.125  0.00  0.00    +0.167 HD
ENDBRANCH  19  20
ENDBRANCH   5  19
ENDBRANCH  10   5
BRANCH   8  17
ATOM     17  C   UNL     1       1.233   2.287  23.544  0.00  0.00    +0.138 C 
BRANCH  17   4
ATOM      3  O   UNL     1       1.254  -0.181  22.015  0.00  0.00    -0.276 OA
ATOM      4  N   UNL     1       2.334   1.388  23.356  0.00  0.00    -0.313 N 
ATOM     18  C   UNL     1       2.254   0.222  22.604  0.00  0.00    +0.216 C 
ATOM     23  H   UNL     1       3.216   1.628  23.801  0.00  0.00    +0.149 HD
BRANCH  18  11
ATOM     11  C   UNL     1       3.555  -0.521  22.550  0.00  0.00    +0.075 C 
ATOM     12  C   UNL     1       3.802  -1.255  23.873  0.00  0.00    +0.013 C 
ATOM     13  C   UNL     1       4.723   0.451  22.375  0.00  0.00    +0.013 C 
ATOM     15  C   UNL     1       5.155  -0.763  24.375  0.00  0.00    +0.001 C 
ATOM     16  C   UNL     1       5.292   0.625  23.776  0.00  0.00    +0.001 C 
ENDBRANCH  18  11
ENDBRANCH  17   4
ENDBRANCH   8  17
TORSDOF 7
ENDMDL
