MODEL 1
REMARK VINA RESULT:      -5.1      0.000      0.000
REMARK  Name = 38027340
REMARK  12 active torsions:
REMARK  status: ('A' for Active; 'I' for Inactive)
REMARK    1  A    between atoms: O_3  and  C_25
REMARK    2  A    between atoms: O_3  and  C_26
REMARK    3  A    between atoms: N_4  and  C_15
REMARK    4  A    between atoms: N_5  and  C_14
REMARK    5  A    between atoms: C_6  and  C_10
REMARK    6  A    between atoms: C_7  and  C_14
REMARK    7  A    between atoms: C_9  and  C_13
REMARK    8  A    between atoms: C_10  and  C_16
REMARK    9  A    between atoms: C_10  and  C_17
REMARK   10  A    between atoms: C_11  and  C_20
REMARK   11  A    between atoms: C_13  and  C_21
REMARK   12  A    between atoms: C_24  and  C_25
REMARK                            x       y       z     vdW  Elec       q    Type
REMARK                         _______ _______ _______ _____ _____    ______ ____
ROOT
ATOM      6  C   UNL     1      -2.353  -1.330  24.363  0.00  0.00    +0.000 C 
ATOM      7  C   UNL     1      -2.976  -0.571  25.561  0.00  0.00    +0.032 C 
ATOM      8  C   UNL     1      -0.839  -1.497  24.563  0.00  0.00    +0.012 C 
ATOM      9  C   UNL     1      -0.118  -0.143  24.713  0.00  0.00    +0.023 C 
ATOM     11  C   UNL     1      -0.833   0.771  25.687  0.00  0.00    -0.073 C 
ATOM     12  C   UNL     1      -2.106   0.557  26.065  0.00  0.00    -0.022 C 
ATOM     20  C   UNL     1      -0.037   1.913  26.254  0.00  0.00    +0.039 C 
ENDROOT
BRANCH   6  10
ATOM     10  C   UNL     1      -3.002  -2.701  24.157  0.00  0.00    -0.013 C 
ATOM     16  C   UNL     1      -3.209  -3.400  25.497  0.00  0.00    +0.007 C 
ATOM     17  C   UNL     1      -4.327  -2.556  23.413  0.00  0.00    +0.007 C 
ENDBRANCH   6  10
BRANCH   9  13
ATOM     13  C   UNL     1       0.063   0.539  23.353  0.00  0.00    +0.103 C 
BRANCH  13  21
ATOM      1  O   UNL     1       1.002  -0.580  21.424  0.00  0.00    -0.276 OA
ATOM      4  N   UNL     1       2.375  -0.059  23.225  0.00  0.00    -0.312 N 
ATOM     21  C   UNL     1       1.170  -0.096  22.541  0.00  0.00    +0.214 C 
ATOM     32  H   UNL     1       2.416   0.402  24.130  0.00  0.00    +0.149 HD
BRANCH   4  15
ATOM     15  C   UNL     1       3.602  -0.595  22.690  0.00  0.00    +0.073 C 
ATOM     18  C   UNL     1       4.352  -1.425  23.724  0.00  0.00    +0.022 C 
ATOM     19  C   UNL     1       4.602   0.503  22.349  0.00  0.00    +0.022 C 
ATOM     22  C   UNL     1       5.105  -0.399  24.566  0.00  0.00    +0.002 C 
ATOM     23  C   UNL     1       5.303   0.823  23.668  0.00  0.00    +0.002 C 
ENDBRANCH   4  15
ENDBRANCH  13  21
ENDBRANCH   9  13
BRANCH   7  14
ATOM     14  C   UNL     1      -4.365  -0.025  25.208  0.00  0.00    +0.112 C 
BRANCH  14   5
ATOM      2  O   UNL     1      -6.644   1.710  24.807  0.00  0.00    -0.272 OA
ATOM      5  N   UNL     1      -4.397   1.398  25.333  0.00  0.00    -0.312 N 
ATOM     24  C   UNL     1      -5.545   2.162  25.121  0.00  0.00    +0.251 C 
ATOM     33  H   UNL     1      -3.555   1.871  25.646  0.00  0.00    +0.149 HD
BRANCH  24  25
ATOM     25  C   UNL     1      -5.294   3.641  25.325  0.00  0.00    +0.324 C 
BRANCH  25   3
ATOM      3  O   UNL     1      -4.091   3.849  26.032  0.00  0.00    -0.483 OA
BRANCH   3  26
ATOM     26  C   UNL     1      -2.949   4.029  25.287  0.00  0.00    +0.121 A 
ATOM     27  C   UNL     1      -1.989   4.955  25.695  0.00  0.00    +0.045 A 
ATOM     28  C   UNL     1      -2.752   3.287  24.122  0.00  0.00    +0.045 A 
ATOM     29  C   UNL     1      -0.831   5.138  24.938  0.00  0.00    +0.004 A 
ATOM     30  C   UNL     1      -1.594   3.470  23.366  0.00  0.00    +0.004 A 
ATOM     31  C   UNL     1      -0.634   4.396  23.774  0.00  0.00    +0.000 A 
ENDBRANCH   3  26
ENDBRANCH  25   3
ENDBRANCH  24  25
ENDBRANCH  14   5
ENDBRANCH   7  14
TORSDOF 9
ENDMDL
MODEL 2
REMARK VINA RESULT:      -3.5      1.444      6.529
REMARK  Name = 38027340
REMARK  12 active torsions:
REMARK  status: ('A' for Active; 'I' for Inactive)
REMARK    1  A    between atoms: O_3  and  C_25
REMARK    2  A    between atoms: O_3  and  C_26
REMARK    3  A    between atoms: N_4  and  C_15
REMARK    4  A    between atoms: N_5  and  C_14
REMARK    5  A    between atoms: C_6  and  C_10
REMARK    6  A    between atoms: C_7  and  C_14
REMARK    7  A    between atoms: C_9  and  C_13
REMARK    8  A    between atoms: C_10  and  C_16
REMARK    9  A    between atoms: C_10  and  C_17
REMARK   10  A    between atoms: C_11  and  C_20
REMARK   11  A    between atoms: C_13  and  C_21
REMARK   12  A    between atoms: C_24  and  C_25
REMARK                            x       y       z     vdW  Elec       q    Type
REMARK                         _______ _______ _______ _____ _____    ______ ____
ROOT
ATOM      6  C   UNL     1      -3.875  -0.304  25.000  0.00  0.00    +0.000 C 
ATOM      7  C   UNL     1      -2.782   0.056  23.964  0.00  0.00    +0.032 C 
ATOM      8  C   UNL     1      -5.237   0.252  24.557  0.00  0.00    +0.012 C 
ATOM      9  C   UNL     1      -5.213   1.783  24.383  0.00  0.00    +0.023 C 
ATOM     11  C   UNL     1      -4.006   2.241  23.591  0.00  0.00    -0.073 C 
ATOM     12  C   UNL     1      -2.933   1.450  23.403  0.00  0.00    -0.022 C 
ATOM     20  C   UNL     1      -4.076   3.612  22.980  0.00  0.00    +0.039 C 
ENDROOT
BRANCH   6  10
ATOM     10  C   UNL     1      -3.978  -1.815  25.218  0.00  0.00    -0.013 C 
ATOM     16  C   UNL     1      -3.989  -2.548  23.880  0.00  0.00    +0.007 C 
ATOM     17  C   UNL     1      -2.829  -2.306  26.094  0.00  0.00    +0.007 C 
ENDBRANCH   6  10
BRANCH   9  13
ATOM     13  C   UNL     1      -5.282   2.494  25.738  0.00  0.00    +0.103 C 
BRANCH  13  21
ATOM      1  O   UNL     1      -4.522   4.787  25.590  0.00  0.00    -0.276 OA
ATOM      4  N   UNL     1      -3.038   3.131  26.264  0.00  0.00    -0.312 N 
ATOM     21  C   UNL     1      -4.269   3.612  25.846  0.00  0.00    +0.214 C 
ATOM     32  H   UNL     1      -2.943   2.144  26.489  0.00  0.00    +0.149 HD
BRANCH   4  15
ATOM     15  C   UNL     1      -1.884   3.975  26.452  0.00  0.00    +0.073 C 
ATOM     18  C   UNL     1      -1.709   4.954  25.298  0.00  0.00    +0.022 C 
ATOM     19  C   UNL     1      -0.585   3.179  26.420  0.00  0.00    +0.022 C 
ATOM     22  C   UNL     1      -1.006   4.144  24.212  0.00  0.00    +0.002 C 
ATOM     23  C   UNL     1      -0.250   3.030  24.937  0.00  0.00    +0.002 C 
ENDBRANCH   4  15
ENDBRANCH  13  21
ENDBRANCH   9  13
BRANCH   7  14
ATOM     14  C   UNL     1      -1.379  -0.103  24.562  0.00  0.00    +0.112 C 
BRANCH  14   5
ATOM      2  O   UNL     1       0.884   1.326  23.466  0.00  0.00    -0.272 OA
ATOM      5  N   UNL     1      -0.457  -0.574  23.576  0.00  0.00    -0.312 N 
ATOM     24  C   UNL     1       0.612   0.185  23.100  0.00  0.00    +0.251 C 
ATOM     33  H   UNL     1      -0.554  -1.529  23.246  0.00  0.00    +0.149 HD
BRANCH  24  25
ATOM     25  C   UNL     1       1.427  -0.559  22.064  0.00  0.00    +0.324 C 
BRANCH  25   3
ATOM      3  O   UNL     1       2.631   0.124  21.792  0.00  0.00    -0.483 OA
BRANCH   3  26
ATOM     26  C   UNL     1       3.676  -0.077  22.662  0.00  0.00    +0.121 A 
ATOM     27  C   UNL     1       4.554   0.968  22.952  0.00  0.00    +0.045 A 
ATOM     28  C   UNL     1       3.861  -1.326  23.254  0.00  0.00    +0.045 A 
ATOM     29  C   UNL     1       5.615   0.764  23.833  0.00  0.00    +0.004 A 
ATOM     30  C   UNL     1       4.923  -1.530  24.136  0.00  0.00    +0.004 A 
ATOM     31  C   UNL     1       5.800  -0.485  24.425  0.00  0.00    +0.000 A 
ENDBRANCH   3  26
ENDBRANCH  25   3
ENDBRANCH  24  25
ENDBRANCH  14   5
ENDBRANCH   7  14
TORSDOF 9
ENDMDL
MODEL 3
REMARK VINA RESULT:      -2.0      1.403      4.784
REMARK  Name = 38027340
REMARK  12 active torsions:
REMARK  status: ('A' for Active; 'I' for Inactive)
REMARK    1  A    between atoms: O_3  and  C_25
REMARK    2  A    between atoms: O_3  and  C_26
REMARK    3  A    between atoms: N_4  and  C_15
REMARK    4  A    between atoms: N_5  and  C_14
REMARK    5  A    between atoms: C_6  and  C_10
REMARK    6  A    between atoms: C_7  and  C_14
REMARK    7  A    between atoms: C_9  and  C_13
REMARK    8  A    between atoms: C_10  and  C_16
REMARK    9  A    between atoms: C_10  and  C_17
REMARK   10  A    between atoms: C_11  and  C_20
REMARK   11  A    between atoms: C_13  and  C_21
REMARK   12  A    between atoms: C_24  and  C_25
REMARK                            x       y       z     vdW  Elec       q    Type
REMARK                         _______ _______ _______ _____ _____    ______ ____
ROOT
ATOM      6  C   UNL     1      -1.898   3.680  24.908  0.00  0.00    +0.000 C 
ATOM      7  C   UNL     1      -3.053   3.894  23.900  0.00  0.00    +0.032 C 
ATOM      8  C   UNL     1      -0.614   3.269  24.172  0.00  0.00    +0.012 C 
ATOM      9  C   UNL     1      -0.797   1.974  23.357  0.00  0.00    +0.023 C 
ATOM     11  C   UNL     1      -2.069   2.003  22.534  0.00  0.00    -0.073 C 
ATOM     12  C   UNL     1      -3.061   2.876  22.783  0.00  0.00    -0.022 C 
ATOM     20  C   UNL     1      -2.156   1.033  21.388  0.00  0.00    +0.039 C 
ENDROOT
BRANCH   6  10
ATOM     10  C   UNL     1      -1.636   4.932  25.749  0.00  0.00    -0.013 C 
ATOM     16  C   UNL     1      -1.230   6.099  24.854  0.00  0.00    +0.007 C 
ATOM     17  C   UNL     1      -2.869   5.287  26.574  0.00  0.00    +0.007 C 
ENDBRANCH   6  10
BRANCH   9  13
ATOM     13  C   UNL     1      -0.758   0.740  24.265  0.00  0.00    +0.103 C 
BRANCH  13  21
ATOM      1  O   UNL     1      -0.086  -1.532  23.772  0.00  0.00    -0.276 OA
ATOM      4  N   UNL     1       1.321   0.227  23.200  0.00  0.00    -0.312 N 
ATOM     21  C   UNL     1       0.167  -0.330  23.730  0.00  0.00    +0.214 C 
ATOM     32  H   UNL     1       1.416   1.239  23.178  0.00  0.00    +0.149 HD
BRANCH   4  15
ATOM     15  C   UNL     1       2.382  -0.559  22.621  0.00  0.00    +0.073 C 
ATOM     18  C   UNL     1       3.451  -0.906  23.650  0.00  0.00    +0.022 C 
ATOM     19  C   UNL     1       3.163   0.224  21.574  0.00  0.00    +0.022 C 
ATOM     22  C   UNL     1       4.336   0.336  23.717  0.00  0.00    +0.002 C 
ATOM     23  C   UNL     1       4.183   1.038  22.367  0.00  0.00    +0.002 C 
ENDBRANCH   4  15
ENDBRANCH  13  21
ENDBRANCH   9  13
BRANCH   7  14
ATOM     14  C   UNL     1      -4.414   3.884  24.607  0.00  0.00    +0.112 C 
BRANCH  14   5
ATOM      2  O   UNL     1      -5.976   2.627  26.691  0.00  0.00    -0.272 OA
ATOM      5  N   UNL     1      -4.989   2.576  24.583  0.00  0.00    -0.312 N 
ATOM     24  C   UNL     1      -5.732   2.045  25.638  0.00  0.00    +0.251 C 
ATOM     33  H   UNL     1      -4.897   2.028  23.734  0.00  0.00    +0.149 HD
BRANCH  24  25
ATOM     25  C   UNL     1      -6.222   0.643  25.343  0.00  0.00    +0.324 C 
BRANCH  25   3
ATOM      3  O   UNL     1      -5.500   0.078  24.270  0.00  0.00    -0.483 OA
BRANCH   3  26
ATOM     26  C   UNL     1      -4.535  -0.851  24.584  0.00  0.00    +0.121 A 
ATOM     27  C   UNL     1      -4.370  -1.983  23.786  0.00  0.00    +0.045 A 
ATOM     28  C   UNL     1      -3.723  -0.663  25.703  0.00  0.00    +0.045 A 
ATOM     29  C   UNL     1      -3.393  -2.925  24.105  0.00  0.00    +0.004 A 
ATOM     30  C   UNL     1      -2.746  -1.606  26.022  0.00  0.00    +0.004 A 
ATOM     31  C   UNL     1      -2.581  -2.737  25.223  0.00  0.00    +0.000 A 
ENDBRANCH   3  26
ENDBRANCH  25   3
ENDBRANCH  24  25
ENDBRANCH  14   5
ENDBRANCH   7  14
TORSDOF 9
ENDMDL
