MODEL 1
REMARK VINA RESULT:       8.7      0.000      0.000
REMARK  Name = 11884160
REMARK  10 active torsions:
REMARK  status: ('A' for Active; 'I' for Inactive)
REMARK    1  A    between atoms: O_3  and  C_13
REMARK    2  A    between atoms: O_3  and  C_17
REMARK    3  A    between atoms: N_7  and  C_12
REMARK    4  A    between atoms: N_8  and  C_18
REMARK    5  A    between atoms: N_9  and  C_19
REMARK    6  A    between atoms: C_22  and  C_23
REMARK    7  A    between atoms: C_23  and  C_28
REMARK    8  A    between atoms: C_23  and  C_29
REMARK    9  A    between atoms: C_32  and  C_33
REMARK   10  A    between atoms: C_33  and  C_34
REMARK                            x       y       z     vdW  Elec       q    Type
REMARK                         _______ _______ _______ _____ _____    ______ ____
ROOT
ATOM      1  O   UNL     1      -4.574   2.591  24.169  0.00  0.00    -0.368 OA
ATOM      2  O   UNL     1      -5.356   5.271  25.438  0.00  0.00    -0.368 OA
ATOM     10  C   UNL     1      -4.146   4.490  25.524  0.00  0.00    +0.173 C 
ATOM     11  C   UNL     1      -4.564   3.032  25.536  0.00  0.00    +0.192 C 
ATOM     12  C   UNL     1      -3.349   4.626  24.248  0.00  0.00    +0.131 C 
ATOM     13  C   UNL     1      -5.958   3.098  26.114  0.00  0.00    +0.235 C 
ATOM     14  C   UNL     1      -4.030   3.623  23.333  0.00  0.00    +0.185 C 
ATOM     15  C   UNL     1      -6.485   4.390  25.530  0.00  0.00    +0.207 C 
ENDROOT
BRANCH  12   7
ATOM      4  O   UNL     1      -1.949   2.380  23.150  0.00  0.00    -0.252 OA
ATOM      7  N   UNL     1      -1.962   4.286  24.458  0.00  0.00    -0.292 N 
ATOM      8  N   UNL     1      -0.009   3.093  24.262  0.00  0.00    -0.269 N 
ATOM     16  C   UNL     1      -1.352   3.165  23.881  0.00  0.00    +0.304 C 
ATOM     35  H   UNL     1      -1.385   4.925  24.997  0.00  0.00    +0.151 HD
ATOM     36  H   UNL     1       0.331   3.827  24.877  0.00  0.00    +0.156 HD
BRANCH   8  18
ATOM     18  C   UNL     1       0.946   2.115  23.895  0.00  0.00    +0.035 A 
ATOM     20  C   UNL     1       0.624   0.760  23.978  0.00  0.00    +0.023 A 
ATOM     21  C   UNL     1       2.208   2.507  23.448  0.00  0.00    +0.023 A 
ATOM     22  C   UNL     1       2.828   0.188  23.170  0.00  0.00    -0.045 A 
ATOM     24  C   UNL     1       1.565  -0.203  23.615  0.00  0.00    +0.006 A 
ATOM     25  C   UNL     1       3.149   1.544  23.086  0.00  0.00    +0.006 A 
BRANCH  22  23
ATOM     23  C   UNL     1       3.835  -0.841  22.783  0.00  0.00    +0.013 C 
ATOM     28  C   UNL     1       5.186  -0.219  22.379  0.00  0.00    +0.012 C 
ATOM     29  C   UNL     1       4.054  -1.895  23.884  0.00  0.00    +0.012 C 
ENDBRANCH  22  23
ENDBRANCH   8  18
ENDBRANCH  12   7
BRANCH  13   3
ATOM      3  O   UNL     1      -6.762   1.993  25.769  0.00  0.00    -0.442 OA
BRANCH   3  17
ATOM      5  O   UNL     1      -6.656   0.330  24.202  0.00  0.00    -0.226 OA
ATOM      9  N   UNL     1      -4.896   0.728  25.692  0.00  0.00    -0.251 N 
ATOM     17  C   UNL     1      -6.138   0.943  25.128  0.00  0.00    +0.405 C 
ATOM     37  H   UNL     1      -4.639   1.345  26.460  0.00  0.00    +0.158 HD
BRANCH   9  19
ATOM     19  C   UNL     1      -3.934  -0.244  25.338  0.00  0.00    +0.036 A 
ATOM     26  C   UNL     1      -2.621  -0.126  25.793  0.00  0.00    +0.024 A 
ATOM     27  C   UNL     1      -4.297  -1.322  24.531  0.00  0.00    +0.024 A 
ATOM     30  C   UNL     1      -1.672  -1.085  25.442  0.00  0.00    +0.013 A 
ATOM     31  C   UNL     1      -3.348  -2.282  24.178  0.00  0.00    +0.013 A 
ATOM     32  C   UNL     1      -2.035  -2.163  24.635  0.00  0.00    +0.017 A 
BRANCH  32  33
ATOM      6  O   UNL     1      -1.169  -3.855  23.238  0.00  0.00    -0.292 OA
ATOM     33  C   UNL     1      -1.045  -3.163  24.268  0.00  0.00    +0.160 C 
ATOM     34  C   UNL     1       0.180  -3.392  25.148  0.00  0.00    +0.091 C 
ENDBRANCH  32  33
ENDBRANCH   9  19
ENDBRANCH   3  17
ENDBRANCH  13   3
TORSDOF 7
ENDMDL
MODEL 2
REMARK VINA RESULT:       9.6      2.948      4.678
REMARK  Name = 11884160
REMARK  10 active torsions:
REMARK  status: ('A' for Active; 'I' for Inactive)
REMARK    1  A    between atoms: O_3  and  C_13
REMARK    2  A    between atoms: O_3  and  C_17
REMARK    3  A    between atoms: N_7  and  C_12
REMARK    4  A    between atoms: N_8  and  C_18
REMARK    5  A    between atoms: N_9  and  C_19
REMARK    6  A    between atoms: C_22  and  C_23
REMARK    7  A    between atoms: C_23  and  C_28
REMARK    8  A    between atoms: C_23  and  C_29
REMARK    9  A    between atoms: C_32  and  C_33
REMARK   10  A    between atoms: C_33  and  C_34
REMARK                            x       y       z     vdW  Elec       q    Type
REMARK                         _______ _______ _______ _____ _____    ______ ____
ROOT
ATOM      1  O   UNL     1      -2.827   1.513  25.345  0.00  0.00    -0.368 OA
ATOM      2  O   UNL     1      -5.341   0.262  24.113  0.00  0.00    -0.368 OA
ATOM     10  C   UNL     1      -3.970   0.285  23.668  0.00  0.00    +0.173 C 
ATOM     11  C   UNL     1      -3.411   1.645  24.039  0.00  0.00    +0.192 C 
ATOM     12  C   UNL     1      -3.142  -0.680  24.484  0.00  0.00    +0.131 C 
ATOM     13  C   UNL     1      -4.649   2.511  24.063  0.00  0.00    +0.235 C 
ATOM     14  C   UNL     1      -2.838   0.131  25.732  0.00  0.00    +0.185 C 
ATOM     15  C   UNL     1      -5.690   1.562  24.612  0.00  0.00    +0.207 C 
ENDROOT
BRANCH  12   7
ATOM      4  O   UNL     1      -0.522   0.393  24.921  0.00  0.00    -0.252 OA
ATOM      7  N   UNL     1      -1.931  -1.049  23.789  0.00  0.00    -0.292 N 
ATOM      8  N   UNL     1       0.299  -1.025  23.240  0.00  0.00    -0.269 N 
ATOM     16  C   UNL     1      -0.684  -0.473  24.065  0.00  0.00    +0.304 C 
ATOM     35  H   UNL     1      -1.974  -1.806  23.114  0.00  0.00    +0.151 HD
ATOM     36  H   UNL     1      -0.006  -1.735  22.580  0.00  0.00    +0.156 HD
BRANCH   8  18
ATOM     18  C   UNL     1       1.678  -0.714  23.207  0.00  0.00    +0.035 A 
ATOM     20  C   UNL     1       2.110   0.488  22.645  0.00  0.00    +0.023 A 
ATOM     21  C   UNL     1       2.607  -1.610  23.737  0.00  0.00    +0.023 A 
ATOM     22  C   UNL     1       4.399  -0.102  23.142  0.00  0.00    -0.045 A 
ATOM     24  C   UNL     1       3.470   0.793  22.613  0.00  0.00    +0.006 A 
ATOM     25  C   UNL     1       3.967  -1.304  23.705  0.00  0.00    +0.006 A 
BRANCH  22  23
ATOM     23  C   UNL     1       5.854   0.224  23.109  0.00  0.00    +0.013 C 
ATOM     28  C   UNL     1       6.280   1.135  24.276  0.00  0.00    +0.012 C 
ATOM     29  C   UNL     1       6.739  -1.037  23.080  0.00  0.00    +0.012 C 
ENDBRANCH  22  23
ENDBRANCH   8  18
ENDBRANCH  12   7
BRANCH  13   3
ATOM      3  O   UNL     1      -4.511   3.666  24.859  0.00  0.00    -0.442 OA
BRANCH   3  17
ATOM      5  O   UNL     1      -4.149   3.657  27.118  0.00  0.00    -0.226 OA
ATOM      9  N   UNL     1      -2.402   3.340  25.591  0.00  0.00    -0.251 N 
ATOM     17  C   UNL     1      -3.710   3.561  25.977  0.00  0.00    +0.405 C 
ATOM     37  H   UNL     1      -2.233   3.292  24.589  0.00  0.00    +0.158 HD
BRANCH   9  19
ATOM     19  C   UNL     1      -1.267   3.175  26.415  0.00  0.00    +0.036 A 
ATOM     26  C   UNL     1       0.005   3.107  25.847  0.00  0.00    +0.024 A 
ATOM     27  C   UNL     1      -1.417   3.078  27.799  0.00  0.00    +0.024 A 
ATOM     30  C   UNL     1       1.125   2.942  26.660  0.00  0.00    +0.013 A 
ATOM     31  C   UNL     1      -0.297   2.913  28.614  0.00  0.00    +0.013 A 
ATOM     32  C   UNL     1       0.974   2.846  28.044  0.00  0.00    +0.017 A 
BRANCH  32  33
ATOM      6  O   UNL     1       3.270   3.069  28.534  0.00  0.00    -0.292 OA
ATOM     33  C   UNL     1       2.143   2.674  28.892  0.00  0.00    +0.160 C 
ATOM     34  C   UNL     1       2.014   1.996  30.252  0.00  0.00    +0.091 C 
ENDBRANCH  32  33
ENDBRANCH   9  19
ENDBRANCH   3  17
ENDBRANCH  13   3
TORSDOF 7
ENDMDL
MODEL 3
REMARK VINA RESULT:      10.9      1.606      2.035
REMARK  Name = 11884160
REMARK  10 active torsions:
REMARK  status: ('A' for Active; 'I' for Inactive)
REMARK    1  A    between atoms: O_3  and  C_13
REMARK    2  A    between atoms: O_3  and  C_17
REMARK    3  A    between atoms: N_7  and  C_12
REMARK    4  A    between atoms: N_8  and  C_18
REMARK    5  A    between atoms: N_9  and  C_19
REMARK    6  A    between atoms: C_22  and  C_23
REMARK    7  A    between atoms: C_23  and  C_28
REMARK    8  A    between atoms: C_23  and  C_29
REMARK    9  A    between atoms: C_32  and  C_33
REMARK   10  A    between atoms: C_33  and  C_34
REMARK                            x       y       z     vdW  Elec       q    Type
REMARK                         _______ _______ _______ _____ _____    ______ ____
ROOT
ATOM      1  O   UNL     1      -3.914   3.795  24.221  0.00  0.00    -0.368 OA
ATOM      2  O   UNL     1      -2.481   5.414  26.395  0.00  0.00    -0.368 OA
ATOM     10  C   UNL     1      -2.008   4.385  25.503  0.00  0.00    +0.173 C 
ATOM     11  C   UNL     1      -3.134   3.380  25.354  0.00  0.00    +0.192 C 
ATOM     12  C   UNL     1      -1.836   4.943  24.110  0.00  0.00    +0.131 C 
ATOM     13  C   UNL     1      -3.893   3.549  26.649  0.00  0.00    +0.235 C 
ATOM     14  C   UNL     1      -3.251   4.884  23.562  0.00  0.00    +0.185 C 
ATOM     15  C   UNL     1      -3.769   5.035  26.900  0.00  0.00    +0.207 C 
ENDROOT
BRANCH  12   7
ATOM      4  O   UNL     1       0.105   3.088  25.109  0.00  0.00    -0.252 OA
ATOM      7  N   UNL     1      -0.936   4.130  23.327  0.00  0.00    -0.292 N 
ATOM      8  N   UNL     1       0.719   2.597  22.897  0.00  0.00    -0.269 N 
ATOM     16  C   UNL     1      -0.013   3.244  23.896  0.00  0.00    +0.304 C 
ATOM     35  H   UNL     1      -1.020   4.155  22.315  0.00  0.00    +0.151 HD
ATOM     36  H   UNL     1       0.497   2.843  21.936  0.00  0.00    +0.156 HD
BRANCH   8  18
ATOM     18  C   UNL     1       1.742   1.633  23.057  0.00  0.00    +0.035 A 
ATOM     20  C   UNL     1       3.081   2.016  22.980  0.00  0.00    +0.023 A 
ATOM     21  C   UNL     1       1.411   0.298  23.293  0.00  0.00    +0.023 A 
ATOM     22  C   UNL     1       3.758  -0.269  23.374  0.00  0.00    -0.045 A 
ATOM     24  C   UNL     1       4.088   1.065  23.139  0.00  0.00    +0.006 A 
ATOM     25  C   UNL     1       2.419  -0.653  23.451  0.00  0.00    +0.006 A 
BRANCH  22  23
ATOM     23  C   UNL     1       4.834  -1.287  23.543  0.00  0.00    +0.013 C 
ATOM     28  C   UNL     1       6.059  -0.729  24.294  0.00  0.00    +0.012 C 
ATOM     29  C   UNL     1       4.332  -2.565  24.241  0.00  0.00    +0.012 C 
ENDBRANCH  22  23
ENDBRANCH   8  18
ENDBRANCH  12   7
BRANCH  13   3
ATOM      3  O   UNL     1      -5.239   3.135  26.570  0.00  0.00    -0.442 OA
BRANCH   3  17
ATOM      5  O   UNL     1      -6.605   1.519  25.703  0.00  0.00    -0.226 OA
ATOM      9  N   UNL     1      -4.285   1.232  25.824  0.00  0.00    -0.251 N 
ATOM     17  C   UNL     1      -5.479   1.904  25.996  0.00  0.00    +0.405 C 
ATOM     37  H   UNL     1      -3.447   1.719  26.133  0.00  0.00    +0.158 HD
BRANCH   9  19
ATOM     19  C   UNL     1      -4.081  -0.053  25.274  0.00  0.00    +0.036 A 
ATOM     26  C   UNL     1      -3.438  -1.039  26.022  0.00  0.00    +0.024 A 
ATOM     27  C   UNL     1      -4.520  -0.336  23.981  0.00  0.00    +0.024 A 
ATOM     30  C   UNL     1      -3.234  -2.307  25.478  0.00  0.00    +0.013 A 
ATOM     31  C   UNL     1      -4.317  -1.605  23.435  0.00  0.00    +0.013 A 
ATOM     32  C   UNL     1      -3.674  -2.590  24.185  0.00  0.00    +0.017 A 
BRANCH  32  33
ATOM      6  O   UNL     1      -4.385  -4.748  23.555  0.00  0.00    -0.292 OA
ATOM     33  C   UNL     1      -3.462  -3.912  23.619  0.00  0.00    +0.160 C 
ATOM     34  C   UNL     1      -2.090  -4.310  23.086  0.00  0.00    +0.091 C 
ENDBRANCH  32  33
ENDBRANCH   9  19
ENDBRANCH   3  17
ENDBRANCH  13   3
TORSDOF 7
ENDMDL
MODEL 4
REMARK VINA RESULT:      12.7      2.176      5.536
REMARK  Name = 11884160
REMARK  10 active torsions:
REMARK  status: ('A' for Active; 'I' for Inactive)
REMARK    1  A    between atoms: O_3  and  C_13
REMARK    2  A    between atoms: O_3  and  C_17
REMARK    3  A    between atoms: N_7  and  C_12
REMARK    4  A    between atoms: N_8  and  C_18
REMARK    5  A    between atoms: N_9  and  C_19
REMARK    6  A    between atoms: C_22  and  C_23
REMARK    7  A    between atoms: C_23  and  C_28
REMARK    8  A    between atoms: C_23  and  C_29
REMARK    9  A    between atoms: C_32  and  C_33
REMARK   10  A    between atoms: C_33  and  C_34
REMARK                            x       y       z     vdW  Elec       q    Type
REMARK                         _______ _______ _______ _____ _____    ______ ____
ROOT
ATOM      1  O   UNL     1      -3.066  -0.506  25.232  0.00  0.00    -0.368 OA
ATOM      2  O   UNL     1      -3.403  -3.316  24.051  0.00  0.00    -0.368 OA
ATOM     10  C   UNL     1      -2.580  -2.202  23.648  0.00  0.00    +0.173 C 
ATOM     11  C   UNL     1      -3.388  -0.944  23.902  0.00  0.00    +0.192 C 
ATOM     12  C   UNL     1      -1.397  -2.066  24.577  0.00  0.00    +0.131 C 
ATOM     13  C   UNL     1      -4.810  -1.445  23.806  0.00  0.00    +0.235 C 
ATOM     14  C   UNL     1      -1.994  -1.308  25.750  0.00  0.00    +0.185 C 
ATOM     15  C   UNL     1      -4.703  -2.826  24.412  0.00  0.00    +0.207 C 
ENDROOT
BRANCH  12   7
ATOM      4  O   UNL     1       1.406  -2.325  25.112  0.00  0.00    -0.252 OA
ATOM      7  N   UNL     1      -0.328  -1.320  23.958  0.00  0.00    -0.292 N 
ATOM      8  N   UNL     1       1.825  -0.649  23.522  0.00  0.00    -0.269 N 
ATOM     16  C   UNL     1       1.023  -1.508  24.278  0.00  0.00    +0.304 C 
ATOM     35  H   UNL     1      -0.561  -0.673  23.210  0.00  0.00    +0.151 HD
ATOM     36  H   UNL     1       1.346  -0.030  22.873  0.00  0.00    +0.156 HD
BRANCH   8  18
ATOM     18  C   UNL     1       3.235  -0.531  23.549  0.00  0.00    +0.035 A 
ATOM     20  C   UNL     1       3.840   0.680  23.213  0.00  0.00    +0.023 A 
ATOM     21  C   UNL     1       4.019  -1.626  23.913  0.00  0.00    +0.023 A 
ATOM     22  C   UNL     1       6.014  -0.299  23.603  0.00  0.00    -0.045 A 
ATOM     24  C   UNL     1       5.230   0.796  23.241  0.00  0.00    +0.006 A 
ATOM     25  C   UNL     1       5.408  -1.510  23.940  0.00  0.00    +0.006 A 
BRANCH  22  23
ATOM     23  C   UNL     1       7.500  -0.176  23.632  0.00  0.00    +0.013 C 
ATOM     28  C   UNL     1       8.172  -0.886  22.441  0.00  0.00    +0.012 C 
ATOM     29  C   UNL     1       7.969   1.290  23.699  0.00  0.00    +0.012 C 
ENDBRANCH  22  23
ENDBRANCH   8  18
ENDBRANCH  12   7
BRANCH  13   3
ATOM      3  O   UNL     1      -5.738  -0.635  24.491  0.00  0.00    -0.442 OA
BRANCH   3  17
ATOM      5  O   UNL     1      -5.706   1.043  26.045  0.00  0.00    -0.226 OA
ATOM      9  N   UNL     1      -4.265   1.049  24.200  0.00  0.00    -0.251 N 
ATOM     17  C   UNL     1      -5.266   0.552  25.012  0.00  0.00    +0.405 C 
ATOM     37  H   UNL     1      -4.037   0.494  23.378  0.00  0.00    +0.158 HD
BRANCH   9  19
ATOM     19  C   UNL     1      -3.517   2.235  24.367  0.00  0.00    +0.036 A 
ATOM     26  C   UNL     1      -4.170   3.448  24.583  0.00  0.00    +0.024 A 
ATOM     27  C   UNL     1      -2.124   2.195  24.314  0.00  0.00    +0.024 A 
ATOM     30  C   UNL     1      -3.432   4.620  24.746  0.00  0.00    +0.013 A 
ATOM     31  C   UNL     1      -1.383   3.366  24.477  0.00  0.00    +0.013 A 
ATOM     32  C   UNL     1      -2.038   4.579  24.693  0.00  0.00    +0.017 A 
BRANCH  32  33
ATOM      6  O   UNL     1      -1.808   6.864  25.226  0.00  0.00    -0.292 OA
ATOM     33  C   UNL     1      -1.269   5.800  24.863  0.00  0.00    +0.160 C 
ATOM     34  C   UNL     1       0.233   5.807  24.595  0.00  0.00    +0.091 C 
ENDBRANCH  32  33
ENDBRANCH   9  19
ENDBRANCH   3  17
ENDBRANCH  13   3
TORSDOF 7
ENDMDL
