MODEL 1
REMARK VINA RESULT:       2.7      0.000      0.000
REMARK  Name = 11885926
REMARK  6 active torsions:
REMARK  status: ('A' for Active; 'I' for Inactive)
REMARK    1  A    between atoms: O_5  and  C_27
REMARK    2  A    between atoms: O_5  and  C_31
REMARK    3  A    between atoms: N_8  and  C_22
REMARK    4  A    between atoms: N_9  and  C_20
REMARK    5  A    between atoms: C_23  and  C_24
REMARK    6  A    between atoms: C_24  and  C_27
REMARK                            x       y       z     vdW  Elec       q    Type
REMARK                         _______ _______ _______ _____ _____    ______ ____
ROOT
ATOM      2  O   UNL     1       0.244   2.263  26.238  0.00  0.00    -0.266 OA
ATOM      3  O   UNL     1      -4.524   0.155  26.590  0.00  0.00    -0.252 OA
ATOM      6  N   UNL     1      -4.679   2.086  25.325  0.00  0.00    -0.284 N 
ATOM      7  N   UNL     1      -1.655   3.088  25.155  0.00  0.00    -0.310 N 
ATOM      8  N   UNL     1      -4.620  -0.030  24.281  0.00  0.00    -0.269 N 
ATOM     10  C   UNL     1      -3.646   4.083  26.416  0.00  0.00    +0.027 C 
ATOM     11  C   UNL     1      -3.709   3.932  23.964  0.00  0.00    +0.054 C 
ATOM     12  C   UNL     1      -3.874   4.888  25.143  0.00  0.00    +0.018 C 
ATOM     13  C   UNL     1      -4.668   2.940  26.516  0.00  0.00    +0.114 C 
ATOM     14  C   UNL     1      -2.202   3.569  26.430  0.00  0.00    +0.130 C 
ATOM     15  C   UNL     1      -4.769   2.813  24.044  0.00  0.00    +0.119 C 
ATOM     16  C   UNL     1      -2.320   3.321  23.946  0.00  0.00    +0.027 A 
ATOM     17  C   UNL     1      -1.746   2.975  22.782  0.00  0.00    +0.024 A 
ATOM     18  C   UNL     1      -0.386   2.474  25.201  0.00  0.00    +0.273 A 
ATOM     19  C   UNL     1      -4.595   0.685  25.478  0.00  0.00    +0.306 C 
ATOM     20  C   UNL     1       0.206   2.080  23.884  0.00  0.00    +0.099 A 
ATOM     21  C   UNL     1      -0.459   2.341  22.753  0.00  0.00    +0.030 A 
ATOM     32  H   UNL     1      -5.101   0.379  23.487  0.00  0.00    +0.156 HD
ENDROOT
BRANCH   8  22
ATOM      1  F   UNL     1      -2.514  -5.067  23.338  0.00  0.00    -0.205 F 
ATOM     22  C   UNL     1      -4.082  -1.318  24.042  0.00  0.00    +0.035 A 
ATOM     25  C   UNL     1      -2.742  -1.571  24.322  0.00  0.00    +0.026 A 
ATOM     26  C   UNL     1      -4.895  -2.322  23.524  0.00  0.00    +0.026 A 
ATOM     28  C   UNL     1      -2.212  -2.839  24.085  0.00  0.00    +0.040 A 
ATOM     29  C   UNL     1      -4.364  -3.591  23.287  0.00  0.00    +0.040 A 
ATOM     30  C   UNL     1      -3.023  -3.849  23.567  0.00  0.00    +0.124 A 
ENDBRANCH   8  22
BRANCH  20   9
ATOM      4  O   UNL     1       0.957  -0.222  22.354  0.00  0.00    -0.275 OA
ATOM      9  N   UNL     1       1.424   1.468  23.887  0.00  0.00    -0.281 N 
ATOM     23  C   UNL     1       1.729   0.351  23.121  0.00  0.00    +0.220 C 
ATOM     33  H   UNL     1       2.058   1.714  24.645  0.00  0.00    +0.155 HD
BRANCH  23  24
ATOM     24  C   UNL     1       3.165  -0.098  23.341  0.00  0.00    +0.124 C 
BRANCH  24  27
ATOM     27  C   UNL     1       4.187   0.898  22.814  0.00  0.00    +0.168 C 
BRANCH  27   5
ATOM      5  O   UNL     1       5.398   0.765  23.548  0.00  0.00    -0.382 OA
ATOM     31  C   UNL     1       5.475  -0.493  24.204  0.00  0.00    +0.194 C 
ENDBRANCH  27   5
ENDBRANCH  24  27
ENDBRANCH  23  24
ENDBRANCH  20   9
TORSDOF 5
ENDMDL
MODEL 2
REMARK VINA RESULT:       3.8      2.787      5.450
REMARK  Name = 11885926
REMARK  6 active torsions:
REMARK  status: ('A' for Active; 'I' for Inactive)
REMARK    1  A    between atoms: O_5  and  C_27
REMARK    2  A    between atoms: O_5  and  C_31
REMARK    3  A    between atoms: N_8  and  C_22
REMARK    4  A    between atoms: N_9  and  C_20
REMARK    5  A    between atoms: C_23  and  C_24
REMARK    6  A    between atoms: C_24  and  C_27
REMARK                            x       y       z     vdW  Elec       q    Type
REMARK                         _______ _______ _______ _____ _____    ______ ____
ROOT
ATOM      2  O   UNL     1      -0.352  -1.280  21.923  0.00  0.00    -0.266 OA
ATOM      3  O   UNL     1      -4.415   1.555  23.584  0.00  0.00    -0.252 OA
ATOM      6  N   UNL     1      -4.182  -0.267  24.992  0.00  0.00    -0.284 N 
ATOM      7  N   UNL     1      -1.590  -1.737  23.852  0.00  0.00    -0.310 N 
ATOM      8  N   UNL     1      -3.374   1.856  25.634  0.00  0.00    -0.269 N 
ATOM     10  C   UNL     1      -4.045  -2.452  23.785  0.00  0.00    +0.027 C 
ATOM     11  C   UNL     1      -2.913  -2.183  25.950  0.00  0.00    +0.054 C 
ATOM     12  C   UNL     1      -3.735  -3.151  25.103  0.00  0.00    +0.018 C 
ATOM     13  C   UNL     1      -4.844  -1.163  24.040  0.00  0.00    +0.114 C 
ATOM     14  C   UNL     1      -2.732  -2.180  23.043  0.00  0.00    +0.130 C 
ATOM     15  C   UNL     1      -3.737  -0.911  26.241  0.00  0.00    +0.119 C 
ATOM     16  C   UNL     1      -1.621  -1.805  25.249  0.00  0.00    +0.027 A 
ATOM     17  C   UNL     1      -0.524  -1.505  25.965  0.00  0.00    +0.024 A 
ATOM     18  C   UNL     1      -0.433  -1.340  23.150  0.00  0.00    +0.273 A 
ATOM     19  C   UNL     1      -4.010   1.095  24.655  0.00  0.00    +0.306 C 
ATOM     20  C   UNL     1       0.759  -0.988  23.986  0.00  0.00    +0.099 A 
ATOM     21  C   UNL     1       0.687  -1.087  25.318  0.00  0.00    +0.030 A 
ATOM     32  H   UNL     1      -3.465   1.567  26.602  0.00  0.00    +0.156 HD
ENDROOT
BRANCH   8  22
ATOM      1  F   UNL     1      -0.481   6.523  24.899  0.00  0.00    -0.205 F 
ATOM     22  C   UNL     1      -2.635   3.049  25.444  0.00  0.00    +0.035 A 
ATOM     25  C   UNL     1      -1.306   2.982  25.036  0.00  0.00    +0.026 A 
ATOM     26  C   UNL     1      -3.241   4.282  25.670  0.00  0.00    +0.026 A 
ATOM     28  C   UNL     1      -0.578   4.157  24.851  0.00  0.00    +0.040 A 
ATOM     29  C   UNL     1      -2.512   5.457  25.485  0.00  0.00    +0.040 A 
ATOM     30  C   UNL     1      -1.180   5.394  25.075  0.00  0.00    +0.124 A 
ENDBRANCH   8  22
BRANCH  20   9
ATOM      4  O   UNL     1       1.644   1.713  23.640  0.00  0.00    -0.275 OA
ATOM      9  N   UNL     1       1.893  -0.584  23.346  0.00  0.00    -0.281 N 
ATOM     23  C   UNL     1       2.269   0.746  23.210  0.00  0.00    +0.220 C 
ATOM     33  H   UNL     1       2.359  -1.273  22.761  0.00  0.00    +0.155 HD
BRANCH  23  24
ATOM     24  C   UNL     1       3.579   0.876  22.448  0.00  0.00    +0.124 C 
BRANCH  24  27
ATOM     27  C   UNL     1       4.795   0.922  23.360  0.00  0.00    +0.168 C 
BRANCH  27   5
ATOM      5  O   UNL     1       5.587  -0.241  23.150  0.00  0.00    -0.382 OA
ATOM     31  C   UNL     1       5.377  -1.205  24.173  0.00  0.00    +0.194 C 
ENDBRANCH  27   5
ENDBRANCH  24  27
ENDBRANCH  23  24
ENDBRANCH  20   9
TORSDOF 5
ENDMDL
