MODEL 1
REMARK VINA RESULT:       7.6      0.000      0.000
REMARK  Name = 11911867
REMARK  11 active torsions:
REMARK  status: ('A' for Active; 'I' for Inactive)
REMARK    1  A    between atoms: O_4  and  C_25
REMARK    2  A    between atoms: N_6  and  C_16
REMARK    3  A    between atoms: N_7  and  C_17
REMARK    4  A    between atoms: N_10  and  C_35
REMARK    5  A    between atoms: N_10  and  C_36
REMARK    6  A    between atoms: N_10  and  C_37
REMARK    7  A    between atoms: C_11  and  C_18
REMARK    8  A    between atoms: C_11  and  C_22
REMARK    9  A    between atoms: C_18  and  C_24
REMARK   10  A    between atoms: C_22  and  C_25
REMARK   11  A    between atoms: C_27  and  C_30
REMARK                            x       y       z     vdW  Elec       q    Type
REMARK                         _______ _______ _______ _____ _____    ______ ____
ROOT
ATOM      1  O   UNL     1      -3.367  -1.109  26.257  0.00  0.00    -0.370 OA
ATOM      2  O   UNL     1      -4.957  -1.265  23.577  0.00  0.00    -0.370 OA
ATOM     12  C   UNL     1      -3.595  -0.936  23.895  0.00  0.00    +0.171 C 
ATOM     13  C   UNL     1      -3.612  -0.164  25.202  0.00  0.00    +0.171 C 
ATOM     16  C   UNL     1      -2.811  -2.187  24.218  0.00  0.00    +0.130 C 
ATOM     17  C   UNL     1      -5.020   0.373  25.296  0.00  0.00    +0.130 C 
ATOM     21  C   UNL     1      -3.135  -2.405  25.685  0.00  0.00    +0.185 C 
ATOM     23  C   UNL     1      -5.827  -0.677  24.554  0.00  0.00    +0.185 C 
ENDROOT
BRANCH  17   7
ATOM      7  N   UNL     1      -5.110   1.646  24.614  0.00  0.00    -0.306 N 
ATOM      8  N   UNL     1      -3.133   2.438  25.600  0.00  0.00    -0.214 NA
ATOM      9  N   UNL     1      -4.384   3.808  24.062  0.00  0.00    -0.223 NA
ATOM     26  C   UNL     1      -4.181   2.661  24.763  0.00  0.00    +0.216 A 
ATOM     27  C   UNL     1      -2.246   3.448  25.721  0.00  0.00    +0.076 A 
ATOM     28  C   UNL     1      -3.460   4.776  24.231  0.00  0.00    +0.116 A 
ATOM     29  C   UNL     1      -2.360   4.651  25.055  0.00  0.00    +0.048 A 
ATOM     39  H   UNL     1      -5.859   1.803  23.949  0.00  0.00    +0.149 HD
BRANCH  27  30
ATOM     30  C   UNL     1      -1.142   3.190  26.612  0.00  0.00    +0.001 A 
ATOM     31  C   UNL     1      -1.350   3.147  27.992  0.00  0.00    +0.012 A 
ATOM     32  C   UNL     1       0.140   2.983  26.098  0.00  0.00    +0.012 A 
ATOM     33  C   UNL     1      -0.282   2.900  28.854  0.00  0.00    +0.024 A 
ATOM     34  C   UNL     1       1.209   2.735  26.960  0.00  0.00    +0.024 A 
ATOM     35  C   UNL     1       0.998   2.693  28.338  0.00  0.00    +0.029 A 
BRANCH  35  10
ATOM     10  N   UNL     1       2.078   2.442  29.209  0.00  0.00    -0.336 N 
ATOM     36  C   UNL     1       3.435   2.755  28.806  0.00  0.00    +0.129 C 
ATOM     37  C   UNL     1       1.844   1.879  30.525  0.00  0.00    +0.129 C 
ENDBRANCH  35  10
ENDBRANCH  27  30
ENDBRANCH  17   7
BRANCH  16   6
ATOM      3  O   UNL     1      -1.101  -0.297  25.589  0.00  0.00    -0.276 OA
ATOM      6  N   UNL     1      -1.397  -1.984  24.018  0.00  0.00    -0.308 N 
ATOM     24  C   UNL     1      -0.654  -1.049  24.726  0.00  0.00    +0.214 C 
ATOM     38  H   UNL     1      -0.946  -2.517  23.279  0.00  0.00    +0.149 HD
BRANCH  24  18
ATOM     18  C   UNL     1       0.805  -1.060  24.309  0.00  0.00    +0.103 C 
BRANCH  18  11
ATOM     11  C   UNL     1       1.104  -0.062  23.181  0.00  0.00    -0.011 C 
ATOM     14  C   UNL     1       1.822   1.187  23.744  0.00  0.00    +0.008 C 
ATOM     15  C   UNL     1       2.090  -0.672  22.160  0.00  0.00    +0.008 C 
ATOM     19  C   UNL     1       3.053   1.383  22.868  0.00  0.00    +0.001 C 
ATOM     20  C   UNL     1       3.435  -0.032  22.475  0.00  0.00    +0.001 C 
BRANCH  11  22
ATOM     22  C   UNL     1      -0.211   0.324  22.492  0.00  0.00    +0.127 C 
BRANCH  22  25
ATOM      5  O   UNL     1      -0.046   2.540  23.494  0.00  0.00    -0.251 OA
ATOM     25  C   UNL     1      -0.708   1.657  22.971  0.00  0.00    +0.305 C 
BRANCH  25   4
ATOM      4  O   UNL     1      -2.041   1.752  22.732  0.00  0.00    -0.481 OA
ATOM     40  H   UNL     1      -2.288   2.634  22.381  0.00  0.00    +0.295 HD
ENDBRANCH  25   4
ENDBRANCH  22  25
ENDBRANCH  11  22
ENDBRANCH  18  11
ENDBRANCH  24  18
ENDBRANCH  16   6
TORSDOF 9
ENDMDL
MODEL 2
REMARK VINA RESULT:       7.7      1.168      1.942
REMARK  Name = 11911867
REMARK  11 active torsions:
REMARK  status: ('A' for Active; 'I' for Inactive)
REMARK    1  A    between atoms: O_4  and  C_25
REMARK    2  A    between atoms: N_6  and  C_16
REMARK    3  A    between atoms: N_7  and  C_17
REMARK    4  A    between atoms: N_10  and  C_35
REMARK    5  A    between atoms: N_10  and  C_36
REMARK    6  A    between atoms: N_10  and  C_37
REMARK    7  A    between atoms: C_11  and  C_18
REMARK    8  A    between atoms: C_11  and  C_22
REMARK    9  A    between atoms: C_18  and  C_24
REMARK   10  A    between atoms: C_22  and  C_25
REMARK   11  A    between atoms: C_27  and  C_30
REMARK                            x       y       z     vdW  Elec       q    Type
REMARK                         _______ _______ _______ _____ _____    ______ ____
ROOT
ATOM      1  O   UNL     1      -3.363  -1.055  26.230  0.00  0.00    -0.370 OA
ATOM      2  O   UNL     1      -5.021  -1.184  23.591  0.00  0.00    -0.370 OA
ATOM     12  C   UNL     1      -3.648  -0.872  23.875  0.00  0.00    +0.171 C 
ATOM     13  C   UNL     1      -3.622  -0.104  25.183  0.00  0.00    +0.171 C 
ATOM     16  C   UNL     1      -2.872  -2.134  24.175  0.00  0.00    +0.130 C 
ATOM     17  C   UNL     1      -5.021   0.451  25.314  0.00  0.00    +0.130 C 
ATOM     21  C   UNL     1      -3.162  -2.351  25.650  0.00  0.00    +0.185 C 
ATOM     23  C   UNL     1      -5.860  -0.587  24.591  0.00  0.00    +0.185 C 
ENDROOT
BRANCH  17   7
ATOM      7  N   UNL     1      -5.112   1.727  24.638  0.00  0.00    -0.306 N 
ATOM      8  N   UNL     1      -3.121   2.505  25.605  0.00  0.00    -0.214 NA
ATOM      9  N   UNL     1      -4.382   3.887  24.085  0.00  0.00    -0.223 NA
ATOM     26  C   UNL     1      -4.177   2.736  24.780  0.00  0.00    +0.216 A 
ATOM     27  C   UNL     1      -2.228   3.511  25.720  0.00  0.00    +0.076 A 
ATOM     28  C   UNL     1      -3.451   4.850  24.248  0.00  0.00    +0.116 A 
ATOM     29  C   UNL     1      -2.343   4.717  25.060  0.00  0.00    +0.048 A 
ATOM     39  H   UNL     1      -5.867   1.889  23.981  0.00  0.00    +0.149 HD
BRANCH  27  30
ATOM     30  C   UNL     1      -1.116   3.245  26.599  0.00  0.00    +0.001 A 
ATOM     31  C   UNL     1      -1.330   3.072  27.968  0.00  0.00    +0.012 A 
ATOM     32  C   UNL     1       0.180   3.159  26.084  0.00  0.00    +0.012 A 
ATOM     33  C   UNL     1      -0.254   2.818  28.818  0.00  0.00    +0.024 A 
ATOM     34  C   UNL     1       1.256   2.903  26.933  0.00  0.00    +0.024 A 
ATOM     35  C   UNL     1       1.039   2.733  28.300  0.00  0.00    +0.029 A 
BRANCH  35  10
ATOM     10  N   UNL     1       2.127   2.473  29.160  0.00  0.00    -0.336 N 
ATOM     36  C   UNL     1       3.479   2.799  28.751  0.00  0.00    +0.129 C 
ATOM     37  C   UNL     1       1.906   1.889  30.468  0.00  0.00    +0.129 C 
ENDBRANCH  35  10
ENDBRANCH  27  30
ENDBRANCH  17   7
BRANCH  16   6
ATOM      3  O   UNL     1      -0.934  -0.968  25.981  0.00  0.00    -0.276 OA
ATOM      6  N   UNL     1      -1.461  -1.948  23.941  0.00  0.00    -0.308 N 
ATOM     24  C   UNL     1      -0.603  -1.376  24.871  0.00  0.00    +0.214 C 
ATOM     38  H   UNL     1      -1.101  -2.198  23.024  0.00  0.00    +0.149 HD
BRANCH  24  18
ATOM     18  C   UNL     1       0.822  -1.313  24.353  0.00  0.00    +0.103 C 
BRANCH  18  11
ATOM     11  C   UNL     1       1.009  -0.242  23.268  0.00  0.00    -0.011 C 
ATOM     14  C   UNL     1      -0.241  -0.174  22.359  0.00  0.00    +0.008 C 
ATOM     15  C   UNL     1       1.128   1.162  23.901  0.00  0.00    +0.008 C 
ATOM     19  C   UNL     1      -0.635   1.297  22.312  0.00  0.00    +0.001 C 
ATOM     20  C   UNL     1      -0.230   1.814  23.680  0.00  0.00    +0.001 C 
BRANCH  11  22
ATOM     22  C   UNL     1       2.265  -0.571  22.452  0.00  0.00    +0.127 C 
BRANCH  22  25
ATOM      5  O   UNL     1       3.829   1.224  22.973  0.00  0.00    -0.251 OA
ATOM     25  C   UNL     1       3.488   0.054  23.055  0.00  0.00    +0.305 C 
BRANCH  25   4
ATOM      4  O   UNL     1       4.189  -0.891  23.732  0.00  0.00    -0.481 OA
ATOM     40  H   UNL     1       4.973  -1.198  23.228  0.00  0.00    +0.295 HD
ENDBRANCH  25   4
ENDBRANCH  22  25
ENDBRANCH  11  22
ENDBRANCH  18  11
ENDBRANCH  24  18
ENDBRANCH  16   6
TORSDOF 9
ENDMDL
MODEL 3
REMARK VINA RESULT:       7.7      1.920      2.606
REMARK  Name = 11911867
REMARK  11 active torsions:
REMARK  status: ('A' for Active; 'I' for Inactive)
REMARK    1  A    between atoms: O_4  and  C_25
REMARK    2  A    between atoms: N_6  and  C_16
REMARK    3  A    between atoms: N_7  and  C_17
REMARK    4  A    between atoms: N_10  and  C_35
REMARK    5  A    between atoms: N_10  and  C_36
REMARK    6  A    between atoms: N_10  and  C_37
REMARK    7  A    between atoms: C_11  and  C_18
REMARK    8  A    between atoms: C_11  and  C_22
REMARK    9  A    between atoms: C_18  and  C_24
REMARK   10  A    between atoms: C_22  and  C_25
REMARK   11  A    between atoms: C_27  and  C_30
REMARK                            x       y       z     vdW  Elec       q    Type
REMARK                         _______ _______ _______ _____ _____    ______ ____
ROOT
ATOM      1  O   UNL     1      -2.747  -1.433  26.125  0.00  0.00    -0.370 OA
ATOM      2  O   UNL     1      -3.490  -1.486  23.095  0.00  0.00    -0.370 OA
ATOM     12  C   UNL     1      -2.448  -0.838  23.841  0.00  0.00    +0.171 C 
ATOM     13  C   UNL     1      -3.045  -0.403  25.166  0.00  0.00    +0.171 C 
ATOM     16  C   UNL     1      -1.379  -1.834  24.228  0.00  0.00    +0.130 C 
ATOM     17  C   UNL     1      -4.531  -0.347  24.901  0.00  0.00    +0.130 C 
ATOM     21  C   UNL     1      -1.949  -2.446  25.496  0.00  0.00    +0.185 C 
ATOM     23  C   UNL     1      -4.719  -1.409  23.833  0.00  0.00    +0.185 C 
ENDROOT
BRANCH  17   7
ATOM      7  N   UNL     1      -4.892   0.954  24.382  0.00  0.00    -0.306 N 
ATOM      8  N   UNL     1      -3.078   2.001  25.441  0.00  0.00    -0.214 NA
ATOM      9  N   UNL     1      -4.624   3.267  24.094  0.00  0.00    -0.223 NA
ATOM     26  C   UNL     1      -4.176   2.108  24.647  0.00  0.00    +0.216 A 
ATOM     27  C   UNL     1      -2.404   3.146  25.678  0.00  0.00    +0.076 A 
ATOM     28  C   UNL     1      -3.903   4.373  24.374  0.00  0.00    +0.116 A 
ATOM     29  C   UNL     1      -2.774   4.373  25.167  0.00  0.00    +0.048 A 
ATOM     39  H   UNL     1      -5.678   1.036  23.747  0.00  0.00    +0.149 HD
BRANCH  27  30
ATOM     30  C   UNL     1      -1.242   3.009  26.522  0.00  0.00    +0.001 A 
ATOM     31  C   UNL     1      -1.377   3.043  27.911  0.00  0.00    +0.012 A 
ATOM     32  C   UNL     1       0.022   2.843  25.952  0.00  0.00    +0.012 A 
ATOM     33  C   UNL     1      -0.253   2.913  28.727  0.00  0.00    +0.024 A 
ATOM     34  C   UNL     1       1.146   2.713  26.768  0.00  0.00    +0.024 A 
ATOM     35  C   UNL     1       1.009   2.748  28.155  0.00  0.00    +0.029 A 
BRANCH  35  10
ATOM     10  N   UNL     1       2.145   2.615  28.980  0.00  0.00    -0.336 N 
ATOM     36  C   UNL     1       2.057   1.909  30.243  0.00  0.00    +0.129 C 
ATOM     37  C   UNL     1       3.419   3.172  28.570  0.00  0.00    +0.129 C 
ENDBRANCH  35  10
ENDBRANCH  27  30
ENDBRANCH  17   7
BRANCH  16   6
ATOM      3  O   UNL     1      -0.066   0.143  22.573  0.00  0.00    -0.276 OA
ATOM      6  N   UNL     1      -0.120  -1.178  24.484  0.00  0.00    -0.308 N 
ATOM     24  C   UNL     1       0.436  -0.236  23.628  0.00  0.00    +0.214 C 
ATOM     38  H   UNL     1       0.404  -1.471  25.304  0.00  0.00    +0.149 HD
BRANCH  24  18
ATOM     18  C   UNL     1       1.760   0.286  24.154  0.00  0.00    +0.103 C 
BRANCH  18  11
ATOM     11  C   UNL     1       2.953  -0.164  23.298  0.00  0.00    -0.011 C 
ATOM     14  C   UNL     1       2.539  -0.270  21.811  0.00  0.00    +0.008 C 
ATOM     15  C   UNL     1       4.079   0.895  23.331  0.00  0.00    +0.008 C 
ATOM     19  C   UNL     1       3.583   0.524  21.036  0.00  0.00    +0.001 C 
ATOM     20  C   UNL     1       3.975   1.627  22.001  0.00  0.00    +0.001 C 
BRANCH  11  22
ATOM     22  C   UNL     1       3.467  -1.510  23.824  0.00  0.00    +0.127 C 
BRANCH  22  25
ATOM      5  O   UNL     1       5.542  -0.548  24.667  0.00  0.00    -0.251 OA
ATOM     25  C   UNL     1       4.938  -1.456  24.118  0.00  0.00    +0.305 C 
BRANCH  25   4
ATOM      4  O   UNL     1       5.527  -2.597  23.676  0.00  0.00    -0.481 OA
ATOM     40  H   UNL     1       6.007  -3.063  24.394  0.00  0.00    +0.295 HD
ENDBRANCH  25   4
ENDBRANCH  22  25
ENDBRANCH  11  22
ENDBRANCH  18  11
ENDBRANCH  24  18
ENDBRANCH  16   6
TORSDOF 9
ENDMDL
MODEL 4
REMARK VINA RESULT:       8.2      2.247      5.695
REMARK  Name = 11911867
REMARK  11 active torsions:
REMARK  status: ('A' for Active; 'I' for Inactive)
REMARK    1  A    between atoms: O_4  and  C_25
REMARK    2  A    between atoms: N_6  and  C_16
REMARK    3  A    between atoms: N_7  and  C_17
REMARK    4  A    between atoms: N_10  and  C_35
REMARK    5  A    between atoms: N_10  and  C_36
REMARK    6  A    between atoms: N_10  and  C_37
REMARK    7  A    between atoms: C_11  and  C_18
REMARK    8  A    between atoms: C_11  and  C_22
REMARK    9  A    between atoms: C_18  and  C_24
REMARK   10  A    between atoms: C_22  and  C_25
REMARK   11  A    between atoms: C_27  and  C_30
REMARK                            x       y       z     vdW  Elec       q    Type
REMARK                         _______ _______ _______ _____ _____    ______ ____
ROOT
ATOM      1  O   UNL     1      -3.275   2.730  23.505  0.00  0.00    -0.370 OA
ATOM      2  O   UNL     1      -5.703   2.439  25.443  0.00  0.00    -0.370 OA
ATOM     12  C   UNL     1      -4.280   2.368  25.631  0.00  0.00    +0.171 C 
ATOM     13  C   UNL     1      -3.697   1.691  24.405  0.00  0.00    +0.171 C 
ATOM     16  C   UNL     1      -3.675   3.753  25.608  0.00  0.00    +0.130 C 
ATOM     17  C   UNL     1      -4.860   0.928  23.816  0.00  0.00    +0.130 C 
ATOM     21  C   UNL     1      -3.498   4.007  24.121  0.00  0.00    +0.185 C 
ATOM     23  C   UNL     1      -6.053   1.776  24.220  0.00  0.00    +0.185 C 
ENDROOT
BRANCH  17   7
ATOM      7  N   UNL     1      -4.949  -0.383  24.422  0.00  0.00    -0.306 N 
ATOM      8  N   UNL     1      -2.656  -0.791  24.136  0.00  0.00    -0.214 NA
ATOM      9  N   UNL     1      -4.087  -2.434  25.168  0.00  0.00    -0.223 NA
ATOM     26  C   UNL     1      -3.865  -1.227  24.580  0.00  0.00    +0.216 A 
ATOM     27  C   UNL     1      -1.621  -1.640  24.307  0.00  0.00    +0.076 A 
ATOM     28  C   UNL     1      -3.008  -3.232  25.305  0.00  0.00    +0.116 A 
ATOM     29  C   UNL     1      -1.739  -2.885  24.890  0.00  0.00    +0.048 A 
ATOM     39  H   UNL     1      -5.835  -0.696  24.802  0.00  0.00    +0.149 HD
BRANCH  27  30
ATOM     30  C   UNL     1      -0.348  -1.157  23.830  0.00  0.00    +0.001 A 
ATOM     31  C   UNL     1      -0.293  -0.278  22.747  0.00  0.00    +0.012 A 
ATOM     32  C   UNL     1       0.835  -1.567  24.450  0.00  0.00    +0.012 A 
ATOM     33  C   UNL     1       0.938   0.187  22.284  0.00  0.00    +0.024 A 
ATOM     34  C   UNL     1       2.066  -1.102  23.989  0.00  0.00    +0.024 A 
ATOM     35  C   UNL     1       2.118  -0.225  22.906  0.00  0.00    +0.029 A 
BRANCH  35  10
ATOM     10  N   UNL     1       3.362   0.247  22.439  0.00  0.00    -0.336 N 
ATOM     36  C   UNL     1       4.452   0.483  23.365  0.00  0.00    +0.129 C 
ATOM     37  C   UNL     1       3.572   0.489  21.025  0.00  0.00    +0.129 C 
ENDBRANCH  35  10
ENDBRANCH  27  30
ENDBRANCH  17   7
BRANCH  16   6
ATOM      3  O   UNL     1      -1.183   4.870  24.651  0.00  0.00    -0.276 OA
ATOM      6  N   UNL     1      -2.409   3.782  26.298  0.00  0.00    -0.308 N 
ATOM     24  C   UNL     1      -1.259   4.343  25.758  0.00  0.00    +0.214 C 
ATOM     38  H   UNL     1      -2.354   3.314  27.199  0.00  0.00    +0.149 HD
BRANCH  24  18
ATOM     18  C   UNL     1      -0.082   4.233  26.709  0.00  0.00    +0.103 C 
BRANCH  18  11
ATOM     11  C   UNL     1       0.419   2.789  26.863  0.00  0.00    -0.011 C 
ATOM     14  C   UNL     1      -0.678   1.905  27.501  0.00  0.00    +0.008 C 
ATOM     15  C   UNL     1       0.697   2.157  25.481  0.00  0.00    +0.008 C 
ATOM     19  C   UNL     1      -0.805   0.688  26.592  0.00  0.00    +0.001 C 
ATOM     20  C   UNL     1      -0.490   1.242  25.215  0.00  0.00    +0.001 C 
BRANCH  11  22
ATOM     22  C   UNL     1       1.691   2.790  27.719  0.00  0.00    +0.127 C 
BRANCH  22  25
ATOM      5  O   UNL     1       0.492   3.019  29.828  0.00  0.00    -0.251 OA
ATOM     25  C   UNL     1       1.381   2.512  29.160  0.00  0.00    +0.305 C 
BRANCH  25   4
ATOM      4  O   UNL     1       2.250   1.586  29.638  0.00  0.00    -0.481 OA
ATOM     40  H   UNL     1       2.956   1.377  28.990  0.00  0.00    +0.295 HD
ENDBRANCH  25   4
ENDBRANCH  22  25
ENDBRANCH  11  22
ENDBRANCH  18  11
ENDBRANCH  24  18
ENDBRANCH  16   6
TORSDOF 9
ENDMDL
MODEL 5
REMARK VINA RESULT:       8.6      1.961      5.511
REMARK  Name = 11911867
REMARK  11 active torsions:
REMARK  status: ('A' for Active; 'I' for Inactive)
REMARK    1  A    between atoms: O_4  and  C_25
REMARK    2  A    between atoms: N_6  and  C_16
REMARK    3  A    between atoms: N_7  and  C_17
REMARK    4  A    between atoms: N_10  and  C_35
REMARK    5  A    between atoms: N_10  and  C_36
REMARK    6  A    between atoms: N_10  and  C_37
REMARK    7  A    between atoms: C_11  and  C_18
REMARK    8  A    between atoms: C_11  and  C_22
REMARK    9  A    between atoms: C_18  and  C_24
REMARK   10  A    between atoms: C_22  and  C_25
REMARK   11  A    between atoms: C_27  and  C_30
REMARK                            x       y       z     vdW  Elec       q    Type
REMARK                         _______ _______ _______ _____ _____    ______ ____
ROOT
ATOM      1  O   UNL     1      -3.384   2.680  23.456  0.00  0.00    -0.370 OA
ATOM      2  O   UNL     1      -5.674   2.475  25.566  0.00  0.00    -0.370 OA
ATOM     12  C   UNL     1      -4.242   2.398  25.657  0.00  0.00    +0.171 C 
ATOM     13  C   UNL     1      -3.750   1.675  24.418  0.00  0.00    +0.171 C 
ATOM     16  C   UNL     1      -3.632   3.776  25.545  0.00  0.00    +0.130 C 
ATOM     17  C   UNL     1      -4.955   0.903  23.936  0.00  0.00    +0.130 C 
ATOM     21  C   UNL     1      -3.557   3.978  24.042  0.00  0.00    +0.185 C 
ATOM     23  C   UNL     1      -6.112   1.773  24.393  0.00  0.00    +0.185 C 
ENDROOT
BRANCH  17   7
ATOM      7  N   UNL     1      -5.011  -0.386  24.591  0.00  0.00    -0.306 N 
ATOM      8  N   UNL     1      -2.724  -0.782  24.244  0.00  0.00    -0.214 NA
ATOM      9  N   UNL     1      -4.102  -2.400  25.381  0.00  0.00    -0.223 NA
ATOM     26  C   UNL     1      -3.912  -1.214  24.743  0.00  0.00    +0.216 A 
ATOM     27  C   UNL     1      -1.674  -1.615  24.410  0.00  0.00    +0.076 A 
ATOM     28  C   UNL     1      -3.010  -3.183  25.511  0.00  0.00    +0.116 A 
ATOM     29  C   UNL     1      -1.759  -2.839  25.041  0.00  0.00    +0.048 A 
ATOM     39  H   UNL     1      -5.880  -0.694  25.013  0.00  0.00    +0.149 HD
BRANCH  27  30
ATOM     30  C   UNL     1      -0.423  -1.137  23.874  0.00  0.00    +0.001 A 
ATOM     31  C   UNL     1      -0.389  -0.507  22.629  0.00  0.00    +0.012 A 
ATOM     32  C   UNL     1       0.760  -1.305  24.598  0.00  0.00    +0.012 A 
ATOM     33  C   UNL     1       0.821  -0.047  22.109  0.00  0.00    +0.024 A 
ATOM     34  C   UNL     1       1.970  -0.844  24.079  0.00  0.00    +0.024 A 
ATOM     35  C   UNL     1       2.001  -0.216  22.835  0.00  0.00    +0.029 A 
BRANCH  35  10
ATOM     10  N   UNL     1       3.224   0.250  22.310  0.00  0.00    -0.336 N 
ATOM     36  C   UNL     1       4.343   0.523  23.190  0.00  0.00    +0.129 C 
ATOM     37  C   UNL     1       3.382   0.450  20.883  0.00  0.00    +0.129 C 
ENDBRANCH  35  10
ENDBRANCH  27  30
ENDBRANCH  17   7
BRANCH  16   6
ATOM      3  O   UNL     1      -1.249   5.013  24.464  0.00  0.00    -0.276 OA
ATOM      6  N   UNL     1      -2.320   3.818  26.145  0.00  0.00    -0.308 N 
ATOM     24  C   UNL     1      -1.230   4.438  25.550  0.00  0.00    +0.214 C 
ATOM     38  H   UNL     1      -2.187   3.314  27.017  0.00  0.00    +0.149 HD
BRANCH  24  18
ATOM     18  C   UNL     1       0.016   4.327  26.409  0.00  0.00    +0.103 C 
BRANCH  18  11
ATOM     11  C   UNL     1       0.216   2.915  26.978  0.00  0.00    -0.011 C 
ATOM     14  C   UNL     1       1.691   2.708  27.397  0.00  0.00    +0.008 C 
ATOM     15  C   UNL     1      -0.604   2.726  28.274  0.00  0.00    +0.008 C 
ATOM     19  C   UNL     1       1.642   2.176  28.824  0.00  0.00    +0.001 C 
ATOM     20  C   UNL     1       0.407   2.840  29.405  0.00  0.00    +0.001 C 
BRANCH  11  22
ATOM     22  C   UNL     1      -0.205   1.885  25.922  0.00  0.00    +0.127 C 
BRANCH  22  25
ATOM      5  O   UNL     1       1.475   2.443  24.246  0.00  0.00    -0.251 OA
ATOM     25  C   UNL     1       0.310   2.256  24.562  0.00  0.00    +0.305 C 
BRANCH  25   4
ATOM      4  O   UNL     1      -0.733   2.355  23.698  0.00  0.00    -0.481 OA
ATOM     40  H   UNL     1      -1.596   2.362  24.164  0.00  0.00    +0.295 HD
ENDBRANCH  25   4
ENDBRANCH  22  25
ENDBRANCH  11  22
ENDBRANCH  18  11
ENDBRANCH  24  18
ENDBRANCH  16   6
TORSDOF 9
ENDMDL
MODEL 6
REMARK VINA RESULT:       9.1      2.369      5.807
REMARK  Name = 11911867
REMARK  11 active torsions:
REMARK  status: ('A' for Active; 'I' for Inactive)
REMARK    1  A    between atoms: O_4  and  C_25
REMARK    2  A    between atoms: N_6  and  C_16
REMARK    3  A    between atoms: N_7  and  C_17
REMARK    4  A    between atoms: N_10  and  C_35
REMARK    5  A    between atoms: N_10  and  C_36
REMARK    6  A    between atoms: N_10  and  C_37
REMARK    7  A    between atoms: C_11  and  C_18
REMARK    8  A    between atoms: C_11  and  C_22
REMARK    9  A    between atoms: C_18  and  C_24
REMARK   10  A    between atoms: C_22  and  C_25
REMARK   11  A    between atoms: C_27  and  C_30
REMARK                            x       y       z     vdW  Elec       q    Type
REMARK                         _______ _______ _______ _____ _____    ______ ____
ROOT
ATOM      1  O   UNL     1      -2.572   3.698  23.574  0.00  0.00    -0.370 OA
ATOM      2  O   UNL     1      -4.325   3.531  26.150  0.00  0.00    -0.370 OA
ATOM     12  C   UNL     1      -2.980   3.129  25.848  0.00  0.00    +0.171 C 
ATOM     13  C   UNL     1      -2.974   2.609  24.423  0.00  0.00    +0.171 C 
ATOM     16  C   UNL     1      -2.067   4.332  25.804  0.00  0.00    +0.130 C 
ATOM     17  C   UNL     1      -4.415   2.241  24.157  0.00  0.00    +0.130 C 
ATOM     21  C   UNL     1      -2.266   4.840  24.386  0.00  0.00    +0.185 C 
ATOM     23  C   UNL     1      -5.175   3.218  25.036  0.00  0.00    +0.185 C 
ENDROOT
BRANCH  17   7
ATOM      7  N   UNL     1      -4.666   0.883  24.586  0.00  0.00    -0.306 N 
ATOM      8  N   UNL     1      -2.424   0.258  24.286  0.00  0.00    -0.214 NA
ATOM      9  N   UNL     1      -4.057  -1.330  25.074  0.00  0.00    -0.223 NA
ATOM     26  C   UNL     1      -3.686  -0.092  24.651  0.00  0.00    +0.216 A 
ATOM     27  C   UNL     1      -1.494  -0.717  24.362  0.00  0.00    +0.076 A 
ATOM     28  C   UNL     1      -3.077  -2.257  25.124  0.00  0.00    +0.116 A 
ATOM     29  C   UNL     1      -1.765  -2.005  24.777  0.00  0.00    +0.048 A 
ATOM     39  H   UNL     1      -5.592   0.625  24.909  0.00  0.00    +0.149 HD
BRANCH  27  30
ATOM     30  C   UNL     1      -0.162  -0.324  23.972  0.00  0.00    +0.001 A 
ATOM     31  C   UNL     1       0.171   1.028  23.878  0.00  0.00    +0.012 A 
ATOM     32  C   UNL     1       0.800  -1.296  23.685  0.00  0.00    +0.012 A 
ATOM     33  C   UNL     1       1.458   1.408  23.498  0.00  0.00    +0.024 A 
ATOM     34  C   UNL     1       2.088  -0.916  23.306  0.00  0.00    +0.024 A 
ATOM     35  C   UNL     1       2.417   0.436  23.213  0.00  0.00    +0.029 A 
BRANCH  35  10
ATOM     10  N   UNL     1       3.719   0.820  22.830  0.00  0.00    -0.336 N 
ATOM     36  C   UNL     1       3.924   1.988  21.997  0.00  0.00    +0.129 C 
ATOM     37  C   UNL     1       4.869   0.059  23.276  0.00  0.00    +0.129 C 
ENDBRANCH  35  10
ENDBRANCH  27  30
ENDBRANCH  17   7
BRANCH  16   6
ATOM      3  O   UNL     1      -1.099   1.863  26.963  0.00  0.00    -0.276 OA
ATOM      6  N   UNL     1      -0.693   3.956  26.036  0.00  0.00    -0.308 N 
ATOM     24  C   UNL     1      -0.321   2.743  26.601  0.00  0.00    +0.214 C 
ATOM     38  H   UNL     1       0.024   4.645  25.827  0.00  0.00    +0.149 HD
BRANCH  24  18
ATOM     18  C   UNL     1       1.186   2.620  26.721  0.00  0.00    +0.103 C 
BRANCH  18  11
ATOM     11  C   UNL     1       1.671   2.705  28.176  0.00  0.00    -0.011 C 
ATOM     14  C   UNL     1       3.096   2.115  28.303  0.00  0.00    +0.008 C 
ATOM     15  C   UNL     1       1.801   4.178  28.623  0.00  0.00    +0.008 C 
ATOM     19  C   UNL     1       3.914   3.171  29.036  0.00  0.00    +0.001 C 
ATOM     20  C   UNL     1       3.292   4.478  28.579  0.00  0.00    +0.001 C 
BRANCH  11  22
ATOM     22  C   UNL     1       0.683   1.955  29.078  0.00  0.00    +0.127 C 
BRANCH  22  25
ATOM      5  O   UNL     1       0.284   3.071  31.208  0.00  0.00    -0.251 OA
ATOM     25  C   UNL     1       0.913   2.276  30.526  0.00  0.00    +0.305 C 
BRANCH  25   4
ATOM      4  O   UNL     1       1.949   1.534  30.992  0.00  0.00    -0.481 OA
ATOM     40  H   UNL     1       2.799   1.788  30.574  0.00  0.00    +0.295 HD
ENDBRANCH  25   4
ENDBRANCH  22  25
ENDBRANCH  11  22
ENDBRANCH  18  11
ENDBRANCH  24  18
ENDBRANCH  16   6
TORSDOF 9
ENDMDL
