MODEL 1
REMARK VINA RESULT:      -3.0      0.000      0.000
REMARK  Name = 45783470
REMARK  9 active torsions:
REMARK  status: ('A' for Active; 'I' for Inactive)
REMARK    1  A    between atoms: O_2  and  C_27
REMARK    2  A    between atoms: O_2  and  C_28
REMARK    3  A    between atoms: N_3  and  C_12
REMARK    4  A    between atoms: N_7  and  C_25
REMARK    5  A    between atoms: N_7  and  C_26
REMARK    6  A    between atoms: C_8  and  C_13
REMARK    7  A    between atoms: C_12  and  C_14
REMARK    8  A    between atoms: C_17  and  C_20
REMARK    9  A    between atoms: C_26  and  C_27
REMARK                            x       y       z     vdW  Elec       q    Type
REMARK                         _______ _______ _______ _____ _____    ______ ____
ROOT
ATOM      1  O   UNL     1      -2.414   3.696  24.848  0.00  0.00    -0.336 OA
ATOM      4  N   UNL     1      -2.361   1.645  23.949  0.00  0.00    -0.190 NA
ATOM      5  N   UNL     1      -1.061   3.381  24.674  0.00  0.00    -0.056 NA
ATOM     13  C   UNL     1      -3.111   2.621  24.396  0.00  0.00    +0.245 A 
ATOM     17  C   UNL     1      -1.111   2.158  24.141  0.00  0.00    +0.204 A 
ENDROOT
BRANCH  17  20
ATOM      6  N   UNL     1       2.460   1.394  23.438  0.00  0.00    -0.240 NA
ATOM     20  C   UNL     1       0.068   1.420  23.788  0.00  0.00    +0.041 A 
ATOM     22  C   UNL     1      -0.002   0.070  23.462  0.00  0.00    +0.016 A 
ATOM     23  C   UNL     1       1.311   2.030  23.761  0.00  0.00    +0.124 A 
ATOM     24  C   UNL     1       1.157  -0.619  23.124  0.00  0.00    +0.044 A 
ATOM     25  C   UNL     1       2.352   0.082  23.127  0.00  0.00    +0.119 A 
BRANCH  25   7
ATOM      7  N   UNL     1       3.525  -0.634  22.782  0.00  0.00    -0.327 N 
ATOM     29  H   UNL     1       3.820  -0.579  21.813  0.00  0.00    +0.148 HD
BRANCH   7  26
ATOM     26  C   UNL     1       4.268  -1.400  23.729  0.00  0.00    +0.131 C 
BRANCH  26  27
ATOM     27  C   UNL     1       5.334  -0.534  24.377  0.00  0.00    +0.178 C 
BRANCH  27   2
ATOM      2  O   UNL     1       5.992   0.236  23.379  0.00  0.00    -0.381 OA
ATOM     28  C   UNL     1       7.115  -0.452  22.845  0.00  0.00    +0.194 C 
ENDBRANCH  27   2
ENDBRANCH  26  27
ENDBRANCH   7  26
ENDBRANCH  25   7
ENDBRANCH  17  20
BRANCH  13   8
ATOM      3  N   UNL     1      -5.221   1.587  25.216  0.00  0.00    -0.287 NA
ATOM      8  C   UNL     1      -4.621   2.713  24.474  0.00  0.00    +0.146 C 
ATOM      9  C   UNL     1      -5.101   3.973  25.218  0.00  0.00    +0.030 C 
ATOM     10  C   UNL     1      -6.012   3.458  26.324  0.00  0.00    +0.017 C 
ATOM     11  C   UNL     1      -6.452   2.098  25.819  0.00  0.00    +0.085 C 
BRANCH   3  12
ATOM     12  C   UNL     1      -5.463   0.415  24.385  0.00  0.00    +0.120 C 
BRANCH  12  14
ATOM     14  C   UNL     1      -4.456  -0.674  24.645  0.00  0.00    -0.033 A 
ATOM     15  C   UNL     1      -4.362  -1.759  23.774  0.00  0.00    +0.005 A 
ATOM     16  C   UNL     1      -3.619  -0.599  25.758  0.00  0.00    +0.005 A 
ATOM     18  C   UNL     1      -3.430  -2.769  24.015  0.00  0.00    +0.000 A 
ATOM     19  C   UNL     1      -2.687  -1.608  25.998  0.00  0.00    +0.000 A 
ATOM     21  C   UNL     1      -2.592  -2.693  25.127  0.00  0.00    +0.000 A 
ENDBRANCH  12  14
ENDBRANCH   3  12
ENDBRANCH  13   8
TORSDOF 8
ENDMDL
MODEL 2
REMARK VINA RESULT:       0.8      1.512      3.579
REMARK  Name = 45783470
REMARK  9 active torsions:
REMARK  status: ('A' for Active; 'I' for Inactive)
REMARK    1  A    between atoms: O_2  and  C_27
REMARK    2  A    between atoms: O_2  and  C_28
REMARK    3  A    between atoms: N_3  and  C_12
REMARK    4  A    between atoms: N_7  and  C_25
REMARK    5  A    between atoms: N_7  and  C_26
REMARK    6  A    between atoms: C_8  and  C_13
REMARK    7  A    between atoms: C_12  and  C_14
REMARK    8  A    between atoms: C_17  and  C_20
REMARK    9  A    between atoms: C_26  and  C_27
REMARK                            x       y       z     vdW  Elec       q    Type
REMARK                         _______ _______ _______ _____ _____    ______ ____
ROOT
ATOM      1  O   UNL     1      -2.218   0.491  25.801  0.00  0.00    -0.336 OA
ATOM      4  N   UNL     1      -1.416  -0.773  24.135  0.00  0.00    -0.190 NA
ATOM      5  N   UNL     1      -0.964   1.023  25.477  0.00  0.00    -0.056 NA
ATOM     13  C   UNL     1      -2.408  -0.562  24.965  0.00  0.00    +0.245 A 
ATOM     17  C   UNL     1      -0.554   0.224  24.488  0.00  0.00    +0.204 A 
ENDROOT
BRANCH  17  20
ATOM      6  N   UNL     1       2.658   1.765  23.426  0.00  0.00    -0.240 NA
ATOM     20  C   UNL     1       0.710   0.394  23.831  0.00  0.00    +0.041 A 
ATOM     22  C   UNL     1       1.219  -0.591  22.991  0.00  0.00    +0.016 A 
ATOM     23  C   UNL     1       1.462   1.543  24.013  0.00  0.00    +0.124 A 
ATOM     24  C   UNL     1       2.447  -0.399  22.368  0.00  0.00    +0.044 A 
ATOM     25  C   UNL     1       3.121   0.786  22.616  0.00  0.00    +0.119 A 
BRANCH  25   7
ATOM      7  N   UNL     1       4.372   0.968  21.975  0.00  0.00    -0.327 N 
ATOM     29  H   UNL     1       4.404   1.661  21.236  0.00  0.00    +0.148 HD
BRANCH   7  26
ATOM     26  C   UNL     1       5.536   0.223  22.331  0.00  0.00    +0.131 C 
BRANCH  26  27
ATOM     27  C   UNL     1       5.920   0.518  23.770  0.00  0.00    +0.178 C 
BRANCH  27   2
ATOM      2  O   UNL     1       5.375  -0.482  24.622  0.00  0.00    -0.381 OA
ATOM     28  C   UNL     1       5.235  -1.724  23.946  0.00  0.00    +0.194 C 
ENDBRANCH  27   2
ENDBRANCH  26  27
ENDBRANCH   7  26
ENDBRANCH  25   7
ENDBRANCH  17  20
BRANCH  13   8
ATOM      3  N   UNL     1      -4.797  -0.747  24.293  0.00  0.00    -0.287 NA
ATOM      8  C   UNL     1      -3.712  -1.318  25.114  0.00  0.00    +0.146 C 
ATOM      9  C   UNL     1      -3.604  -2.784  24.657  0.00  0.00    +0.030 C 
ATOM     10  C   UNL     1      -4.707  -2.959  23.622  0.00  0.00    +0.017 C 
ATOM     11  C   UNL     1      -5.690  -1.856  23.958  0.00  0.00    +0.085 C 
BRANCH   3  12
ATOM     12  C   UNL     1      -5.502   0.346  24.950  0.00  0.00    +0.120 C 
BRANCH  12  14
ATOM     14  C   UNL     1      -4.827   1.671  24.715  0.00  0.00    -0.033 A 
ATOM     15  C   UNL     1      -4.037   1.860  23.581  0.00  0.00    +0.005 A 
ATOM     16  C   UNL     1      -4.990   2.709  25.632  0.00  0.00    +0.005 A 
ATOM     18  C   UNL     1      -3.412   3.088  23.363  0.00  0.00    +0.000 A 
ATOM     19  C   UNL     1      -4.365   3.936  25.414  0.00  0.00    +0.000 A 
ATOM     21  C   UNL     1      -3.576   4.126  24.280  0.00  0.00    +0.000 A 
ENDBRANCH  12  14
ENDBRANCH   3  12
ENDBRANCH  13   8
TORSDOF 8
ENDMDL
