MODEL 1
REMARK VINA RESULT:      19.1      0.000      0.000
REMARK  Name = 40777683
REMARK  9 active torsions:
REMARK  status: ('A' for Active; 'I' for Inactive)
REMARK    1  A    between atoms: O_5  and  C_32
REMARK    2  A    between atoms: O_5  and  C_33
REMARK    3  A    between atoms: N_6  and  C_11
REMARK    4  A    between atoms: N_7  and  C_19
REMARK    5  A    between atoms: C_9  and  C_12
REMARK    6  A    between atoms: C_15  and  C_17
REMARK    7  A    between atoms: C_16  and  C_18
REMARK    8  A    between atoms: C_20  and  C_21
REMARK    9  A    between atoms: C_26  and  C_29
REMARK                            x       y       z     vdW  Elec       q    Type
REMARK                         _______ _______ _______ _____ _____    ______ ____
ROOT
ATOM      9  C   UNL     1       0.963   0.182  23.686  0.00  0.00    +0.047 C 
ATOM     10  C   UNL     1       1.528  -1.174  24.160  0.00  0.00    +0.039 C 
ATOM     11  C   UNL     1       2.423  -1.676  23.021  0.00  0.00    +0.097 C 
ATOM     13  C   UNL     1       1.110   0.088  22.195  0.00  0.00    -0.021 C 
ATOM     14  C   UNL     1       1.909  -0.924  21.838  0.00  0.00    -0.009 C 
ENDROOT
BRANCH   9  12
ATOM      7  N   UNL     1      -2.332   1.380  24.746  0.00  0.00    -0.236 N 
ATOM      8  N   UNL     1      -2.552   0.073  24.967  0.00  0.00    -0.171 NA
ATOM     12  C   UNL     1      -0.445   0.445  24.167  0.00  0.00    +0.003 A 
ATOM     15  C   UNL     1      -1.085   1.656  24.267  0.00  0.00    +0.046 A 
ATOM     16  C   UNL     1      -1.396  -0.494  24.610  0.00  0.00    +0.064 A 
ATOM     17  C   UNL     1      -0.622   3.022  23.950  0.00  0.00    +0.066 C 
ATOM     18  C   UNL     1      -1.244  -1.956  24.713  0.00  0.00    +0.068 C 
BRANCH   7  19
ATOM     19  C   UNL     1      -3.342   2.307  25.010  0.00  0.00    +0.066 A 
ATOM     22  C   UNL     1      -4.680   1.929  24.905  0.00  0.00    +0.028 A 
ATOM     23  C   UNL     1      -3.011   3.612  25.375  0.00  0.00    +0.028 A 
ATOM     24  C   UNL     1      -5.689   2.857  25.165  0.00  0.00    +0.014 A 
ATOM     25  C   UNL     1      -4.020   4.540  25.635  0.00  0.00    +0.014 A 
ATOM     26  C   UNL     1      -5.358   4.162  25.529  0.00  0.00    +0.055 A 
BRANCH  26  29
ATOM      1  F   UNL     1      -6.035   6.195  26.593  0.00  0.00    -0.166 F 
ATOM      2  F   UNL     1      -7.507   4.602  26.448  0.00  0.00    -0.166 F 
ATOM      3  F   UNL     1      -6.948   5.736  24.680  0.00  0.00    -0.166 F 
ATOM     29  C   UNL     1      -6.438   5.154  25.806  0.00  0.00    +0.417 C 
ENDBRANCH  26  29
ENDBRANCH   7  19
ENDBRANCH   9  12
BRANCH  11   6
ATOM      4  O   UNL     1       3.684   0.859  22.540  0.00  0.00    -0.270 OA
ATOM      6  N   UNL     1       3.810  -1.355  23.221  0.00  0.00    -0.305 N 
ATOM     20  C   UNL     1       4.334  -0.094  22.960  0.00  0.00    +0.245 C 
ATOM     34  H   UNL     1       4.431  -2.117  23.474  0.00  0.00    +0.150 HD
BRANCH  20  21
ATOM     21  C   UNL     1       5.792   0.069  23.193  0.00  0.00    +0.037 A 
ATOM     27  C   UNL     1       6.697  -0.810  22.596  0.00  0.00    +0.016 A 
ATOM     28  C   UNL     1       6.258   1.099  24.009  0.00  0.00    +0.016 A 
ATOM     30  C   UNL     1       8.066  -0.658  22.814  0.00  0.00    +0.046 A 
ATOM     31  C   UNL     1       7.626   1.252  24.229  0.00  0.00    +0.046 A 
ATOM     32  C   UNL     1       8.531   0.373  23.632  0.00  0.00    +0.120 A 
BRANCH  32   5
ATOM      5  O   UNL     1       9.867   0.521  23.846  0.00  0.00    -0.495 OA
ATOM     33  C   UNL     1      10.283   1.682  24.563  0.00  0.00    +0.277 C 
ENDBRANCH  32   5
ENDBRANCH  20  21
ENDBRANCH  11   6
TORSDOF 6
ENDMDL
MODEL 2
REMARK VINA RESULT:      19.8      1.590      2.162
REMARK  Name = 40777683
REMARK  9 active torsions:
REMARK  status: ('A' for Active; 'I' for Inactive)
REMARK    1  A    between atoms: O_5  and  C_32
REMARK    2  A    between atoms: O_5  and  C_33
REMARK    3  A    between atoms: N_6  and  C_11
REMARK    4  A    between atoms: N_7  and  C_19
REMARK    5  A    between atoms: C_9  and  C_12
REMARK    6  A    between atoms: C_15  and  C_17
REMARK    7  A    between atoms: C_16  and  C_18
REMARK    8  A    between atoms: C_20  and  C_21
REMARK    9  A    between atoms: C_26  and  C_29
REMARK                            x       y       z     vdW  Elec       q    Type
REMARK                         _______ _______ _______ _____ _____    ______ ____
ROOT
ATOM      9  C   UNL     1       1.887   0.378  23.423  0.00  0.00    +0.047 C 
ATOM     10  C   UNL     1       2.894  -0.716  23.836  0.00  0.00    +0.039 C 
ATOM     11  C   UNL     1       3.818  -0.912  22.628  0.00  0.00    +0.097 C 
ATOM     13  C   UNL     1       1.947   0.321  21.924  0.00  0.00    -0.021 C 
ATOM     14  C   UNL     1       3.002  -0.380  21.497  0.00  0.00    -0.009 C 
ENDROOT
BRANCH   9  12
ATOM      7  N   UNL     1      -1.559   0.429  24.664  0.00  0.00    -0.236 N 
ATOM      8  N   UNL     1      -1.263  -0.824  25.048  0.00  0.00    -0.171 NA
ATOM     12  C   UNL     1       0.509   0.174  24.008  0.00  0.00    +0.003 A 
ATOM     15  C   UNL     1      -0.532   1.071  24.037  0.00  0.00    +0.046 A 
ATOM     16  C   UNL     1       0.001  -0.975  24.644  0.00  0.00    +0.064 A 
ATOM     17  C   UNL     1      -0.629   2.454  23.528  0.00  0.00    +0.066 C 
ATOM     18  C   UNL     1       0.693  -2.252  24.891  0.00  0.00    +0.068 C 
BRANCH   7  19
ATOM     19  C   UNL     1      -2.827   0.952  24.923  0.00  0.00    +0.066 A 
ATOM     22  C   UNL     1      -3.937   0.108  24.955  0.00  0.00    +0.028 A 
ATOM     23  C   UNL     1      -2.984   2.320  25.145  0.00  0.00    +0.028 A 
ATOM     24  C   UNL     1      -5.204   0.632  25.210  0.00  0.00    +0.014 A 
ATOM     25  C   UNL     1      -4.252   2.844  25.399  0.00  0.00    +0.014 A 
ATOM     26  C   UNL     1      -5.361   2.000  25.431  0.00  0.00    +0.055 A 
BRANCH  26  29
ATOM      1  F   UNL     1      -7.259   2.134  26.881  0.00  0.00    -0.166 F 
ATOM      2  F   UNL     1      -7.626   2.226  24.741  0.00  0.00    -0.166 F 
ATOM      3  F   UNL     1      -6.742   3.924  25.771  0.00  0.00    -0.166 F 
ATOM     29  C   UNL     1      -6.718   2.559  25.702  0.00  0.00    +0.417 C 
ENDBRANCH  26  29
ENDBRANCH   7  19
ENDBRANCH   9  12
BRANCH  11   6
ATOM      4  O   UNL     1       5.727  -1.015  24.772  0.00  0.00    -0.270 OA
ATOM      6  N   UNL     1       5.036  -0.155  22.731  0.00  0.00    -0.305 N 
ATOM     20  C   UNL     1       5.904  -0.271  23.810  0.00  0.00    +0.245 C 
ATOM     34  H   UNL     1       5.204   0.552  22.022  0.00  0.00    +0.150 HD
BRANCH  20  21
ATOM     21  C   UNL     1       7.107   0.600  23.779  0.00  0.00    +0.037 A 
ATOM     27  C   UNL     1       7.027   1.917  24.233  0.00  0.00    +0.016 A 
ATOM     28  C   UNL     1       8.317   0.102  23.295  0.00  0.00    +0.016 A 
ATOM     30  C   UNL     1       8.155   2.736  24.202  0.00  0.00    +0.046 A 
ATOM     31  C   UNL     1       9.445   0.920  23.263  0.00  0.00    +0.046 A 
ATOM     32  C   UNL     1       9.365   2.237  23.717  0.00  0.00    +0.120 A 
BRANCH  32   5
ATOM      5  O   UNL     1      10.467   3.036  23.687  0.00  0.00    -0.495 OA
ATOM     33  C   UNL     1      10.600   3.915  22.572  0.00  0.00    +0.277 C 
ENDBRANCH  32   5
ENDBRANCH  20  21
ENDBRANCH  11   6
TORSDOF 6
ENDMDL
MODEL 3
REMARK VINA RESULT:      20.0      1.785      2.658
REMARK  Name = 40777683
REMARK  9 active torsions:
REMARK  status: ('A' for Active; 'I' for Inactive)
REMARK    1  A    between atoms: O_5  and  C_32
REMARK    2  A    between atoms: O_5  and  C_33
REMARK    3  A    between atoms: N_6  and  C_11
REMARK    4  A    between atoms: N_7  and  C_19
REMARK    5  A    between atoms: C_9  and  C_12
REMARK    6  A    between atoms: C_15  and  C_17
REMARK    7  A    between atoms: C_16  and  C_18
REMARK    8  A    between atoms: C_20  and  C_21
REMARK    9  A    between atoms: C_26  and  C_29
REMARK                            x       y       z     vdW  Elec       q    Type
REMARK                         _______ _______ _______ _____ _____    ______ ____
ROOT
ATOM      9  C   UNL     1       2.116   0.028  23.759  0.00  0.00    +0.047 C 
ATOM     10  C   UNL     1       2.331  -0.358  22.281  0.00  0.00    +0.039 C 
ATOM     11  C   UNL     1       3.368   0.630  21.736  0.00  0.00    +0.097 C 
ATOM     13  C   UNL     1       2.580   1.455  23.789  0.00  0.00    -0.021 C 
ATOM     14  C   UNL     1       3.265   1.777  22.687  0.00  0.00    -0.009 C 
ENDROOT
BRANCH   9  12
ATOM      7  N   UNL     1      -1.414   0.065  24.740  0.00  0.00    -0.236 N 
ATOM      8  N   UNL     1      -1.155  -1.203  25.100  0.00  0.00    -0.171 NA
ATOM     12  C   UNL     1       0.696  -0.185  24.232  0.00  0.00    +0.003 A 
ATOM     15  C   UNL     1      -0.338   0.720  24.215  0.00  0.00    +0.046 A 
ATOM     16  C   UNL     1       0.135  -1.351  24.786  0.00  0.00    +0.064 A 
ATOM     17  C   UNL     1      -0.389   2.120  23.749  0.00  0.00    +0.066 C 
ATOM     18  C   UNL     1       0.799  -2.642  25.039  0.00  0.00    +0.068 C 
BRANCH   7  19
ATOM     19  C   UNL     1      -2.694   0.589  24.922  0.00  0.00    +0.066 A 
ATOM     22  C   UNL     1      -2.882   1.970  24.973  0.00  0.00    +0.028 A 
ATOM     23  C   UNL     1      -3.785  -0.269  25.058  0.00  0.00    +0.028 A 
ATOM     24  C   UNL     1      -4.161   2.494  25.159  0.00  0.00    +0.014 A 
ATOM     25  C   UNL     1      -5.065   0.255  25.245  0.00  0.00    +0.014 A 
ATOM     26  C   UNL     1      -5.252   1.636  25.295  0.00  0.00    +0.055 A 
BRANCH  26  29
ATOM      1  F   UNL     1      -6.649   3.561  25.554  0.00  0.00    -0.166 F 
ATOM      2  F   UNL     1      -7.200   1.768  26.653  0.00  0.00    -0.166 F 
ATOM      3  F   UNL     1      -7.498   1.865  24.501  0.00  0.00    -0.166 F 
ATOM     29  C   UNL     1      -6.620   2.197  25.495  0.00  0.00    +0.417 C 
ENDBRANCH  26  29
ENDBRANCH   7  19
ENDBRANCH   9  12
BRANCH  11   6
ATOM      4  O   UNL     1       5.183   0.698  23.961  0.00  0.00    -0.270 OA
ATOM      6  N   UNL     1       4.707   0.107  21.769  0.00  0.00    -0.305 N 
ATOM     20  C   UNL     1       5.516   0.184  22.896  0.00  0.00    +0.245 C 
ATOM     34  H   UNL     1       5.089  -0.246  20.897  0.00  0.00    +0.150 HD
BRANCH  20  21
ATOM     21  C   UNL     1       6.883  -0.380  22.760  0.00  0.00    +0.037 A 
ATOM     27  C   UNL     1       7.976   0.300  23.297  0.00  0.00    +0.016 A 
ATOM     28  C   UNL     1       7.076  -1.590  22.093  0.00  0.00    +0.016 A 
ATOM     30  C   UNL     1       9.261  -0.228  23.169  0.00  0.00    +0.046 A 
ATOM     31  C   UNL     1       8.359  -2.120  21.963  0.00  0.00    +0.046 A 
ATOM     32  C   UNL     1       9.452  -1.439  22.501  0.00  0.00    +0.120 A 
BRANCH  32   5
ATOM      5  O   UNL     1      10.705  -1.956  22.375  0.00  0.00    -0.495 OA
ATOM     33  C   UNL     1      10.853  -3.101  21.536  0.00  0.00    +0.277 C 
ENDBRANCH  32   5
ENDBRANCH  20  21
ENDBRANCH  11   6
TORSDOF 6
ENDMDL
