MODEL 1
REMARK VINA RESULT:       3.7      0.000      0.000
REMARK  Name = 26762246
REMARK  10 active torsions:
REMARK  status: ('A' for Active; 'I' for Inactive)
REMARK    1  A    between atoms: N_7  and  C_12
REMARK    2  A    between atoms: N_8  and  C_24
REMARK    3  A    between atoms: N_9  and  C_27
REMARK    4  A    between atoms: N_9  and  C_31
REMARK    5  A    between atoms: N_9  and  C_32
REMARK    6  A    between atoms: C_11  and  C_17
REMARK    7  A    between atoms: C_17  and  C_18
REMARK    8  A    between atoms: C_18  and  C_20
REMARK    9  A    between atoms: C_19  and  C_21
REMARK   10  A    between atoms: C_24  and  C_28
REMARK                            x       y       z     vdW  Elec       q    Type
REMARK                         _______ _______ _______ _____ _____    ______ ____
ROOT
ATOM      2  O   UNL     1      -5.521  -0.147  24.380  0.00  0.00    -0.274 OA
ATOM      5  N   UNL     1      -3.404   2.682  24.221  0.00  0.00    -0.285 NA
ATOM      6  N   UNL     1      -5.389   1.655  25.798  0.00  0.00    -0.313 N 
ATOM     10  C   UNL     1      -4.399   1.820  23.576  0.00  0.00    +0.145 C 
ATOM     11  C   UNL     1      -4.072   3.669  25.072  0.00  0.00    +0.075 C 
ATOM     12  C   UNL     1      -2.415   1.988  22.219  0.00  0.00    +0.089 C 
ATOM     13  C   UNL     1      -3.557   1.032  22.583  0.00  0.00    +0.052 C 
ATOM     14  C   UNL     1      -2.611   3.215  23.115  0.00  0.00    +0.107 C 
ATOM     15  C   UNL     1      -4.742   2.890  26.213  0.00  0.00    +0.123 C 
ATOM     16  C   UNL     1      -5.117   0.991  24.616  0.00  0.00    +0.230 C 
ATOM     36  H   UNL     1      -5.935   1.159  26.496  0.00  0.00    +0.149 HD
ENDROOT
BRANCH  12   7
ATOM      3  O   UNL     1      -0.087   3.219  23.362  0.00  0.00    -0.270 OA
ATOM      7  N   UNL     1      -1.130   1.369  22.430  0.00  0.00    -0.307 N 
ATOM     19  C   UNL     1      -0.059   2.047  22.993  0.00  0.00    +0.244 C 
ATOM     37  H   UNL     1      -1.001   0.439  22.046  0.00  0.00    +0.149 HD
BRANCH  19  21
ATOM     21  C   UNL     1       1.206   1.278  23.118  0.00  0.00    +0.037 A 
ATOM     22  C   UNL     1       1.171  -0.113  23.207  0.00  0.00    +0.015 A 
ATOM     23  C   UNL     1       2.429   1.948  23.147  0.00  0.00    +0.015 A 
ATOM     25  C   UNL     1       2.359  -0.834  23.326  0.00  0.00    +0.024 A 
ATOM     26  C   UNL     1       3.617   1.227  23.265  0.00  0.00    +0.024 A 
ATOM     27  C   UNL     1       3.582  -0.165  23.354  0.00  0.00    +0.029 A 
BRANCH  27   9
ATOM      9  N   UNL     1       4.783  -0.894  23.474  0.00  0.00    -0.336 N 
ATOM     31  C   UNL     1       4.758  -2.296  23.840  0.00  0.00    +0.129 C 
ATOM     32  C   UNL     1       6.060  -0.249  23.239  0.00  0.00    +0.129 C 
ENDBRANCH  27   9
ENDBRANCH  19  21
ENDBRANCH  12   7
BRANCH  11  17
ATOM     17  C   UNL     1      -3.109   4.705  25.657  0.00  0.00    +0.029 C 
BRANCH  17  18
ATOM     18  C   UNL     1      -2.304   4.120  26.808  0.00  0.00    +0.097 C 
BRANCH  18  20
ATOM      4  O   UNL     1      -0.108   3.560  25.957  0.00  0.00    -0.276 OA
ATOM      8  N   UNL     1      -1.635   1.857  26.352  0.00  0.00    -0.311 N 
ATOM     20  C   UNL     1      -1.216   3.179  26.325  0.00  0.00    +0.213 C 
ATOM     38  H   UNL     1      -2.559   1.622  26.700  0.00  0.00    +0.149 HD
BRANCH   8  24
ATOM     24  C   UNL     1      -0.781   0.769  25.939  0.00  0.00    +0.139 C 
BRANCH  24  28
ATOM      1  F   UNL     1      -3.732  -3.816  24.533  0.00  0.00    -0.205 F 
ATOM     28  C   UNL     1      -1.568  -0.453  25.564  0.00  0.00    -0.030 A 
ATOM     29  C   UNL     1      -1.092  -1.312  24.574  0.00  0.00    +0.008 A 
ATOM     30  C   UNL     1      -2.775  -0.730  26.206  0.00  0.00    +0.008 A 
ATOM     33  C   UNL     1      -1.822  -2.448  24.225  0.00  0.00    +0.038 A 
ATOM     34  C   UNL     1      -3.506  -1.866  25.858  0.00  0.00    +0.038 A 
ATOM     35  C   UNL     1      -3.030  -2.724  24.867  0.00  0.00    +0.123 A 
ENDBRANCH  24  28
ENDBRANCH   8  24
ENDBRANCH  18  20
ENDBRANCH  17  18
ENDBRANCH  11  17
TORSDOF 8
ENDMDL
MODEL 2
REMARK VINA RESULT:       5.4      1.007      1.243
REMARK  Name = 26762246
REMARK  10 active torsions:
REMARK  status: ('A' for Active; 'I' for Inactive)
REMARK    1  A    between atoms: N_7  and  C_12
REMARK    2  A    between atoms: N_8  and  C_24
REMARK    3  A    between atoms: N_9  and  C_27
REMARK    4  A    between atoms: N_9  and  C_31
REMARK    5  A    between atoms: N_9  and  C_32
REMARK    6  A    between atoms: C_11  and  C_17
REMARK    7  A    between atoms: C_17  and  C_18
REMARK    8  A    between atoms: C_18  and  C_20
REMARK    9  A    between atoms: C_19  and  C_21
REMARK   10  A    between atoms: C_24  and  C_28
REMARK                            x       y       z     vdW  Elec       q    Type
REMARK                         _______ _______ _______ _____ _____    ______ ____
ROOT
ATOM      2  O   UNL     1      -5.633  -0.104  24.578  0.00  0.00    -0.274 OA
ATOM      5  N   UNL     1      -3.880   2.966  24.483  0.00  0.00    -0.285 NA
ATOM      6  N   UNL     1      -5.778   1.700  25.991  0.00  0.00    -0.313 N 
ATOM     10  C   UNL     1      -4.736   1.987  23.806  0.00  0.00    +0.145 C 
ATOM     11  C   UNL     1      -4.696   3.862  25.305  0.00  0.00    +0.075 C 
ATOM     12  C   UNL     1      -2.740   2.401  22.521  0.00  0.00    +0.089 C 
ATOM     13  C   UNL     1      -3.767   1.310  22.848  0.00  0.00    +0.052 C 
ATOM     14  C   UNL     1      -3.120   3.594  23.404  0.00  0.00    +0.107 C 
ATOM     15  C   UNL     1      -5.305   3.006  26.424  0.00  0.00    +0.123 C 
ATOM     16  C   UNL     1      -5.383   1.075  24.823  0.00  0.00    +0.230 C 
ATOM     36  H   UNL     1      -6.283   1.140  26.672  0.00  0.00    +0.149 HD
ENDROOT
BRANCH  12   7
ATOM      3  O   UNL     1      -1.229   0.532  20.951  0.00  0.00    -0.270 OA
ATOM      7  N   UNL     1      -1.396   1.947  22.781  0.00  0.00    -0.307 N 
ATOM     19  C   UNL     1      -0.745   1.037  21.961  0.00  0.00    +0.244 C 
ATOM     37  H   UNL     1      -0.977   2.236  23.658  0.00  0.00    +0.149 HD
BRANCH  19  21
ATOM     21  C   UNL     1       0.626   0.648  22.380  0.00  0.00    +0.037 A 
ATOM     22  C   UNL     1       1.349   1.465  23.250  0.00  0.00    +0.015 A 
ATOM     23  C   UNL     1       1.192  -0.535  21.903  0.00  0.00    +0.015 A 
ATOM     25  C   UNL     1       2.636   1.099  23.642  0.00  0.00    +0.024 A 
ATOM     26  C   UNL     1       2.479  -0.900  22.295  0.00  0.00    +0.024 A 
ATOM     27  C   UNL     1       3.201  -0.083  23.166  0.00  0.00    +0.029 A 
BRANCH  27   9
ATOM      9  N   UNL     1       4.503  -0.453  23.562  0.00  0.00    -0.336 N 
ATOM     31  C   UNL     1       4.816  -1.839  23.851  0.00  0.00    +0.129 C 
ATOM     32  C   UNL     1       5.543   0.548  23.693  0.00  0.00    +0.129 C 
ENDBRANCH  27   9
ENDBRANCH  19  21
ENDBRANCH  12   7
BRANCH  11  17
ATOM     17  C   UNL     1      -3.892   5.011  25.919  0.00  0.00    +0.029 C 
BRANCH  17  18
ATOM     18  C   UNL     1      -2.804   4.486  26.845  0.00  0.00    +0.097 C 
BRANCH  18  20
ATOM      4  O   UNL     1      -0.997   4.272  25.247  0.00  0.00    -0.276 OA
ATOM      8  N   UNL     1      -1.655   2.408  26.464  0.00  0.00    -0.311 N 
ATOM     20  C   UNL     1      -1.719   3.741  26.087  0.00  0.00    +0.213 C 
ATOM     38  H   UNL     1      -2.269   2.054  27.191  0.00  0.00    +0.149 HD
BRANCH   8  24
ATOM     24  C   UNL     1      -0.705   1.489  25.887  0.00  0.00    +0.139 C 
BRANCH  24  28
ATOM      1  F   UNL     1      -3.011  -3.537  24.821  0.00  0.00    -0.205 F 
ATOM     28  C   UNL     1      -1.320   0.149  25.602  0.00  0.00    -0.030 A 
ATOM     29  C   UNL     1      -0.578  -0.834  24.949  0.00  0.00    +0.008 A 
ATOM     30  C   UNL     1      -2.633  -0.113  25.992  0.00  0.00    +0.008 A 
ATOM     33  C   UNL     1      -1.148  -2.080  24.684  0.00  0.00    +0.038 A 
ATOM     34  C   UNL     1      -3.204  -1.358  25.728  0.00  0.00    +0.038 A 
ATOM     35  C   UNL     1      -2.462  -2.341  25.074  0.00  0.00    +0.123 A 
ENDBRANCH  24  28
ENDBRANCH   8  24
ENDBRANCH  18  20
ENDBRANCH  17  18
ENDBRANCH  11  17
TORSDOF 8
ENDMDL
MODEL 3
REMARK VINA RESULT:       5.8      2.689      3.666
REMARK  Name = 26762246
REMARK  10 active torsions:
REMARK  status: ('A' for Active; 'I' for Inactive)
REMARK    1  A    between atoms: N_7  and  C_12
REMARK    2  A    between atoms: N_8  and  C_24
REMARK    3  A    between atoms: N_9  and  C_27
REMARK    4  A    between atoms: N_9  and  C_31
REMARK    5  A    between atoms: N_9  and  C_32
REMARK    6  A    between atoms: C_11  and  C_17
REMARK    7  A    between atoms: C_17  and  C_18
REMARK    8  A    between atoms: C_18  and  C_20
REMARK    9  A    between atoms: C_19  and  C_21
REMARK   10  A    between atoms: C_24  and  C_28
REMARK                            x       y       z     vdW  Elec       q    Type
REMARK                         _______ _______ _______ _____ _____    ______ ____
ROOT
ATOM      2  O   UNL     1      -4.328  -0.600  25.667  0.00  0.00    -0.274 OA
ATOM      5  N   UNL     1      -3.315   2.276  23.875  0.00  0.00    -0.285 NA
ATOM      6  N   UNL     1      -4.708   1.616  26.134  0.00  0.00    -0.313 N 
ATOM     10  C   UNL     1      -4.004   0.983  23.888  0.00  0.00    +0.145 C 
ATOM     11  C   UNL     1      -4.212   3.327  24.361  0.00  0.00    +0.075 C 
ATOM     12  C   UNL     1      -2.303   1.021  22.181  0.00  0.00    +0.089 C 
ATOM     13  C   UNL     1      -3.022   0.080  23.155  0.00  0.00    +0.052 C 
ATOM     14  C   UNL     1      -2.836   2.422  22.502  0.00  0.00    +0.107 C 
ATOM     15  C   UNL     1      -4.490   3.024  25.839  0.00  0.00    +0.123 C 
ATOM     16  C   UNL     1      -4.318   0.577  25.309  0.00  0.00    +0.230 C 
ATOM     36  H   UNL     1      -4.999   1.379  27.077  0.00  0.00    +0.149 HD
ENDROOT
BRANCH  12   7
ATOM      3  O   UNL     1      -0.862  -0.838  23.827  0.00  0.00    -0.270 OA
ATOM      7  N   UNL     1      -0.872   0.942  22.340  0.00  0.00    -0.307 N 
ATOM     19  C   UNL     1      -0.264   0.004  23.162  0.00  0.00    +0.244 C 
ATOM     37  H   UNL     1      -0.322   1.677  21.910  0.00  0.00    +0.149 HD
BRANCH  19  21
ATOM     21  C   UNL     1       1.218   0.070  23.240  0.00  0.00    +0.037 A 
ATOM     22  C   UNL     1       1.870   1.297  23.127  0.00  0.00    +0.015 A 
ATOM     23  C   UNL     1       1.958  -1.098  23.426  0.00  0.00    +0.015 A 
ATOM     25  C   UNL     1       3.261   1.358  23.199  0.00  0.00    +0.024 A 
ATOM     26  C   UNL     1       3.350  -1.037  23.498  0.00  0.00    +0.024 A 
ATOM     27  C   UNL     1       4.001   0.191  23.385  0.00  0.00    +0.029 A 
BRANCH  27   9
ATOM      9  N   UNL     1       5.408   0.251  23.458  0.00  0.00    -0.336 N 
ATOM     31  C   UNL     1       6.223  -0.677  22.700  0.00  0.00    +0.129 C 
ATOM     32  C   UNL     1       6.058   1.238  24.298  0.00  0.00    +0.129 C 
ENDBRANCH  27   9
ENDBRANCH  19  21
ENDBRANCH  12   7
BRANCH  11  17
ATOM     17  C   UNL     1      -3.617   4.731  24.229  0.00  0.00    +0.029 C 
BRANCH  17  18
ATOM     18  C   UNL     1      -2.756   5.079  25.435  0.00  0.00    +0.097 C 
BRANCH  18  20
ATOM      4  O   UNL     1      -0.506   5.288  24.566  0.00  0.00    -0.276 OA
ATOM      8  N   UNL     1      -1.027   3.482  25.927  0.00  0.00    -0.311 N 
ATOM     20  C   UNL     1      -1.310   4.656  25.245  0.00  0.00    +0.213 C 
ATOM     38  H   UNL     1      -1.742   3.037  26.493  0.00  0.00    +0.149 HD
BRANCH   8  24
ATOM     24  C   UNL     1       0.282   2.874  25.904  0.00  0.00    +0.139 C 
BRANCH  24  28
ATOM      1  F   UNL     1       2.345   2.112  31.088  0.00  0.00    -0.205 F 
ATOM     28  C   UNL     1       0.832   2.670  27.286  0.00  0.00    -0.030 A 
ATOM     29  C   UNL     1       2.183   2.903  27.540  0.00  0.00    +0.008 A 
ATOM     30  C   UNL     1      -0.009   2.249  28.316  0.00  0.00    +0.008 A 
ATOM     33  C   UNL     1       2.696   2.715  28.824  0.00  0.00    +0.038 A 
ATOM     34  C   UNL     1       0.503   2.061  29.601  0.00  0.00    +0.038 A 
ATOM     35  C   UNL     1       1.854   2.293  29.854  0.00  0.00    +0.123 A 
ENDBRANCH  24  28
ENDBRANCH   8  24
ENDBRANCH  18  20
ENDBRANCH  17  18
ENDBRANCH  11  17
TORSDOF 8
ENDMDL
MODEL 4
REMARK VINA RESULT:       6.9      2.304      3.952
REMARK  Name = 26762246
REMARK  10 active torsions:
REMARK  status: ('A' for Active; 'I' for Inactive)
REMARK    1  A    between atoms: N_7  and  C_12
REMARK    2  A    between atoms: N_8  and  C_24
REMARK    3  A    between atoms: N_9  and  C_27
REMARK    4  A    between atoms: N_9  and  C_31
REMARK    5  A    between atoms: N_9  and  C_32
REMARK    6  A    between atoms: C_11  and  C_17
REMARK    7  A    between atoms: C_17  and  C_18
REMARK    8  A    between atoms: C_18  and  C_20
REMARK    9  A    between atoms: C_19  and  C_21
REMARK   10  A    between atoms: C_24  and  C_28
REMARK                            x       y       z     vdW  Elec       q    Type
REMARK                         _______ _______ _______ _____ _____    ______ ____
ROOT
ATOM      2  O   UNL     1      -0.358  -2.264  25.391  0.00  0.00    -0.274 OA
ATOM      5  N   UNL     1       0.269   1.118  24.569  0.00  0.00    -0.285 NA
ATOM      6  N   UNL     1      -0.946  -0.356  26.525  0.00  0.00    -0.313 N 
ATOM     10  C   UNL     1      -0.280  -0.186  24.187  0.00  0.00    +0.145 C 
ATOM     11  C   UNL     1      -0.710   1.861  25.365  0.00  0.00    +0.075 C 
ATOM     12  C   UNL     1       1.331   0.567  22.560  0.00  0.00    +0.089 C 
ATOM     13  C   UNL     1       0.758  -0.703  23.201  0.00  0.00    +0.052 C 
ATOM     14  C   UNL     1       0.670   1.731  23.304  0.00  0.00    +0.107 C 
ATOM     15  C   UNL     1      -0.889   1.089  26.680  0.00  0.00    +0.123 C 
ATOM     16  C   UNL     1      -0.486  -1.041  25.415  0.00  0.00    +0.230 C 
ATOM     36  H   UNL     1      -1.169  -0.904  27.351  0.00  0.00    +0.149 HD
ENDROOT
BRANCH  12   7
ATOM      3  O   UNL     1       3.016  -1.473  23.675  0.00  0.00    -0.270 OA
ATOM      7  N   UNL     1       2.768   0.604  22.672  0.00  0.00    -0.307 N 
ATOM     19  C   UNL     1       3.499  -0.435  23.229  0.00  0.00    +0.244 C 
ATOM     37  H   UNL     1       3.224   1.477  22.427  0.00  0.00    +0.149 HD
BRANCH  19  21
ATOM     21  C   UNL     1       4.970  -0.232  23.297  0.00  0.00    +0.037 A 
ATOM     22  C   UNL     1       5.828  -1.118  22.648  0.00  0.00    +0.015 A 
ATOM     23  C   UNL     1       5.492   0.846  24.013  0.00  0.00    +0.015 A 
ATOM     25  C   UNL     1       7.208  -0.927  22.713  0.00  0.00    +0.024 A 
ATOM     26  C   UNL     1       6.871   1.036  24.079  0.00  0.00    +0.024 A 
ATOM     27  C   UNL     1       7.730   0.150  23.428  0.00  0.00    +0.029 A 
BRANCH  27   9
ATOM      9  N   UNL     1       9.125   0.344  23.495  0.00  0.00    -0.336 N 
ATOM     31  C   UNL     1      10.018  -0.460  22.683  0.00  0.00    +0.129 C 
ATOM     32  C   UNL     1       9.686   1.343  24.383  0.00  0.00    +0.129 C 
ENDBRANCH  27   9
ENDBRANCH  19  21
ENDBRANCH  12   7
BRANCH  11  17
ATOM     17  C   UNL     1      -0.271   3.295  25.670  0.00  0.00    +0.029 C 
BRANCH  17  18
ATOM     18  C   UNL     1      -1.347   4.296  25.272  0.00  0.00    +0.097 C 
BRANCH  18  20
ATOM      4  O   UNL     1      -3.565   3.882  26.150  0.00  0.00    -0.276 OA
ATOM      8  N   UNL     1      -2.926   2.857  24.168  0.00  0.00    -0.311 N 
ATOM     20  C   UNL     1      -2.732   3.675  25.272  0.00  0.00    +0.213 C 
ATOM     38  H   UNL     1      -2.195   2.762  23.470  0.00  0.00    +0.149 HD
BRANCH   8  24
ATOM     24  C   UNL     1      -4.163   2.150  23.940  0.00  0.00    +0.139 C 
BRANCH  24  28
ATOM      1  F   UNL     1      -3.725  -3.328  25.168  0.00  0.00    -0.205 F 
ATOM     28  C   UNL     1      -4.046   0.690  24.267  0.00  0.00    -0.030 A 
ATOM     29  C   UNL     1      -4.175   0.258  25.587  0.00  0.00    +0.008 A 
ATOM     30  C   UNL     1      -3.809  -0.236  23.251  0.00  0.00    +0.008 A 
ATOM     33  C   UNL     1      -4.066  -1.098  25.893  0.00  0.00    +0.038 A 
ATOM     34  C   UNL     1      -3.700  -1.594  23.556  0.00  0.00    +0.038 A 
ATOM     35  C   UNL     1      -3.829  -2.024  24.876  0.00  0.00    +0.123 A 
ENDBRANCH  24  28
ENDBRANCH   8  24
ENDBRANCH  18  20
ENDBRANCH  17  18
ENDBRANCH  11  17
TORSDOF 8
ENDMDL
