MODEL 1
REMARK VINA RESULT:      -3.0      0.000      0.000
REMARK  Name = 75537080
REMARK  4 active torsions:
REMARK  status: ('A' for Active; 'I' for Inactive)
REMARK    1  A    between atoms: N_4  and  C_12
REMARK    2  A    between atoms: N_5  and  C_13
REMARK    3  A    between atoms: C_12  and  C_14
REMARK    4  A    between atoms: C_13  and  C_15
REMARK                            x       y       z     vdW  Elec       q    Type
REMARK                         _______ _______ _______ _____ _____    ______ ____
ROOT
ATOM      2  O   UNL     1      17.321  -5.265  24.979  0.00  0.00    -0.252 OA
ATOM      3  N   UNL     1      17.240  -6.026  27.200  0.00  0.00    -0.278 N 
ATOM      4  N   UNL     1      16.413  -7.521  29.435  0.00  0.00    -0.295 NA
ATOM      5  N   UNL     1      17.371  -3.813  26.837  0.00  0.00    -0.279 N 
ATOM      6  C   UNL     1      17.376  -5.448  28.521  0.00  0.00    +0.109 C 
ATOM      7  C   UNL     1      16.340  -6.047  29.473  0.00  0.00    +0.109 C 
ATOM      8  C   UNL     1      17.233  -3.948  28.277  0.00  0.00    +0.133 C 
ATOM      9  C   UNL     1      17.151  -7.465  27.061  0.00  0.00    +0.125 C 
ATOM     10  C   UNL     1      16.148  -8.026  28.072  0.00  0.00    +0.104 C 
ATOM     11  C   UNL     1      17.316  -5.063  26.186  0.00  0.00    +0.305 C 
ENDROOT
BRANCH   4  12
ATOM     12  C   UNL     1      15.467  -8.103  30.386  0.00  0.00    +0.119 C 
BRANCH  12  14
ATOM     14  C   UNL     1      14.495  -7.079  30.906  0.00  0.00    -0.033 A 
ATOM     16  C   UNL     1      14.840  -6.282  31.998  0.00  0.00    +0.005 A 
ATOM     17  C   UNL     1      13.250  -6.926  30.298  0.00  0.00    +0.005 A 
ATOM     20  C   UNL     1      13.939  -5.332  32.480  0.00  0.00    +0.000 A 
ATOM     21  C   UNL     1      12.349  -5.976  30.780  0.00  0.00    +0.000 A 
ATOM     24  C   UNL     1      12.694  -5.179  31.872  0.00  0.00    +0.000 A 
ENDBRANCH  12  14
ENDBRANCH   4  12
BRANCH   5  13
ATOM     13  C   UNL     1      17.405  -2.522  26.187  0.00  0.00    +0.144 C 
BRANCH  13  15
ATOM      1  F   UNL     1      14.314  -2.462  21.476  0.00  0.00    -0.205 F 
ATOM     15  C   UNL     1      16.579  -2.506  24.929  0.00  0.00    -0.030 A 
ATOM     18  C   UNL     1      15.368  -3.197  24.880  0.00  0.00    +0.008 A 
ATOM     19  C   UNL     1      17.024  -1.800  23.811  0.00  0.00    +0.008 A 
ATOM     22  C   UNL     1      14.603  -3.182  23.714  0.00  0.00    +0.038 A 
ATOM     23  C   UNL     1      16.259  -1.785  22.645  0.00  0.00    +0.038 A 
ATOM     25  C   UNL     1      15.049  -2.476  22.596  0.00  0.00    +0.123 A 
ENDBRANCH  13  15
ENDBRANCH   5  13
TORSDOF 4
ENDMDL
MODEL 2
REMARK VINA RESULT:      -2.9      1.683      2.450
REMARK  Name = 75537080
REMARK  4 active torsions:
REMARK  status: ('A' for Active; 'I' for Inactive)
REMARK    1  A    between atoms: N_4  and  C_12
REMARK    2  A    between atoms: N_5  and  C_13
REMARK    3  A    between atoms: C_12  and  C_14
REMARK    4  A    between atoms: C_13  and  C_15
REMARK                            x       y       z     vdW  Elec       q    Type
REMARK                         _______ _______ _______ _____ _____    ______ ____
ROOT
ATOM      2  O   UNL     1      17.405  -6.053  24.047  0.00  0.00    -0.252 OA
ATOM      3  N   UNL     1      16.987  -7.255  26.022  0.00  0.00    -0.278 N 
ATOM      4  N   UNL     1      15.804  -9.131  27.752  0.00  0.00    -0.295 NA
ATOM      5  N   UNL     1      17.238  -5.027  26.165  0.00  0.00    -0.279 N 
ATOM      6  C   UNL     1      16.953  -6.976  27.442  0.00  0.00    +0.109 C 
ATOM      7  C   UNL     1      15.773  -7.695  28.098  0.00  0.00    +0.109 C 
ATOM      8  C   UNL     1      16.893  -5.451  27.510  0.00  0.00    +0.133 C 
ATOM      9  C   UNL     1      16.873  -8.625  25.565  0.00  0.00    +0.125 C 
ATOM     10  C   UNL     1      15.719  -9.322  26.290  0.00  0.00    +0.104 C 
ATOM     11  C   UNL     1      17.236  -6.107  25.258  0.00  0.00    +0.305 C 
ENDROOT
BRANCH   4  12
ATOM     12  C   UNL     1      14.715  -9.839  28.423  0.00  0.00    +0.119 C 
BRANCH  12  14
ATOM     14  C   UNL     1      14.611  -9.460  29.876  0.00  0.00    -0.033 A 
ATOM     16  C   UNL     1      13.511  -8.730  30.329  0.00  0.00    +0.005 A 
ATOM     17  C   UNL     1      15.612  -9.837  30.770  0.00  0.00    +0.005 A 
ATOM     20  C   UNL     1      13.414  -8.379  31.675  0.00  0.00    +0.000 A 
ATOM     21  C   UNL     1      15.515  -9.485  32.116  0.00  0.00    +0.000 A 
ATOM     24  C   UNL     1      14.416  -8.756  32.569  0.00  0.00    +0.000 A 
ENDBRANCH  12  14
ENDBRANCH   4  12
BRANCH   5  13
ATOM     13  C   UNL     1      17.405  -3.634  25.819  0.00  0.00    +0.144 C 
BRANCH  13  15
ATOM      1  F   UNL     1      14.156  -2.150  21.460  0.00  0.00    -0.205 F 
ATOM     15  C   UNL     1      16.537  -3.237  24.654  0.00  0.00    -0.030 A 
ATOM     18  C   UNL     1      17.095  -2.569  23.564  0.00  0.00    +0.008 A 
ATOM     19  C   UNL     1      15.175  -3.538  24.665  0.00  0.00    +0.008 A 
ATOM     22  C   UNL     1      16.290  -2.202  22.485  0.00  0.00    +0.038 A 
ATOM     23  C   UNL     1      14.371  -3.171  23.586  0.00  0.00    +0.038 A 
ATOM     25  C   UNL     1      14.929  -2.503  22.496  0.00  0.00    +0.123 A 
ENDBRANCH  13  15
ENDBRANCH   5  13
TORSDOF 4
ENDMDL
MODEL 3
REMARK VINA RESULT:      -2.6      3.616      5.024
REMARK  Name = 75537080
REMARK  4 active torsions:
REMARK  status: ('A' for Active; 'I' for Inactive)
REMARK    1  A    between atoms: N_4  and  C_12
REMARK    2  A    between atoms: N_5  and  C_13
REMARK    3  A    between atoms: C_12  and  C_14
REMARK    4  A    between atoms: C_13  and  C_15
REMARK                            x       y       z     vdW  Elec       q    Type
REMARK                         _______ _______ _______ _____ _____    ______ ____
ROOT
ATOM      2  O   UNL     1      16.917  -5.148  24.736  0.00  0.00    -0.252 OA
ATOM      3  N   UNL     1      17.050  -7.120  26.005  0.00  0.00    -0.278 N 
ATOM      4  N   UNL     1      16.380  -9.682  26.953  0.00  0.00    -0.295 NA
ATOM      5  N   UNL     1      17.336  -5.156  27.057  0.00  0.00    -0.279 N 
ATOM      6  C   UNL     1      17.405  -7.482  27.361  0.00  0.00    +0.109 C 
ATOM      7  C   UNL     1      16.448  -8.548  27.896  0.00  0.00    +0.109 C 
ATOM      8  C   UNL     1      17.370  -6.152  28.112  0.00  0.00    +0.133 C 
ATOM      9  C   UNL     1      16.812  -8.165  25.031  0.00  0.00    +0.125 C 
ATOM     10  C   UNL     1      15.898  -9.238  25.629  0.00  0.00    +0.104 C 
ATOM     11  C   UNL     1      17.084  -5.735  25.796  0.00  0.00    +0.305 C 
ENDROOT
BRANCH   4  12
ATOM     12  C   UNL     1      15.513 -10.734  27.483  0.00  0.00    +0.119 C 
BRANCH  12  14
ATOM     14  C   UNL     1      15.171 -10.501  28.930  0.00  0.00    -0.033 A 
ATOM     16  C   UNL     1      13.873 -10.138  29.290  0.00  0.00    +0.005 A 
ATOM     17  C   UNL     1      16.150 -10.648  29.912  0.00  0.00    +0.005 A 
ATOM     20  C   UNL     1      13.555  -9.922  30.631  0.00  0.00    +0.000 A 
ATOM     21  C   UNL     1      15.832 -10.432  31.253  0.00  0.00    +0.000 A 
ATOM     24  C   UNL     1      14.534 -10.069  31.612  0.00  0.00    +0.000 A 
ENDBRANCH  12  14
ENDBRANCH   4  12
BRANCH   5  13
ATOM     13  C   UNL     1      17.405  -3.739  27.337  0.00  0.00    +0.144 C 
BRANCH  13  15
ATOM      1  F   UNL     1      16.153  -2.599  32.711  0.00  0.00    -0.205 F 
ATOM     15  C   UNL     1      17.071  -3.434  28.773  0.00  0.00    -0.030 A 
ATOM     18  C   UNL     1      17.274  -2.150  29.280  0.00  0.00    +0.008 A 
ATOM     19  C   UNL     1      16.557  -4.435  29.597  0.00  0.00    +0.008 A 
ATOM     22  C   UNL     1      16.964  -1.869  30.610  0.00  0.00    +0.038 A 
ATOM     23  C   UNL     1      16.246  -4.153  30.927  0.00  0.00    +0.038 A 
ATOM     25  C   UNL     1      16.450  -2.870  31.434  0.00  0.00    +0.123 A 
ENDBRANCH  13  15
ENDBRANCH   5  13
TORSDOF 4
ENDMDL
MODEL 4
REMARK VINA RESULT:      -1.3     16.494     18.244
REMARK  Name = 75537080
REMARK  4 active torsions:
REMARK  status: ('A' for Active; 'I' for Inactive)
REMARK    1  A    between atoms: N_4  and  C_12
REMARK    2  A    between atoms: N_5  and  C_13
REMARK    3  A    between atoms: C_12  and  C_14
REMARK    4  A    between atoms: C_13  and  C_15
REMARK                            x       y       z     vdW  Elec       q    Type
REMARK                         _______ _______ _______ _____ _____    ______ ____
ROOT
ATOM      2  O   UNL     1       0.021  -2.458  22.551  0.00  0.00    -0.252 OA
ATOM      3  N   UNL     1      -1.209  -1.246  24.142  0.00  0.00    -0.278 N 
ATOM      4  N   UNL     1      -3.443  -0.270  25.546  0.00  0.00    -0.295 NA
ATOM      5  N   UNL     1       0.470  -0.203  23.076  0.00  0.00    -0.279 N 
ATOM      6  C   UNL     1      -1.127   0.052  24.778  0.00  0.00    +0.109 C 
ATOM      7  C   UNL     1      -2.517   0.678  24.893  0.00  0.00    +0.109 C 
ATOM      8  C   UNL     1      -0.146   0.824  23.897  0.00  0.00    +0.133 C 
ATOM      9  C   UNL     1      -2.191  -2.204  24.610  0.00  0.00    +0.125 C 
ATOM     10  C   UNL     1      -3.552  -1.521  24.767  0.00  0.00    +0.104 C 
ATOM     11  C   UNL     1      -0.208  -1.435  23.181  0.00  0.00    +0.305 C 
ENDROOT
BRANCH   4  12
ATOM     12  C   UNL     1      -4.761   0.341  25.715  0.00  0.00    +0.119 C 
BRANCH  12  14
ATOM     14  C   UNL     1      -4.775   1.777  25.264  0.00  0.00    -0.033 A 
ATOM     16  C   UNL     1      -5.454   2.737  26.014  0.00  0.00    +0.005 A 
ATOM     17  C   UNL     1      -4.110   2.148  24.096  0.00  0.00    +0.005 A 
ATOM     20  C   UNL     1      -5.467   4.068  25.596  0.00  0.00    +0.000 A 
ATOM     21  C   UNL     1      -4.123   3.479  23.678  0.00  0.00    +0.000 A 
ATOM     24  C   UNL     1      -4.801   4.439  24.429  0.00  0.00    +0.000 A 
ENDBRANCH  12  14
ENDBRANCH   4  12
BRANCH   5  13
ATOM     13  C   UNL     1       1.552   0.091  22.164  0.00  0.00    +0.144 C 
BRANCH  13  15
ATOM      1  F   UNL     1       6.591  -0.656  24.574  0.00  0.00    -0.205 F 
ATOM     15  C   UNL     1       2.898  -0.108  22.808  0.00  0.00    -0.030 A 
ATOM     18  C   UNL     1       3.221  -1.338  23.383  0.00  0.00    +0.008 A 
ATOM     19  C   UNL     1       3.823   0.935  22.829  0.00  0.00    +0.008 A 
ATOM     22  C   UNL     1       4.468  -1.522  23.979  0.00  0.00    +0.038 A 
ATOM     23  C   UNL     1       5.070   0.750  23.425  0.00  0.00    +0.038 A 
ATOM     25  C   UNL     1       5.393  -0.478  24.000  0.00  0.00    +0.123 A 
ENDBRANCH  13  15
ENDBRANCH   5  13
TORSDOF 4
ENDMDL
MODEL 5
REMARK VINA RESULT:      -1.0     17.155     19.221
REMARK  Name = 75537080
REMARK  4 active torsions:
REMARK  status: ('A' for Active; 'I' for Inactive)
REMARK    1  A    between atoms: N_4  and  C_12
REMARK    2  A    between atoms: N_5  and  C_13
REMARK    3  A    between atoms: C_12  and  C_14
REMARK    4  A    between atoms: C_13  and  C_15
REMARK                            x       y       z     vdW  Elec       q    Type
REMARK                         _______ _______ _______ _____ _____    ______ ____
ROOT
ATOM      2  O   UNL     1      -2.668   2.425  25.794  0.00  0.00    -0.252 OA
ATOM      3  N   UNL     1      -1.071   0.889  25.013  0.00  0.00    -0.278 N 
ATOM      4  N   UNL     1       1.212  -0.076  23.683  0.00  0.00    -0.295 NA
ATOM      5  N   UNL     1      -3.242   0.331  24.872  0.00  0.00    -0.279 N 
ATOM      6  C   UNL     1      -1.065  -0.476  24.531  0.00  0.00    +0.109 C 
ATOM      7  C   UNL     1      -0.120  -0.613  23.336  0.00  0.00    +0.109 C 
ATOM      8  C   UNL     1      -2.534  -0.758  24.223  0.00  0.00    +0.133 C 
ATOM      9  C   UNL     1       0.189   1.566  25.245  0.00  0.00    +0.125 C 
ATOM     10  C   UNL     1       1.124   1.352  24.052  0.00  0.00    +0.104 C 
ATOM     11  C   UNL     1      -2.363   1.350  25.295  0.00  0.00    +0.305 C 
ENDROOT
BRANCH   4  12
ATOM     12  C   UNL     1       2.140  -0.258  22.568  0.00  0.00    +0.119 C 
BRANCH  12  14
ATOM     14  C   UNL     1       3.572  -0.291  23.030  0.00  0.00    -0.033 A 
ATOM     16  C   UNL     1       4.388   0.827  22.851  0.00  0.00    +0.005 A 
ATOM     17  C   UNL     1       4.083  -1.437  23.638  0.00  0.00    +0.005 A 
ATOM     20  C   UNL     1       5.715   0.797  23.280  0.00  0.00    +0.000 A 
ATOM     21  C   UNL     1       5.410  -1.466  24.067  0.00  0.00    +0.000 A 
ATOM     24  C   UNL     1       6.226  -0.349  23.888  0.00  0.00    +0.000 A 
ENDBRANCH  12  14
ENDBRANCH   4  12
BRANCH   5  13
ATOM     13  C   UNL     1      -4.686   0.388  24.917  0.00  0.00    +0.144 C 
BRANCH  13  15
ATOM      1  F   UNL     1      -6.559   5.658  25.599  0.00  0.00    -0.205 F 
ATOM     15  C   UNL     1      -5.187   1.796  25.099  0.00  0.00    -0.030 A 
ATOM     18  C   UNL     1      -6.135   2.077  26.083  0.00  0.00    +0.008 A 
ATOM     19  C   UNL     1      -4.702   2.819  24.285  0.00  0.00    +0.008 A 
ATOM     22  C   UNL     1      -6.599   3.382  26.251  0.00  0.00    +0.038 A 
ATOM     23  C   UNL     1      -5.165   4.124  24.454  0.00  0.00    +0.038 A 
ATOM     25  C   UNL     1      -6.114   4.405  25.437  0.00  0.00    +0.123 A 
ENDBRANCH  13  15
ENDBRANCH   5  13
TORSDOF 4
ENDMDL
MODEL 6
REMARK VINA RESULT:      -0.7     16.390     18.192
REMARK  Name = 75537080
REMARK  4 active torsions:
REMARK  status: ('A' for Active; 'I' for Inactive)
REMARK    1  A    between atoms: N_4  and  C_12
REMARK    2  A    between atoms: N_5  and  C_13
REMARK    3  A    between atoms: C_12  and  C_14
REMARK    4  A    between atoms: C_13  and  C_15
REMARK                            x       y       z     vdW  Elec       q    Type
REMARK                         _______ _______ _______ _____ _____    ______ ____
ROOT
ATOM      2  O   UNL     1       0.080  -1.601  24.166  0.00  0.00    -0.252 OA
ATOM      3  N   UNL     1      -0.500   0.555  24.897  0.00  0.00    -0.278 N 
ATOM      4  N   UNL     1      -2.128   2.721  25.654  0.00  0.00    -0.295 NA
ATOM      5  N   UNL     1       1.112   0.356  23.346  0.00  0.00    -0.279 N 
ATOM      6  C   UNL     1      -0.005   1.903  24.712  0.00  0.00    +0.109 C 
ATOM      7  C   UNL     1      -1.170   2.878  24.540  0.00  0.00    +0.109 C 
ATOM      8  C   UNL     1       0.919   1.786  23.502  0.00  0.00    +0.133 C 
ATOM      9  C   UNL     1      -1.552   0.311  25.864  0.00  0.00    +0.125 C 
ATOM     10  C   UNL     1      -2.667   1.346  25.694  0.00  0.00    +0.104 C 
ATOM     11  C   UNL     1       0.215  -0.385  24.144  0.00  0.00    +0.305 C 
ENDROOT
BRANCH   4  12
ATOM     12  C   UNL     1      -3.215   3.691  25.531  0.00  0.00    +0.119 C 
BRANCH  12  14
ATOM     14  C   UNL     1      -4.554   3.018  25.391  0.00  0.00    -0.033 A 
ATOM     16  C   UNL     1      -4.896   2.391  24.192  0.00  0.00    +0.005 A 
ATOM     17  C   UNL     1      -5.451   3.019  26.458  0.00  0.00    +0.005 A 
ATOM     20  C   UNL     1      -6.137   1.766  24.062  0.00  0.00    +0.000 A 
ATOM     21  C   UNL     1      -6.692   2.394  26.327  0.00  0.00    +0.000 A 
ATOM     24  C   UNL     1      -7.034   1.768  25.129  0.00  0.00    +0.000 A 
ENDBRANCH  12  14
ENDBRANCH   4  12
BRANCH   5  13
ATOM     13  C   UNL     1       2.022  -0.193  22.366  0.00  0.00    +0.144 C 
BRANCH  13  15
ATOM      1  F   UNL     1       7.313  -0.394  24.291  0.00  0.00    -0.205 F 
ATOM     15  C   UNL     1       3.435  -0.247  22.880  0.00  0.00    -0.030 A 
ATOM     18  C   UNL     1       3.902  -1.396  23.520  0.00  0.00    +0.008 A 
ATOM     19  C   UNL     1       4.279   0.851  22.717  0.00  0.00    +0.008 A 
ATOM     22  C   UNL     1       5.211  -1.445  23.997  0.00  0.00    +0.038 A 
ATOM     23  C   UNL     1       5.589   0.801  23.194  0.00  0.00    +0.038 A 
ATOM     25  C   UNL     1       6.056  -0.347  23.833  0.00  0.00    +0.123 A 
ENDBRANCH  13  15
ENDBRANCH   5  13
TORSDOF 4
ENDMDL
MODEL 7
REMARK VINA RESULT:      -0.7     16.364     18.224
REMARK  Name = 75537080
REMARK  4 active torsions:
REMARK  status: ('A' for Active; 'I' for Inactive)
REMARK    1  A    between atoms: N_4  and  C_12
REMARK    2  A    between atoms: N_5  and  C_13
REMARK    3  A    between atoms: C_12  and  C_14
REMARK    4  A    between atoms: C_13  and  C_15
REMARK                            x       y       z     vdW  Elec       q    Type
REMARK                         _______ _______ _______ _____ _____    ______ ____
ROOT
ATOM      2  O   UNL     1      -0.753  -2.477  23.327  0.00  0.00    -0.252 OA
ATOM      3  N   UNL     1      -1.365  -0.584  24.575  0.00  0.00    -0.278 N 
ATOM      4  N   UNL     1      -3.016   1.385  25.719  0.00  0.00    -0.295 NA
ATOM      5  N   UNL     1       0.442  -0.445  23.248  0.00  0.00    -0.279 N 
ATOM      6  C   UNL     1      -0.808   0.723  24.854  0.00  0.00    +0.109 C 
ATOM      7  C   UNL     1      -1.908   1.786  24.829  0.00  0.00    +0.109 C 
ATOM      8  C   UNL     1       0.272   0.892  23.789  0.00  0.00    +0.133 C 
ATOM      9  C   UNL     1      -2.548  -1.019  25.289  0.00  0.00    +0.125 C 
ATOM     10  C   UNL     1      -3.597   0.096  25.289  0.00  0.00    +0.104 C 
ATOM     11  C   UNL     1      -0.579  -1.318  23.677  0.00  0.00    +0.305 C 
ENDROOT
BRANCH   4  12
ATOM     12  C   UNL     1      -4.046   2.423  25.748  0.00  0.00    +0.119 C 
BRANCH  12  14
ATOM     14  C   UNL     1      -3.545   3.726  25.186  0.00  0.00    -0.033 A 
ATOM     16  C   UNL     1      -2.449   4.362  25.770  0.00  0.00    +0.005 A 
ATOM     17  C   UNL     1      -4.174   4.297  24.080  0.00  0.00    +0.005 A 
ATOM     20  C   UNL     1      -1.984   5.569  25.249  0.00  0.00    +0.000 A 
ATOM     21  C   UNL     1      -3.709   5.504  23.559  0.00  0.00    +0.000 A 
ATOM     24  C   UNL     1      -2.614   6.140  24.143  0.00  0.00    +0.000 A 
ENDBRANCH  12  14
ENDBRANCH   4  12
BRANCH   5  13
ATOM     13  C   UNL     1       1.464  -0.754  22.273  0.00  0.00    +0.144 C 
BRANCH  13  15
ATOM      1  F   UNL     1       6.635   0.323  24.235  0.00  0.00    -0.205 F 
ATOM     15  C   UNL     1       2.845  -0.467  22.797  0.00  0.00    -0.030 A 
ATOM     18  C   UNL     1       3.445   0.768  22.543  0.00  0.00    +0.008 A 
ATOM     19  C   UNL     1       3.526  -1.433  23.537  0.00  0.00    +0.008 A 
ATOM     22  C   UNL     1       4.725   1.033  23.029  0.00  0.00    +0.038 A 
ATOM     23  C   UNL     1       4.806  -1.166  24.023  0.00  0.00    +0.038 A 
ATOM     25  C   UNL     1       5.406   0.067  23.769  0.00  0.00    +0.123 A 
ENDBRANCH  13  15
ENDBRANCH   5  13
TORSDOF 4
ENDMDL
MODEL 8
REMARK VINA RESULT:      -0.6     17.000     18.898
REMARK  Name = 75537080
REMARK  4 active torsions:
REMARK  status: ('A' for Active; 'I' for Inactive)
REMARK    1  A    between atoms: N_4  and  C_12
REMARK    2  A    between atoms: N_5  and  C_13
REMARK    3  A    between atoms: C_12  and  C_14
REMARK    4  A    between atoms: C_13  and  C_15
REMARK                            x       y       z     vdW  Elec       q    Type
REMARK                         _______ _______ _______ _____ _____    ______ ____
ROOT
ATOM      2  O   UNL     1       1.261   1.598  25.394  0.00  0.00    -0.252 OA
ATOM      3  N   UNL     1      -0.541   2.701  24.368  0.00  0.00    -0.278 N 
ATOM      4  N   UNL     1      -2.963   4.110  24.128  0.00  0.00    -0.295 NA
ATOM      5  N   UNL     1       0.165   0.762  23.481  0.00  0.00    -0.279 N 
ATOM      6  C   UNL     1      -1.326   2.546  23.162  0.00  0.00    +0.109 C 
ATOM      7  C   UNL     1      -2.805   2.807  23.452  0.00  0.00    +0.109 C 
ATOM      8  C   UNL     1      -1.003   1.127  22.699  0.00  0.00    +0.133 C 
ATOM      9  C   UNL     1      -0.727   3.880  25.190  0.00  0.00    +0.125 C 
ATOM     10  C   UNL     1      -2.221   4.135  25.405  0.00  0.00    +0.104 C 
ATOM     11  C   UNL     1       0.406   1.681  24.523  0.00  0.00    +0.305 C 
ENDROOT
BRANCH   4  12
ATOM     12  C   UNL     1      -4.379   4.396  24.356  0.00  0.00    +0.119 C 
BRANCH  12  14
ATOM     14  C   UNL     1      -5.088   3.237  25.004  0.00  0.00    -0.033 A 
ATOM     16  C   UNL     1      -5.157   2.008  24.348  0.00  0.00    +0.005 A 
ATOM     17  C   UNL     1      -5.674   3.391  26.260  0.00  0.00    +0.005 A 
ATOM     20  C   UNL     1      -5.813   0.933  24.948  0.00  0.00    +0.000 A 
ATOM     21  C   UNL     1      -6.330   2.316  26.860  0.00  0.00    +0.000 A 
ATOM     24  C   UNL     1      -6.399   1.087  26.204  0.00  0.00    +0.000 A 
ENDBRANCH  12  14
ENDBRANCH   4  12
BRANCH   5  13
ATOM     13  C   UNL     1       0.869  -0.483  23.272  0.00  0.00    +0.144 C 
BRANCH  13  15
ATOM      1  F   UNL     1       6.455   0.250  23.203  0.00  0.00    -0.205 F 
ATOM     15  C   UNL     1       2.361  -0.287  23.254  0.00  0.00    -0.030 A 
ATOM     18  C   UNL     1       3.200  -1.259  23.802  0.00  0.00    +0.008 A 
ATOM     19  C   UNL     1       2.907   0.865  22.688  0.00  0.00    +0.008 A 
ATOM     22  C   UNL     1       4.582  -1.076  23.785  0.00  0.00    +0.038 A 
ATOM     23  C   UNL     1       4.289   1.046  22.671  0.00  0.00    +0.038 A 
ATOM     25  C   UNL     1       5.127   0.076  23.219  0.00  0.00    +0.123 A 
ENDBRANCH  13  15
ENDBRANCH   5  13
TORSDOF 4
ENDMDL
MODEL 9
REMARK VINA RESULT:      -0.4     17.046     19.214
REMARK  Name = 75537080
REMARK  4 active torsions:
REMARK  status: ('A' for Active; 'I' for Inactive)
REMARK    1  A    between atoms: N_4  and  C_12
REMARK    2  A    between atoms: N_5  and  C_13
REMARK    3  A    between atoms: C_12  and  C_14
REMARK    4  A    between atoms: C_13  and  C_15
REMARK                            x       y       z     vdW  Elec       q    Type
REMARK                         _______ _______ _______ _____ _____    ______ ____
ROOT
ATOM      2  O   UNL     1      -1.554   4.027  24.884  0.00  0.00    -0.252 OA
ATOM      3  N   UNL     1      -0.524   2.012  24.255  0.00  0.00    -0.278 N 
ATOM      4  N   UNL     1       1.449   0.270  23.264  0.00  0.00    -0.295 NA
ATOM      5  N   UNL     1      -2.671   2.336  23.678  0.00  0.00    -0.279 N 
ATOM      6  C   UNL     1      -0.932   0.760  23.653  0.00  0.00    +0.109 C 
ATOM      7  C   UNL     1       0.112   0.294  22.637  0.00  0.00    +0.109 C 
ATOM      8  C   UNL     1      -2.306   1.071  23.064  0.00  0.00    +0.133 C 
ATOM      9  C   UNL     1       0.823   2.147  24.770  0.00  0.00    +0.125 C 
ATOM     10  C   UNL     1       1.829   1.614  23.746  0.00  0.00    +0.104 C 
ATOM     11  C   UNL     1      -1.579   2.929  24.346  0.00  0.00    +0.305 C 
ENDROOT
BRANCH   4  12
ATOM     12  C   UNL     1       2.446  -0.232  22.319  0.00  0.00    +0.119 C 
BRANCH  12  14
ATOM     14  C   UNL     1       3.802  -0.371  22.956  0.00  0.00    -0.033 A 
ATOM     16  C   UNL     1       4.144  -1.551  23.618  0.00  0.00    +0.005 A 
ATOM     17  C   UNL     1       4.718   0.678  22.883  0.00  0.00    +0.005 A 
ATOM     20  C   UNL     1       5.401  -1.680  24.208  0.00  0.00    +0.000 A 
ATOM     21  C   UNL     1       5.975   0.548  23.473  0.00  0.00    +0.000 A 
ATOM     24  C   UNL     1       6.317  -0.631  24.136  0.00  0.00    +0.000 A 
ENDBRANCH  12  14
ENDBRANCH   4  12
BRANCH   5  13
ATOM     13  C   UNL     1      -3.967   2.943  23.472  0.00  0.00    +0.144 C 
BRANCH  13  15
ATOM      1  F   UNL     1      -7.588   1.601  27.576  0.00  0.00    -0.205 F 
ATOM     15  C   UNL     1      -4.934   2.584  24.568  0.00  0.00    -0.030 A 
ATOM     18  C   UNL     1      -5.342   1.260  24.734  0.00  0.00    +0.008 A 
ATOM     19  C   UNL     1      -5.423   3.576  25.419  0.00  0.00    +0.008 A 
ATOM     22  C   UNL     1      -6.238   0.929  25.750  0.00  0.00    +0.038 A 
ATOM     23  C   UNL     1      -6.320   3.243  26.435  0.00  0.00    +0.038 A 
ATOM     25  C   UNL     1      -6.727   1.920  26.600  0.00  0.00    +0.123 A 
ENDBRANCH  13  15
ENDBRANCH   5  13
TORSDOF 4
ENDMDL
MODEL 10
REMARK VINA RESULT:       0.7     17.152     19.001
REMARK  Name = 75537080
REMARK  4 active torsions:
REMARK  status: ('A' for Active; 'I' for Inactive)
REMARK    1  A    between atoms: N_4  and  C_12
REMARK    2  A    between atoms: N_5  and  C_13
REMARK    3  A    between atoms: C_12  and  C_14
REMARK    4  A    between atoms: C_13  and  C_15
REMARK                            x       y       z     vdW  Elec       q    Type
REMARK                         _______ _______ _______ _____ _____    ______ ____
ROOT
ATOM      2  O   UNL     1      -0.638   4.723  25.287  0.00  0.00    -0.252 OA
ATOM      3  N   UNL     1      -2.340   3.340  24.446  0.00  0.00    -0.278 N 
ATOM      4  N   UNL     1      -4.583   1.642  24.445  0.00  0.00    -0.295 NA
ATOM      5  N   UNL     1      -0.263   3.087  23.629  0.00  0.00    -0.279 N 
ATOM      6  C   UNL     1      -2.483   2.367  23.384  0.00  0.00    +0.109 C 
ATOM      7  C   UNL     1      -3.309   1.172  23.864  0.00  0.00    +0.109 C 
ATOM      8  C   UNL     1      -1.043   2.037  22.998  0.00  0.00    +0.133 C 
ATOM      9  C   UNL     1      -3.513   3.761  25.186  0.00  0.00    +0.125 C 
ATOM     10  C   UNL     1      -4.339   2.538  25.594  0.00  0.00    +0.104 C 
ATOM     11  C   UNL     1      -1.033   3.833  24.546  0.00  0.00    +0.305 C 
ENDROOT
BRANCH   4  12
ATOM     12  C   UNL     1      -5.407   0.504  24.853  0.00  0.00    +0.119 C 
BRANCH  12  14
ATOM     14  C   UNL     1      -4.624  -0.782  24.856  0.00  0.00    -0.033 A 
ATOM     16  C   UNL     1      -4.701  -1.646  23.764  0.00  0.00    +0.005 A 
ATOM     17  C   UNL     1      -3.822  -1.108  25.949  0.00  0.00    +0.005 A 
ATOM     20  C   UNL     1      -3.976  -2.838  23.766  0.00  0.00    +0.000 A 
ATOM     21  C   UNL     1      -3.097  -2.300  25.950  0.00  0.00    +0.000 A 
ATOM     24  C   UNL     1      -3.174  -3.165  24.859  0.00  0.00    +0.000 A 
ENDBRANCH  12  14
ENDBRANCH   4  12
BRANCH   5  13
ATOM     13  C   UNL     1       1.162   3.213  23.424  0.00  0.00    +0.144 C 
BRANCH  13  15
ATOM      1  F   UNL     1       3.701  -1.812  23.182  0.00  0.00    -0.205 F 
ATOM     15  C   UNL     1       1.840   1.871  23.359  0.00  0.00    -0.030 A 
ATOM     18  C   UNL     1       1.121   0.711  23.651  0.00  0.00    +0.008 A 
ATOM     19  C   UNL     1       3.187   1.786  23.008  0.00  0.00    +0.008 A 
ATOM     22  C   UNL     1       1.750  -0.532  23.591  0.00  0.00    +0.038 A 
ATOM     23  C   UNL     1       3.815   0.542  22.948  0.00  0.00    +0.038 A 
ATOM     25  C   UNL     1       3.097  -0.617  23.239  0.00  0.00    +0.123 A 
ENDBRANCH  13  15
ENDBRANCH   5  13
TORSDOF 4
ENDMDL
