MODEL 1
REMARK VINA RESULT:      -5.7      0.000      0.000
REMARK  Name = 51137608
REMARK  6 active torsions:
REMARK  status: ('A' for Active; 'I' for Inactive)
REMARK    1  A    between atoms: O_3  and  C_17
REMARK    2  A    between atoms: O_3  and  C_20
REMARK    3  A    between atoms: N_4  and  C_13
REMARK    4  A    between atoms: C_9  and  C_14
REMARK    5  A    between atoms: C_13  and  C_15
REMARK    6  A    between atoms: C_16  and  C_17
REMARK                            x       y       z     vdW  Elec       q    Type
REMARK                         _______ _______ _______ _____ _____    ______ ____
ROOT
ATOM      2  O   UNL     1      -3.216   2.200  24.640  0.00  0.00    -0.421 OA
ATOM      5  N   UNL     1      -3.251   4.419  24.917  0.00  0.00    -0.112 NA
ATOM      8  N   UNL     1      -4.547   3.954  25.040  0.00  0.00    -0.109 NA
ATOM     14  C   UNL     1      -2.509   3.362  24.685  0.00  0.00    +0.222 A 
ATOM     16  C   UNL     1      -4.479   2.654  24.870  0.00  0.00    +0.254 A 
ENDROOT
BRANCH  14   9
ATOM      4  N   UNL     1       0.677   1.774  23.819  0.00  0.00    -0.294 NA
ATOM      9  C   UNL     1      -1.017   3.261  24.467  0.00  0.00    +0.092 C 
ATOM     10  C   UNL     1      -0.212   2.827  25.704  0.00  0.00    +0.029 C 
ATOM     11  C   UNL     1      -0.639   2.243  23.382  0.00  0.00    +0.097 C 
ATOM     12  C   UNL     1       0.549   1.583  25.264  0.00  0.00    +0.085 C 
BRANCH   4  13
ATOM     13  C   UNL     1       1.091   0.559  23.133  0.00  0.00    +0.158 C 
BRANCH  13  15
ATOM      6  N   UNL     1       3.163  -0.819  23.418  0.00  0.00    -0.347 N 
ATOM      7  N   UNL     1       3.487   1.318  22.910  0.00  0.00    -0.239 NA
ATOM     15  C   UNL     1       2.587   0.389  23.144  0.00  0.00    +0.121 A 
ATOM     18  C   UNL     1       4.518  -0.650  23.353  0.00  0.00    +0.104 A 
ATOM     19  C   UNL     1       4.693   0.676  23.037  0.00  0.00    +0.130 A 
ATOM     26  H   UNL     1       2.679  -1.682  23.628  0.00  0.00    +0.167 HD
ENDBRANCH  13  15
ENDBRANCH   4  13
ENDBRANCH  14   9
BRANCH  16  17
ATOM     17  C   UNL     1      -5.550   1.650  24.898  0.00  0.00    +0.326 C 
BRANCH  17   3
ATOM      3  O   UNL     1      -5.208   0.585  25.789  0.00  0.00    -0.483 OA
BRANCH   3  20
ATOM      1  F   UNL     1      -1.694  -3.180  23.872  0.00  0.00    -0.205 F 
ATOM     20  C   UNL     1      -4.334  -0.350  25.312  0.00  0.00    +0.121 A 
ATOM     21  C   UNL     1      -4.647  -1.075  24.161  0.00  0.00    +0.048 A 
ATOM     22  C   UNL     1      -3.129  -0.583  25.976  0.00  0.00    +0.048 A 
ATOM     23  C   UNL     1      -3.755  -2.031  23.675  0.00  0.00    +0.042 A 
ATOM     24  C   UNL     1      -2.237  -1.538  25.489  0.00  0.00    +0.042 A 
ATOM     25  C   UNL     1      -2.550  -2.262  24.339  0.00  0.00    +0.124 A 
ENDBRANCH   3  20
ENDBRANCH  17   3
ENDBRANCH  16  17
TORSDOF 6
ENDMDL
MODEL 2
REMARK VINA RESULT:      -5.7      1.704      2.428
REMARK  Name = 51137608
REMARK  6 active torsions:
REMARK  status: ('A' for Active; 'I' for Inactive)
REMARK    1  A    between atoms: O_3  and  C_17
REMARK    2  A    between atoms: O_3  and  C_20
REMARK    3  A    between atoms: N_4  and  C_13
REMARK    4  A    between atoms: C_9  and  C_14
REMARK    5  A    between atoms: C_13  and  C_15
REMARK    6  A    between atoms: C_16  and  C_17
REMARK                            x       y       z     vdW  Elec       q    Type
REMARK                         _______ _______ _______ _____ _____    ______ ____
ROOT
ATOM      2  O   UNL     1      -2.283   2.905  25.843  0.00  0.00    -0.421 OA
ATOM      5  N   UNL     1      -0.648   4.240  25.103  0.00  0.00    -0.112 NA
ATOM      8  N   UNL     1      -1.785   5.009  25.267  0.00  0.00    -0.109 NA
ATOM     14  C   UNL     1      -0.985   3.021  25.451  0.00  0.00    +0.222 A 
ATOM     16  C   UNL     1      -2.714   4.189  25.700  0.00  0.00    +0.254 A 
ENDROOT
BRANCH  14   9
ATOM      4  N   UNL     1       1.040   0.282  24.099  0.00  0.00    -0.294 NA
ATOM      9  C   UNL     1      -0.151   1.760  25.476  0.00  0.00    +0.092 C 
ATOM     10  C   UNL     1      -0.949   0.455  25.310  0.00  0.00    +0.029 C 
ATOM     11  C   UNL     1       0.901   1.716  24.360  0.00  0.00    +0.097 C 
ATOM     12  C   UNL     1      -0.328  -0.236  24.103  0.00  0.00    +0.085 C 
BRANCH   4  13
ATOM     13  C   UNL     1       1.733   0.009  22.848  0.00  0.00    +0.158 C 
BRANCH  13  15
ATOM      6  N   UNL     1       3.802  -1.171  23.624  0.00  0.00    -0.347 N 
ATOM      7  N   UNL     1       4.117   0.823  22.699  0.00  0.00    -0.239 NA
ATOM     15  C   UNL     1       3.224  -0.078  23.040  0.00  0.00    +0.121 A 
ATOM     18  C   UNL     1       5.151  -0.951  23.656  0.00  0.00    +0.104 A 
ATOM     19  C   UNL     1       5.321   0.285  23.079  0.00  0.00    +0.130 A 
ATOM     26  H   UNL     1       3.323  -1.992  23.968  0.00  0.00    +0.167 HD
ENDBRANCH  13  15
ENDBRANCH   4  13
ENDBRANCH  14   9
BRANCH  16  17
ATOM     17  C   UNL     1      -4.115   4.461  26.044  0.00  0.00    +0.326 C 
BRANCH  17   3
ATOM      3  O   UNL     1      -4.987   3.875  25.074  0.00  0.00    -0.483 OA
BRANCH   3  20
ATOM      1  F   UNL     1      -3.839  -1.278  23.547  0.00  0.00    -0.205 F 
ATOM     20  C   UNL     1      -4.702   2.594  24.694  0.00  0.00    +0.121 A 
ATOM     21  C   UNL     1      -5.170   1.521  25.453  0.00  0.00    +0.048 A 
ATOM     22  C   UNL     1      -3.942   2.358  23.548  0.00  0.00    +0.048 A 
ATOM     23  C   UNL     1      -4.879   0.213  25.066  0.00  0.00    +0.042 A 
ATOM     24  C   UNL     1      -3.651   1.050  23.161  0.00  0.00    +0.042 A 
ATOM     25  C   UNL     1      -4.119  -0.022  23.919  0.00  0.00    +0.124 A 
ENDBRANCH   3  20
ENDBRANCH  17   3
ENDBRANCH  16  17
TORSDOF 6
ENDMDL
MODEL 3
REMARK VINA RESULT:      -5.5      2.569      3.862
REMARK  Name = 51137608
REMARK  6 active torsions:
REMARK  status: ('A' for Active; 'I' for Inactive)
REMARK    1  A    between atoms: O_3  and  C_17
REMARK    2  A    between atoms: O_3  and  C_20
REMARK    3  A    between atoms: N_4  and  C_13
REMARK    4  A    between atoms: C_9  and  C_14
REMARK    5  A    between atoms: C_13  and  C_15
REMARK    6  A    between atoms: C_16  and  C_17
REMARK                            x       y       z     vdW  Elec       q    Type
REMARK                         _______ _______ _______ _____ _____    ______ ____
ROOT
ATOM      2  O   UNL     1      -3.560   0.896  25.515  0.00  0.00    -0.421 OA
ATOM      5  N   UNL     1      -3.626  -0.865  24.137  0.00  0.00    -0.112 NA
ATOM      8  N   UNL     1      -4.917  -0.394  24.290  0.00  0.00    -0.109 NA
ATOM     14  C   UNL     1      -2.869  -0.082  24.870  0.00  0.00    +0.222 A 
ATOM     16  C   UNL     1      -4.831   0.633  25.102  0.00  0.00    +0.254 A 
ENDROOT
BRANCH  14   9
ATOM      4  N   UNL     1       0.677  -0.193  23.952  0.00  0.00    -0.294 NA
ATOM      9  C   UNL     1      -1.373  -0.117  25.088  0.00  0.00    +0.092 C 
ATOM     10  C   UNL     1      -0.771  -1.527  25.208  0.00  0.00    +0.029 C 
ATOM     11  C   UNL     1      -0.588   0.545  23.948  0.00  0.00    +0.097 C 
ATOM     12  C   UNL     1       0.294  -1.595  24.121  0.00  0.00    +0.085 C 
BRANCH   4  13
ATOM     13  C   UNL     1       1.454   0.027  22.740  0.00  0.00    +0.158 C 
BRANCH  13  15
ATOM      6  N   UNL     1       3.608  -1.014  23.481  0.00  0.00    -0.347 N 
ATOM      7  N   UNL     1       3.723   1.122  22.882  0.00  0.00    -0.239 NA
ATOM     15  C   UNL     1       2.931   0.082  23.024  0.00  0.00    +0.121 A 
ATOM     18  C   UNL     1       4.916  -0.649  23.641  0.00  0.00    +0.104 A 
ATOM     19  C   UNL     1       4.962   0.672  23.265  0.00  0.00    +0.130 A 
ATOM     26  H   UNL     1       3.217  -1.928  23.667  0.00  0.00    +0.167 HD
ENDBRANCH  13  15
ENDBRANCH   4  13
ENDBRANCH  14   9
BRANCH  16  17
ATOM     17  C   UNL     1      -5.889   1.516  25.610  0.00  0.00    +0.326 C 
BRANCH  17   3
ATOM      3  O   UNL     1      -5.758   2.823  25.045  0.00  0.00    -0.483 OA
BRANCH   3  20
ATOM      1  F   UNL     1      -0.734   5.046  25.159  0.00  0.00    -0.205 F 
ATOM     20  C   UNL     1      -4.510   3.376  25.073  0.00  0.00    +0.121 A 
ATOM     21  C   UNL     1      -3.748   3.437  23.906  0.00  0.00    +0.048 A 
ATOM     22  C   UNL     1      -3.996   3.878  26.269  0.00  0.00    +0.048 A 
ATOM     23  C   UNL     1      -2.472   4.002  23.935  0.00  0.00    +0.042 A 
ATOM     24  C   UNL     1      -2.721   4.443  26.298  0.00  0.00    +0.042 A 
ATOM     25  C   UNL     1      -1.959   4.504  25.131  0.00  0.00    +0.124 A 
ENDBRANCH   3  20
ENDBRANCH  17   3
ENDBRANCH  16  17
TORSDOF 6
ENDMDL
MODEL 4
REMARK VINA RESULT:      -4.4      2.229      5.815
REMARK  Name = 51137608
REMARK  6 active torsions:
REMARK  status: ('A' for Active; 'I' for Inactive)
REMARK    1  A    between atoms: O_3  and  C_17
REMARK    2  A    between atoms: O_3  and  C_20
REMARK    3  A    between atoms: N_4  and  C_13
REMARK    4  A    between atoms: C_9  and  C_14
REMARK    5  A    between atoms: C_13  and  C_15
REMARK    6  A    between atoms: C_16  and  C_17
REMARK                            x       y       z     vdW  Elec       q    Type
REMARK                         _______ _______ _______ _____ _____    ______ ____
ROOT
ATOM      2  O   UNL     1      -0.432   1.038  25.091  0.00  0.00    -0.421 OA
ATOM      5  N   UNL     1       0.838   2.512  23.988  0.00  0.00    -0.112 NA
ATOM      8  N   UNL     1       1.222   1.243  23.598  0.00  0.00    -0.109 NA
ATOM     14  C   UNL     1      -0.128   2.345  24.859  0.00  0.00    +0.222 A 
ATOM     16  C   UNL     1       0.454   0.414  24.267  0.00  0.00    +0.254 A 
ENDROOT
BRANCH  14   9
ATOM      4  N   UNL     1      -2.971   4.532  25.606  0.00  0.00    -0.294 NA
ATOM      9  C   UNL     1      -0.931   3.376  25.619  0.00  0.00    +0.092 C 
ATOM     10  C   UNL     1      -0.695   4.830  25.178  0.00  0.00    +0.029 C 
ATOM     11  C   UNL     1      -2.446   3.171  25.485  0.00  0.00    +0.097 C 
ATOM     12  C   UNL     1      -2.073   5.356  24.797  0.00  0.00    +0.085 C 
BRANCH   4  13
ATOM     13  C   UNL     1      -4.357   4.635  25.174  0.00  0.00    +0.158 C 
BRANCH  13  15
ATOM      6  N   UNL     1      -5.778   3.016  26.454  0.00  0.00    -0.347 N 
ATOM      7  N   UNL     1      -5.155   2.360  24.426  0.00  0.00    -0.239 NA
ATOM     15  C   UNL     1      -5.087   3.325  25.316  0.00  0.00    +0.121 A 
ATOM     18  C   UNL     1      -6.323   1.775  26.278  0.00  0.00    +0.104 A 
ATOM     19  C   UNL     1      -5.924   1.391  25.019  0.00  0.00    +0.130 A 
ATOM     26  H   UNL     1      -5.873   3.598  27.276  0.00  0.00    +0.167 HD
ENDBRANCH  13  15
ENDBRANCH   4  13
ENDBRANCH  14   9
BRANCH  16  17
ATOM     17  C   UNL     1       0.420  -1.054  24.245  0.00  0.00    +0.326 C 
BRANCH  17   3
ATOM      3  O   UNL     1      -0.482  -1.543  25.240  0.00  0.00    -0.483 OA
BRANCH   3  20
ATOM      1  F   UNL     1      -5.611  -2.618  23.582  0.00  0.00    -0.205 F 
ATOM     20  C   UNL     1      -1.757  -1.810  24.827  0.00  0.00    +0.121 A 
ATOM     21  C   UNL     1      -2.757  -0.850  24.986  0.00  0.00    +0.048 A 
ATOM     22  C   UNL     1      -2.059  -3.043  24.248  0.00  0.00    +0.048 A 
ATOM     23  C   UNL     1      -4.059  -1.123  24.566  0.00  0.00    +0.042 A 
ATOM     24  C   UNL     1      -3.361  -3.316  23.827  0.00  0.00    +0.042 A 
ATOM     25  C   UNL     1      -4.360  -2.356  23.986  0.00  0.00    +0.124 A 
ENDBRANCH   3  20
ENDBRANCH  17   3
ENDBRANCH  16  17
TORSDOF 6
ENDMDL
MODEL 5
REMARK VINA RESULT:      -4.4      0.887      1.557
REMARK  Name = 51137608
REMARK  6 active torsions:
REMARK  status: ('A' for Active; 'I' for Inactive)
REMARK    1  A    between atoms: O_3  and  C_17
REMARK    2  A    between atoms: O_3  and  C_20
REMARK    3  A    between atoms: N_4  and  C_13
REMARK    4  A    between atoms: C_9  and  C_14
REMARK    5  A    between atoms: C_13  and  C_15
REMARK    6  A    between atoms: C_16  and  C_17
REMARK                            x       y       z     vdW  Elec       q    Type
REMARK                         _______ _______ _______ _____ _____    ______ ____
ROOT
ATOM      2  O   UNL     1      -3.927   2.281  24.549  0.00  0.00    -0.421 OA
ATOM      5  N   UNL     1      -4.123   4.492  24.827  0.00  0.00    -0.112 NA
ATOM      8  N   UNL     1      -5.348   3.916  25.108  0.00  0.00    -0.109 NA
ATOM     14  C   UNL     1      -3.325   3.501  24.506  0.00  0.00    +0.222 A 
ATOM     16  C   UNL     1      -5.188   2.625  24.932  0.00  0.00    +0.254 A 
ENDROOT
BRANCH  14   9
ATOM      4  N   UNL     1       0.144   2.339  24.307  0.00  0.00    -0.294 NA
ATOM      9  C   UNL     1      -1.867   3.528  24.107  0.00  0.00    +0.092 C 
ATOM     10  C   UNL     1      -0.940   4.250  25.100  0.00  0.00    +0.029 C 
ATOM     11  C   UNL     1      -1.262   2.125  23.960  0.00  0.00    +0.097 C 
ATOM     12  C   UNL     1       0.114   3.217  25.478  0.00  0.00    +0.085 C 
BRANCH   4  13
ATOM     13  C   UNL     1       0.848   1.092  24.567  0.00  0.00    +0.158 C 
BRANCH  13  15
ATOM      6  N   UNL     1       3.041   1.159  23.357  0.00  0.00    -0.347 N 
ATOM      7  N   UNL     1       1.447  -0.058  22.402  0.00  0.00    -0.239 NA
ATOM     15  C   UNL     1       1.752   0.709  23.425  0.00  0.00    +0.121 A 
ATOM     18  C   UNL     1       3.594   0.645  22.217  0.00  0.00    +0.104 A 
ATOM     19  C   UNL     1       2.591  -0.102  21.646  0.00  0.00    +0.130 A 
ATOM     26  H   UNL     1       3.503   1.760  24.027  0.00  0.00    +0.167 HD
ENDBRANCH  13  15
ENDBRANCH   4  13
ENDBRANCH  14   9
BRANCH  16  17
ATOM     17  C   UNL     1      -6.155   1.532  25.091  0.00  0.00    +0.326 C 
BRANCH  17   3
ATOM      3  O   UNL     1      -5.629   0.528  25.962  0.00  0.00    -0.483 OA
BRANCH   3  20
ATOM      1  F   UNL     1      -1.758  -2.757  23.857  0.00  0.00    -0.205 F 
ATOM     20  C   UNL     1      -4.667  -0.289  25.439  0.00  0.00    +0.121 A 
ATOM     21  C   UNL     1      -3.489  -0.523  26.149  0.00  0.00    +0.048 A 
ATOM     22  C   UNL     1      -4.862  -0.889  24.195  0.00  0.00    +0.048 A 
ATOM     23  C   UNL     1      -2.506  -1.356  25.615  0.00  0.00    +0.042 A 
ATOM     24  C   UNL     1      -3.880  -1.723  23.661  0.00  0.00    +0.042 A 
ATOM     25  C   UNL     1      -2.702  -1.956  24.370  0.00  0.00    +0.124 A 
ENDBRANCH   3  20
ENDBRANCH  17   3
ENDBRANCH  16  17
TORSDOF 6
ENDMDL
MODEL 6
REMARK VINA RESULT:      -4.3      3.154      7.171
REMARK  Name = 51137608
REMARK  6 active torsions:
REMARK  status: ('A' for Active; 'I' for Inactive)
REMARK    1  A    between atoms: O_3  and  C_17
REMARK    2  A    between atoms: O_3  and  C_20
REMARK    3  A    between atoms: N_4  and  C_13
REMARK    4  A    between atoms: C_9  and  C_14
REMARK    5  A    between atoms: C_13  and  C_15
REMARK    6  A    between atoms: C_16  and  C_17
REMARK                            x       y       z     vdW  Elec       q    Type
REMARK                         _______ _______ _______ _____ _____    ______ ____
ROOT
ATOM      2  O   UNL     1       0.052   1.118  23.912  0.00  0.00    -0.421 OA
ATOM      5  N   UNL     1      -0.739  -0.153  25.573  0.00  0.00    -0.112 NA
ATOM      8  N   UNL     1      -0.275  -0.993  24.578  0.00  0.00    -0.109 NA
ATOM     14  C   UNL     1      -0.528   1.068  25.142  0.00  0.00    +0.222 A 
ATOM     16  C   UNL     1       0.177  -0.208  23.628  0.00  0.00    +0.254 A 
ENDROOT
BRANCH  14   9
ATOM      4  N   UNL     1      -2.446   4.086  25.938  0.00  0.00    -0.294 NA
ATOM      9  C   UNL     1      -0.831   2.391  25.806  0.00  0.00    +0.092 C 
ATOM     10  C   UNL     1      -0.343   3.628  25.033  0.00  0.00    +0.029 C 
ATOM     11  C   UNL     1      -2.334   2.628  26.009  0.00  0.00    +0.097 C 
ATOM     12  C   UNL     1      -1.589   4.477  24.818  0.00  0.00    +0.085 C 
BRANCH   4  13
ATOM     13  C   UNL     1      -3.822   4.531  25.765  0.00  0.00    +0.158 C 
BRANCH  13  15
ATOM      6  N   UNL     1      -5.702   3.012  26.422  0.00  0.00    -0.347 N 
ATOM      7  N   UNL     1      -4.786   2.613  24.439  0.00  0.00    -0.239 NA
ATOM     15  C   UNL     1      -4.755   3.378  25.507  0.00  0.00    +0.121 A 
ATOM     18  C   UNL     1      -6.381   1.945  25.903  0.00  0.00    +0.104 A 
ATOM     19  C   UNL     1      -5.798   1.718  24.679  0.00  0.00    +0.130 A 
ATOM     26  H   UNL     1      -5.873   3.449  27.318  0.00  0.00    +0.167 HD
ENDBRANCH  13  15
ENDBRANCH   4  13
ENDBRANCH  14   9
BRANCH  16  17
ATOM     17  C   UNL     1       0.787  -0.556  22.338  0.00  0.00    +0.326 C 
BRANCH  17   3
ATOM      3  O   UNL     1       1.893   0.306  22.063  0.00  0.00    -0.483 OA
BRANCH   3  20
ATOM      1  F   UNL     1       6.591  -0.829  24.679  0.00  0.00    -0.205 F 
ATOM     20  C   UNL     1       3.061   0.024  22.713  0.00  0.00    +0.121 A 
ATOM     21  C   UNL     1       3.261  -1.239  23.272  0.00  0.00    +0.048 A 
ATOM     22  C   UNL     1       4.054   0.998  22.819  0.00  0.00    +0.048 A 
ATOM     23  C   UNL     1       4.453  -1.527  23.936  0.00  0.00    +0.042 A 
ATOM     24  C   UNL     1       5.247   0.710  23.483  0.00  0.00    +0.042 A 
ATOM     25  C   UNL     1       5.446  -0.552  24.041  0.00  0.00    +0.124 A 
ENDBRANCH   3  20
ENDBRANCH  17   3
ENDBRANCH  16  17
TORSDOF 6
ENDMDL
MODEL 7
REMARK VINA RESULT:      -4.1      2.996      6.529
REMARK  Name = 51137608
REMARK  6 active torsions:
REMARK  status: ('A' for Active; 'I' for Inactive)
REMARK    1  A    between atoms: O_3  and  C_17
REMARK    2  A    between atoms: O_3  and  C_20
REMARK    3  A    between atoms: N_4  and  C_13
REMARK    4  A    between atoms: C_9  and  C_14
REMARK    5  A    between atoms: C_13  and  C_15
REMARK    6  A    between atoms: C_16  and  C_17
REMARK                            x       y       z     vdW  Elec       q    Type
REMARK                         _______ _______ _______ _____ _____    ______ ____
ROOT
ATOM      2  O   UNL     1      -1.733  -0.180  24.198  0.00  0.00    -0.421 OA
ATOM      5  N   UNL     1      -3.118  -1.935  24.249  0.00  0.00    -0.112 NA
ATOM      8  N   UNL     1      -1.825  -2.408  24.375  0.00  0.00    -0.109 NA
ATOM     14  C   UNL     1      -3.016  -0.631  24.149  0.00  0.00    +0.222 A 
ATOM     16  C   UNL     1      -1.050  -1.349  24.339  0.00  0.00    +0.254 A 
ENDROOT
BRANCH  14   9
ATOM      4  N   UNL     1      -4.613   2.653  24.453  0.00  0.00    -0.294 NA
ATOM      9  C   UNL     1      -4.100   0.412  23.992  0.00  0.00    +0.092 C 
ATOM     10  C   UNL     1      -5.102   0.481  25.158  0.00  0.00    +0.029 C 
ATOM     11  C   UNL     1      -3.544   1.837  23.872  0.00  0.00    +0.097 C 
ATOM     12  C   UNL     1      -5.039   1.923  25.647  0.00  0.00    +0.085 C 
BRANCH   4  13
ATOM     13  C   UNL     1      -4.175   4.008  24.758  0.00  0.00    +0.158 C 
BRANCH  13  15
ATOM      6  N   UNL     1      -1.937   5.116  24.555  0.00  0.00    -0.347 N 
ATOM      7  N   UNL     1      -1.967   3.196  25.671  0.00  0.00    -0.239 NA
ATOM     15  C   UNL     1      -2.693   4.073  25.015  0.00  0.00    +0.121 A 
ATOM     18  C   UNL     1      -0.647   4.888  24.944  0.00  0.00    +0.104 A 
ATOM     19  C   UNL     1      -0.691   3.699  25.631  0.00  0.00    +0.130 A 
ATOM     26  H   UNL     1      -2.270   5.911  24.025  0.00  0.00    +0.167 HD
ENDBRANCH  13  15
ENDBRANCH   4  13
ENDBRANCH  14   9
BRANCH  16  17
ATOM     17  C   UNL     1       0.412  -1.256  24.432  0.00  0.00    +0.326 C 
BRANCH  17   3
ATOM      3  O   UNL     1       0.934  -0.522  23.322  0.00  0.00    -0.483 OA
BRANCH   3  20
ATOM      1  F   UNL     1       6.382   0.194  23.204  0.00  0.00    -0.205 F 
ATOM     20  C   UNL     1       2.288  -0.345  23.292  0.00  0.00    +0.121 A 
ATOM     21  C   UNL     1       3.134  -1.348  23.767  0.00  0.00    +0.048 A 
ATOM     22  C   UNL     1       2.826   0.840  22.788  0.00  0.00    +0.048 A 
ATOM     23  C   UNL     1       4.517  -1.166  23.737  0.00  0.00    +0.042 A 
ATOM     24  C   UNL     1       4.208   1.022  22.758  0.00  0.00    +0.042 A 
ATOM     25  C   UNL     1       5.053   0.019  23.232  0.00  0.00    +0.124 A 
ENDBRANCH   3  20
ENDBRANCH  17   3
ENDBRANCH  16  17
TORSDOF 6
ENDMDL
MODEL 8
REMARK VINA RESULT:      -3.4      2.401      3.460
REMARK  Name = 51137608
REMARK  6 active torsions:
REMARK  status: ('A' for Active; 'I' for Inactive)
REMARK    1  A    between atoms: O_3  and  C_17
REMARK    2  A    between atoms: O_3  and  C_20
REMARK    3  A    between atoms: N_4  and  C_13
REMARK    4  A    between atoms: C_9  and  C_14
REMARK    5  A    between atoms: C_13  and  C_15
REMARK    6  A    between atoms: C_16  and  C_17
REMARK                            x       y       z     vdW  Elec       q    Type
REMARK                         _______ _______ _______ _____ _____    ______ ____
ROOT
ATOM      2  O   UNL     1      -1.747   2.718  24.232  0.00  0.00    -0.421 OA
ATOM      5  N   UNL     1      -0.960   3.074  26.294  0.00  0.00    -0.112 NA
ATOM      8  N   UNL     1      -1.768   4.143  25.955  0.00  0.00    -0.109 NA
ATOM     14  C   UNL     1      -0.977   2.267  25.260  0.00  0.00    +0.222 A 
ATOM     16  C   UNL     1      -2.205   3.893  24.744  0.00  0.00    +0.254 A 
ENDROOT
BRANCH  14   9
ATOM      4  N   UNL     1       1.096  -0.236  23.569  0.00  0.00    -0.294 NA
ATOM      9  C   UNL     1      -0.279   0.942  25.059  0.00  0.00    +0.092 C 
ATOM     10  C   UNL     1      -1.112  -0.120  24.320  0.00  0.00    +0.029 C 
ATOM     11  C   UNL     1       1.011   1.064  24.237  0.00  0.00    +0.097 C 
ATOM     12  C   UNL     1      -0.267  -0.518  23.117  0.00  0.00    +0.085 C 
BRANCH   4  13
ATOM     13  C   UNL     1       2.054  -0.237  22.473  0.00  0.00    +0.158 C 
BRANCH  13  15
ATOM      6  N   UNL     1       4.037  -1.215  23.650  0.00  0.00    -0.347 N 
ATOM      7  N   UNL     1       4.313   0.830  22.831  0.00  0.00    -0.239 NA
ATOM     15  C   UNL     1       3.474  -0.172  22.970  0.00  0.00    +0.121 A 
ATOM     18  C   UNL     1       5.318  -0.855  23.964  0.00  0.00    +0.104 A 
ATOM     19  C   UNL     1       5.464   0.410  23.447  0.00  0.00    +0.130 A 
ATOM     26  H   UNL     1       3.592  -2.094  23.879  0.00  0.00    +0.167 HD
ENDBRANCH  13  15
ENDBRANCH   4  13
ENDBRANCH  14   9
BRANCH  16  17
ATOM     17  C   UNL     1      -3.099   4.685  23.890  0.00  0.00    +0.326 C 
BRANCH  17   3
ATOM      3  O   UNL     1      -4.191   3.882  23.435  0.00  0.00    -0.483 OA
BRANCH   3  20
ATOM      1  F   UNL     1      -6.779   0.887  27.248  0.00  0.00    -0.205 F 
ATOM     20  C   UNL     1      -4.835   3.137  24.382  0.00  0.00    +0.121 A 
ATOM     21  C   UNL     1      -5.509   3.770  25.428  0.00  0.00    +0.048 A 
ATOM     22  C   UNL     1      -4.818   1.744  24.306  0.00  0.00    +0.048 A 
ATOM     23  C   UNL     1      -6.166   3.010  26.396  0.00  0.00    +0.042 A 
ATOM     24  C   UNL     1      -5.475   0.984  25.273  0.00  0.00    +0.042 A 
ATOM     25  C   UNL     1      -6.149   1.617  26.318  0.00  0.00    +0.124 A 
ENDBRANCH   3  20
ENDBRANCH  17   3
ENDBRANCH  16  17
TORSDOF 6
ENDMDL
MODEL 9
REMARK VINA RESULT:      -2.9      2.891      6.869
REMARK  Name = 51137608
REMARK  6 active torsions:
REMARK  status: ('A' for Active; 'I' for Inactive)
REMARK    1  A    between atoms: O_3  and  C_17
REMARK    2  A    between atoms: O_3  and  C_20
REMARK    3  A    between atoms: N_4  and  C_13
REMARK    4  A    between atoms: C_9  and  C_14
REMARK    5  A    between atoms: C_13  and  C_15
REMARK    6  A    between atoms: C_16  and  C_17
REMARK                            x       y       z     vdW  Elec       q    Type
REMARK                         _______ _______ _______ _____ _____    ______ ____
ROOT
ATOM      2  O   UNL     1      -0.696   1.118  23.717  0.00  0.00    -0.421 OA
ATOM      5  N   UNL     1       0.442   2.816  24.624  0.00  0.00    -0.112 NA
ATOM      8  N   UNL     1       1.335   2.034  23.915  0.00  0.00    -0.109 NA
ATOM     14  C   UNL     1      -0.730   2.244  24.481  0.00  0.00    +0.222 A 
ATOM     16  C   UNL     1       0.627   1.055  23.403  0.00  0.00    +0.254 A 
ENDROOT
BRANCH  14   9
ATOM      4  N   UNL     1      -4.290   1.921  25.287  0.00  0.00    -0.294 NA
ATOM      9  C   UNL     1      -2.077   2.654  25.032  0.00  0.00    +0.092 C 
ATOM     10  C   UNL     1      -2.983   3.397  24.035  0.00  0.00    +0.029 C 
ATOM     11  C   UNL     1      -2.917   1.460  25.505  0.00  0.00    +0.097 C 
ATOM     12  C   UNL     1      -4.264   2.575  23.978  0.00  0.00    +0.085 C 
BRANCH   4  13
ATOM     13  C   UNL     1      -5.257   0.835  25.346  0.00  0.00    +0.158 C 
BRANCH  13  15
ATOM      6  N   UNL     1      -3.905  -1.194  25.922  0.00  0.00    -0.347 N 
ATOM      7  N   UNL     1      -4.695  -1.116  23.847  0.00  0.00    -0.239 NA
ATOM     15  C   UNL     1      -4.633  -0.491  25.002  0.00  0.00    +0.121 A 
ATOM     18  C   UNL     1      -3.475  -2.340  25.314  0.00  0.00    +0.104 A 
ATOM     19  C   UNL     1      -3.976  -2.270  24.035  0.00  0.00    +0.130 A 
ATOM     26  H   UNL     1      -3.718  -0.918  26.877  0.00  0.00    +0.167 HD
ENDBRANCH  13  15
ENDBRANCH   4  13
ENDBRANCH  14   9
BRANCH  16  17
ATOM     17  C   UNL     1       1.055  -0.066  22.557  0.00  0.00    +0.326 C 
BRANCH  17   3
ATOM      3  O   UNL     1       2.318   0.223  21.952  0.00  0.00    -0.483 OA
BRANCH   3  20
ATOM      1  F   UNL     1       6.784  -0.936  24.937  0.00  0.00    -0.205 F 
ATOM     20  C   UNL     1       3.428  -0.065  22.694  0.00  0.00    +0.121 A 
ATOM     21  C   UNL     1       3.561  -1.319  23.293  0.00  0.00    +0.048 A 
ATOM     22  C   UNL     1       4.430   0.893  22.853  0.00  0.00    +0.048 A 
ATOM     23  C   UNL     1       4.695  -1.613  24.051  0.00  0.00    +0.042 A 
ATOM     24  C   UNL     1       5.563   0.599  23.610  0.00  0.00    +0.042 A 
ATOM     25  C   UNL     1       5.695  -0.654  24.209  0.00  0.00    +0.124 A 
ENDBRANCH   3  20
ENDBRANCH  17   3
ENDBRANCH  16  17
TORSDOF 6
ENDMDL
MODEL 10
REMARK VINA RESULT:      -2.6      2.644      4.747
REMARK  Name = 51137608
REMARK  6 active torsions:
REMARK  status: ('A' for Active; 'I' for Inactive)
REMARK    1  A    between atoms: O_3  and  C_17
REMARK    2  A    between atoms: O_3  and  C_20
REMARK    3  A    between atoms: N_4  and  C_13
REMARK    4  A    between atoms: C_9  and  C_14
REMARK    5  A    between atoms: C_13  and  C_15
REMARK    6  A    between atoms: C_16  and  C_17
REMARK                            x       y       z     vdW  Elec       q    Type
REMARK                         _______ _______ _______ _____ _____    ______ ____
ROOT
ATOM      2  O   UNL     1      -4.406   1.154  25.826  0.00  0.00    -0.421 OA
ATOM      5  N   UNL     1      -5.543   0.087  24.222  0.00  0.00    -0.112 NA
ATOM      8  N   UNL     1      -5.982   1.398  24.257  0.00  0.00    -0.109 NA
ATOM     14  C   UNL     1      -4.624  -0.009  25.154  0.00  0.00    +0.222 A 
ATOM     16  C   UNL     1      -5.291   1.983  25.207  0.00  0.00    +0.254 A 
ENDROOT
BRANCH  14   9
ATOM      4  N   UNL     1      -1.646  -2.127  25.423  0.00  0.00    -0.294 NA
ATOM      9  C   UNL     1      -3.796  -1.203  25.572  0.00  0.00    +0.092 C 
ATOM     10  C   UNL     1      -3.808  -2.376  24.577  0.00  0.00    +0.029 C 
ATOM     11  C   UNL     1      -2.311  -0.865  25.756  0.00  0.00    +0.097 C 
ATOM     12  C   UNL     1      -2.344  -2.618  24.234  0.00  0.00    +0.085 C 
BRANCH   4  13
ATOM     13  C   UNL     1      -0.218  -1.960  25.198  0.00  0.00    +0.158 C 
BRANCH  13  15
ATOM      6  N   UNL     1       0.035   0.532  25.230  0.00  0.00    -0.347 N 
ATOM      7  N   UNL     1       0.448  -0.456  23.284  0.00  0.00    -0.239 NA
ATOM     15  C   UNL     1       0.097  -0.644  24.536  0.00  0.00    +0.121 A 
ATOM     18  C   UNL     1       0.370   1.535  24.363  0.00  0.00    +0.104 A 
ATOM     19  C   UNL     1       0.621   0.901  23.170  0.00  0.00    +0.130 A 
ATOM     26  H   UNL     1      -0.211   0.643  26.205  0.00  0.00    +0.167 HD
ENDBRANCH  13  15
ENDBRANCH   4  13
ENDBRANCH  14   9
BRANCH  16  17
ATOM     17  C   UNL     1      -5.340   3.373  25.679  0.00  0.00    +0.326 C 
BRANCH  17   3
ATOM      3  O   UNL     1      -4.113   3.720  26.327  0.00  0.00    -0.483 OA
BRANCH   3  20
ATOM      1  F   UNL     1       0.209   4.643  23.061  0.00  0.00    -0.205 F 
ATOM     20  C   UNL     1      -3.039   3.950  25.515  0.00  0.00    +0.121 A 
ATOM     21  C   UNL     1      -2.920   3.265  24.305  0.00  0.00    +0.048 A 
ATOM     22  C   UNL     1      -2.061   4.869  25.895  0.00  0.00    +0.048 A 
ATOM     23  C   UNL     1      -1.823   3.499  23.476  0.00  0.00    +0.042 A 
ATOM     24  C   UNL     1      -0.964   5.103  25.066  0.00  0.00    +0.042 A 
ATOM     25  C   UNL     1      -0.845   4.418  23.857  0.00  0.00    +0.124 A 
ENDBRANCH   3  20
ENDBRANCH  17   3
ENDBRANCH  16  17
TORSDOF 6
ENDMDL
