MODEL 1
REMARK VINA RESULT:       0.9      0.000      0.000
REMARK  Name = 11866326
REMARK  11 active torsions:
REMARK  status: ('A' for Active; 'I' for Inactive)
REMARK    1  A    between atoms: O_1  and  C_11
REMARK    2  A    between atoms: O_2  and  C_12
REMARK    3  A    between atoms: O_6  and  C_30
REMARK    4  A    between atoms: N_7  and  C_13
REMARK    5  A    between atoms: N_8  and  C_18
REMARK    6  A    between atoms: N_9  and  C_23
REMARK    7  A    between atoms: C_15  and  C_17
REMARK    8  A    between atoms: C_18  and  C_20
REMARK    9  A    between atoms: C_18  and  C_22
REMARK   10  A    between atoms: C_20  and  C_21
REMARK   11  A    between atoms: C_33  and  C_34
REMARK                            x       y       z     vdW  Elec       q    Type
REMARK                         _______ _______ _______ _____ _____    ______ ____
ROOT
ATOM     11  C   UNL     1      -2.770  -2.412  24.363  0.00  0.00    +0.167 C 
ATOM     12  C   UNL     1      -4.252  -2.114  24.104  0.00  0.00    +0.149 C 
ATOM     13  C   UNL     1      -1.861  -1.332  23.748  0.00  0.00    +0.129 C 
ATOM     14  C   UNL     1      -4.660  -0.721  24.613  0.00  0.00    +0.074 C 
ATOM     15  C   UNL     1      -3.608   0.328  24.386  0.00  0.00    +0.015 C 
ATOM     16  C   UNL     1      -2.353   0.069  23.990  0.00  0.00    +0.006 C 
ENDROOT
BRANCH  13   7
ATOM      4  O   UNL     1       0.506  -0.408  22.425  0.00  0.00    -0.252 OA
ATOM      7  N   UNL     1      -0.505  -1.439  24.230  0.00  0.00    -0.290 N 
ATOM      9  N   UNL     1       1.780  -1.202  24.231  0.00  0.00    -0.269 N 
ATOM     19  C   UNL     1       0.601  -0.959  23.520  0.00  0.00    +0.304 C 
ATOM     35  H   UNL     1      -0.355  -1.807  25.165  0.00  0.00    +0.151 HD
ATOM     39  H   UNL     1       1.682  -1.674  25.126  0.00  0.00    +0.156 HD
BRANCH   9  23
ATOM     23  C   UNL     1       3.103  -0.873  23.856  0.00  0.00    +0.035 A 
ATOM     28  C   UNL     1       4.152  -1.735  24.175  0.00  0.00    +0.023 A 
ATOM     29  C   UNL     1       3.360   0.313  23.168  0.00  0.00    +0.023 A 
ATOM     31  C   UNL     1       5.457  -1.411  23.806  0.00  0.00    +0.005 A 
ATOM     32  C   UNL     1       4.665   0.637  22.800  0.00  0.00    +0.005 A 
ATOM     33  C   UNL     1       5.715  -0.225  23.118  0.00  0.00    -0.050 A 
ATOM     34  C   UNL     1       7.110   0.120  22.724  0.00  0.00    +0.044 C 
ENDBRANCH   9  23
ENDBRANCH  13   7
BRANCH  15  17
ATOM      3  O   UNL     1      -4.260   2.456  23.634  0.00  0.00    -0.271 OA
ATOM      8  N   UNL     1      -3.969   2.108  25.920  0.00  0.00    -0.300 N 
ATOM     17  C   UNL     1      -3.979   1.733  24.588  0.00  0.00    +0.241 C 
ATOM     38  H   UNL     1      -3.634   1.448  26.618  0.00  0.00    +0.150 HD
BRANCH   8  18
ATOM     18  C   UNL     1      -4.297   3.442  26.368  0.00  0.00    +0.163 C 
BRANCH  18  22
ATOM      5  O   UNL     1      -5.854   4.979  25.309  0.00  0.00    -0.274 OA
ATOM     10  N   UNL     1      -6.441   2.765  25.481  0.00  0.00    -0.328 N 
ATOM     22  C   UNL     1      -5.598   3.836  25.684  0.00  0.00    +0.231 C 
ATOM     40  H   UNL     1      -7.337   2.888  25.019  0.00  0.00    +0.145 HD
ATOM     41  H   UNL     1      -6.214   1.825  25.791  0.00  0.00    +0.145 HD
ENDBRANCH  18  22
BRANCH  18  20
ATOM     20  C   UNL     1      -3.193   4.453  26.038  0.00  0.00    +0.067 C 
BRANCH  20  21
ATOM     21  C   UNL     1      -1.931   3.794  25.533  0.00  0.00    -0.045 A 
ATOM     24  C   UNL     1      -1.223   2.922  26.359  0.00  0.00    +0.007 A 
ATOM     25  C   UNL     1      -1.474   4.058  24.242  0.00  0.00    +0.007 A 
ATOM     26  C   UNL     1      -0.057   2.313  25.894  0.00  0.00    +0.045 A 
ATOM     27  C   UNL     1      -0.309   3.449  23.777  0.00  0.00    +0.045 A 
ATOM     30  C   UNL     1       0.399   2.577  24.603  0.00  0.00    +0.117 A 
BRANCH  30   6
ATOM      6  O   UNL     1       1.537   1.983  24.148  0.00  0.00    -0.507 OA
ATOM     42  H   UNL     1       2.303   2.506  24.442  0.00  0.00    +0.292 HD
ENDBRANCH  30   6
ENDBRANCH  20  21
ENDBRANCH  18  20
ENDBRANCH   8  18
ENDBRANCH  15  17
BRANCH  11   1
ATOM      1  O   UNL     1      -2.554  -2.473  25.775  0.00  0.00    -0.387 OA
ATOM     36  H   UNL     1      -2.765  -1.597  26.141  0.00  0.00    +0.210 HD
ENDBRANCH  11   1
BRANCH  12   2
ATOM      2  O   UNL     1      -4.540  -2.230  22.712  0.00  0.00    -0.389 OA
ATOM     37  H   UNL     1      -3.945  -1.624  22.238  0.00  0.00    +0.210 HD
ENDBRANCH  12   2
TORSDOF 10
ENDMDL
