MODEL 1
REMARK VINA RESULT:      18.6      0.000      0.000
REMARK  Name = 11884188
REMARK  4 active torsions:
REMARK  status: ('A' for Active; 'I' for Inactive)
REMARK    1  A    between atoms: O_5  and  C_26
REMARK    2  A    between atoms: O_5  and  C_31
REMARK    3  A    between atoms: C_9  and  C_12
REMARK    4  A    between atoms: C_23  and  C_25
REMARK                            x       y       z     vdW  Elec       q    Type
REMARK                         _______ _______ _______ _____ _____    ______ ____
ROOT
ATOM      2  O   UNL     1       5.148  -2.267  23.480  0.00  0.00    -0.275 OA
ATOM      3  O   UNL     1       1.825  -1.142  21.609  0.00  0.00    -0.273 OA
ATOM      4  O   UNL     1       0.455   3.319  24.091  0.00  0.00    -0.270 OA
ATOM      6  N   UNL     1       3.989  -0.246  23.473  0.00  0.00    -0.298 N 
ATOM      7  N   UNL     1       1.562   1.309  23.795  0.00  0.00    -0.283 N 
ATOM      8  N   UNL     1      -0.230  -0.262  22.041  0.00  0.00    -0.283 N 
ATOM     12  C   UNL     1       5.075  -1.077  23.181  0.00  0.00    +0.219 C 
ATOM     13  C   UNL     1       2.839  -0.790  24.198  0.00  0.00    +0.139 C 
ATOM     14  C   UNL     1       1.509  -0.147  23.786  0.00  0.00    +0.180 C 
ATOM     15  C   UNL     1       3.933   1.170  23.102  0.00  0.00    +0.127 C 
ATOM     16  C   UNL     1       2.882   1.933  23.895  0.00  0.00    +0.128 C 
ATOM     17  C   UNL     1       1.078  -0.537  22.380  0.00  0.00    +0.239 C 
ATOM     18  C   UNL     1       0.423   2.103  23.890  0.00  0.00    +0.249 C 
ATOM     19  C   UNL     1      -0.912   1.472  23.712  0.00  0.00    +0.059 A 
ATOM     20  C   UNL     1      -1.190   0.458  22.781  0.00  0.00    +0.046 A 
ATOM     21  C   UNL     1      -1.974   2.079  24.408  0.00  0.00    +0.023 A 
ATOM     22  C   UNL     1      -2.530   0.124  22.520  0.00  0.00    +0.024 A 
ATOM     23  C   UNL     1      -3.295   1.700  24.171  0.00  0.00    -0.014 A 
ATOM     24  C   UNL     1      -3.575   0.731  23.217  0.00  0.00    +0.010 A 
ATOM     32  H   UNL     1      -0.567  -0.719  21.198  0.00  0.00    +0.155 HD
ENDROOT
BRANCH  23  25
ATOM      1 CL   UNL     1      -7.287   1.165  27.385  0.00  0.00    -0.084 Cl
ATOM     25  C   UNL     1      -4.373   2.331  24.901  0.00  0.00    +0.025 A 
ATOM     26  C   UNL     1      -4.584   3.708  24.821  0.00  0.00    +0.128 A 
ATOM     27  C   UNL     1      -5.210   1.545  25.695  0.00  0.00    +0.032 A 
ATOM     28  C   UNL     1      -5.629   4.298  25.533  0.00  0.00    +0.047 A 
ATOM     29  C   UNL     1      -6.255   2.135  26.407  0.00  0.00    +0.042 A 
ATOM     30  C   UNL     1      -6.465   3.511  26.326  0.00  0.00    +0.023 A 
BRANCH  26   5
ATOM      5  O   UNL     1      -3.782   4.501  24.055  0.00  0.00    -0.495 OA
ATOM     31  C   UNL     1      -2.693   5.147  24.711  0.00  0.00    +0.277 C 
ENDBRANCH  26   5
ENDBRANCH  23  25
BRANCH  12   9
ATOM      9  C   UNL     1       6.233  -0.458  22.465  0.00  0.00    +0.075 C 
ATOM     10  C   UNL     1       7.526  -1.197  22.442  0.00  0.00    +0.013 C 
ATOM     11  C   UNL     1       7.379   0.043  23.273  0.00  0.00    +0.013 C 
ENDBRANCH  12   9
TORSDOF 3
ENDMDL
MODEL 2
REMARK VINA RESULT:      18.6      1.421      1.932
REMARK  Name = 11884188
REMARK  4 active torsions:
REMARK  status: ('A' for Active; 'I' for Inactive)
REMARK    1  A    between atoms: O_5  and  C_26
REMARK    2  A    between atoms: O_5  and  C_31
REMARK    3  A    between atoms: C_9  and  C_12
REMARK    4  A    between atoms: C_23  and  C_25
REMARK                            x       y       z     vdW  Elec       q    Type
REMARK                         _______ _______ _______ _____ _____    ______ ____
ROOT
ATOM      2  O   UNL     1       5.330  -2.279  23.021  0.00  0.00    -0.275 OA
ATOM      3  O   UNL     1       2.160  -0.718  21.199  0.00  0.00    -0.273 OA
ATOM      4  O   UNL     1       0.539   3.045  24.537  0.00  0.00    -0.270 OA
ATOM      6  N   UNL     1       4.153  -0.303  23.394  0.00  0.00    -0.298 N 
ATOM      7  N   UNL     1       1.690   1.152  23.870  0.00  0.00    -0.283 N 
ATOM      8  N   UNL     1       0.067   0.053  21.654  0.00  0.00    -0.283 N 
ATOM     12  C   UNL     1       5.269  -1.052  23.005  0.00  0.00    +0.219 C 
ATOM     13  C   UNL     1       2.954  -0.993  23.873  0.00  0.00    +0.139 C 
ATOM     14  C   UNL     1       1.655  -0.260  23.514  0.00  0.00    +0.180 C 
ATOM     15  C   UNL     1       4.112   1.160  23.363  0.00  0.00    +0.127 C 
ATOM     16  C   UNL     1       2.990   1.725  24.222  0.00  0.00    +0.128 C 
ATOM     17  C   UNL     1       1.345  -0.305  22.026  0.00  0.00    +0.239 C 
ATOM     18  C   UNL     1       0.538   1.912  24.054  0.00  0.00    +0.249 C 
ATOM     19  C   UNL     1      -0.771   1.351  23.623  0.00  0.00    +0.059 A 
ATOM     20  C   UNL     1      -0.959   0.587  22.460  0.00  0.00    +0.046 A 
ATOM     21  C   UNL     1      -1.893   1.785  24.352  0.00  0.00    +0.023 A 
ATOM     22  C   UNL     1      -2.270   0.334  22.018  0.00  0.00    +0.024 A 
ATOM     23  C   UNL     1      -3.185   1.484  23.925  0.00  0.00    -0.014 A 
ATOM     24  C   UNL     1      -3.375   0.769  22.750  0.00  0.00    +0.010 A 
ATOM     32  H   UNL     1      -0.194  -0.190  20.702  0.00  0.00    +0.155 HD
ENDROOT
BRANCH  23  25
ATOM      1 CL   UNL     1      -6.073   5.435  25.536  0.00  0.00    -0.084 Cl
ATOM     25  C   UNL     1      -4.327   1.935  24.690  0.00  0.00    +0.025 A 
ATOM     26  C   UNL     1      -5.138   1.026  25.373  0.00  0.00    +0.128 A 
ATOM     27  C   UNL     1      -4.618   3.299  24.741  0.00  0.00    +0.032 A 
ATOM     28  C   UNL     1      -6.235   1.480  26.105  0.00  0.00    +0.047 A 
ATOM     29  C   UNL     1      -5.716   3.753  25.473  0.00  0.00    +0.042 A 
ATOM     30  C   UNL     1      -6.524   2.844  26.155  0.00  0.00    +0.023 A 
BRANCH  26   5
ATOM      5  O   UNL     1      -4.879  -0.312  25.341  0.00  0.00    -0.495 OA
ATOM     31  C   UNL     1      -3.698  -0.760  26.003  0.00  0.00    +0.277 C 
ENDBRANCH  26   5
ENDBRANCH  23  25
BRANCH  12   9
ATOM      9  C   UNL     1       6.475  -0.291  22.552  0.00  0.00    +0.075 C 
ATOM     10  C   UNL     1       7.795  -0.980  22.581  0.00  0.00    +0.013 C 
ATOM     11  C   UNL     1       7.486   0.103  23.572  0.00  0.00    +0.013 C 
ENDBRANCH  12   9
TORSDOF 3
ENDMDL
MODEL 3
REMARK VINA RESULT:      18.9      3.490      9.065
REMARK  Name = 11884188
REMARK  4 active torsions:
REMARK  status: ('A' for Active; 'I' for Inactive)
REMARK    1  A    between atoms: O_5  and  C_26
REMARK    2  A    between atoms: O_5  and  C_31
REMARK    3  A    between atoms: C_9  and  C_12
REMARK    4  A    between atoms: C_23  and  C_25
REMARK                            x       y       z     vdW  Elec       q    Type
REMARK                         _______ _______ _______ _____ _____    ______ ____
ROOT
ATOM      2  O   UNL     1      -7.062   1.572  23.955  0.00  0.00    -0.275 OA
ATOM      3  O   UNL     1      -4.059  -0.387  25.673  0.00  0.00    -0.273 OA
ATOM      4  O   UNL     1       0.047   2.892  25.104  0.00  0.00    -0.270 OA
ATOM      6  N   UNL     1      -4.953   2.280  24.646  0.00  0.00    -0.298 N 
ATOM      7  N   UNL     1      -2.063   2.040  24.682  0.00  0.00    -0.283 N 
ATOM      8  N   UNL     1      -1.845  -0.828  25.380  0.00  0.00    -0.283 N 
ATOM     12  C   UNL     1      -6.350   2.233  24.707  0.00  0.00    +0.219 C 
ATOM     13  C   UNL     1      -4.250   1.510  23.618  0.00  0.00    +0.139 C 
ATOM     14  C   UNL     1      -2.882   0.995  24.082  0.00  0.00    +0.180 C 
ATOM     15  C   UNL     1      -4.131   3.077  25.559  0.00  0.00    +0.127 C 
ATOM     16  C   UNL     1      -2.724   3.300  25.023  0.00  0.00    +0.128 C 
ATOM     17  C   UNL     1      -2.990  -0.101  25.131  0.00  0.00    +0.239 C 
ATOM     18  C   UNL     1      -0.677   1.949  24.777  0.00  0.00    +0.249 C 
ATOM     19  C   UNL     1      -0.020   0.643  24.503  0.00  0.00    +0.059 A 
ATOM     20  C   UNL     1      -0.544  -0.602  24.886  0.00  0.00    +0.046 A 
ATOM     21  C   UNL     1       1.288   0.712  23.988  0.00  0.00    +0.023 A 
ATOM     22  C   UNL     1       0.279  -1.739  24.808  0.00  0.00    +0.024 A 
ATOM     23  C   UNL     1       2.073  -0.434  23.872  0.00  0.00    -0.014 A 
ATOM     24  C   UNL     1       1.574  -1.659  24.295  0.00  0.00    +0.010 A 
ATOM     32  H   UNL     1      -1.980  -1.687  25.907  0.00  0.00    +0.155 HD
ENDROOT
BRANCH  23  25
ATOM      1 CL   UNL     1       7.142  -0.847  24.702  0.00  0.00    -0.084 Cl
ATOM     25  C   UNL     1       3.414  -0.345  23.335  0.00  0.00    +0.025 A 
ATOM     26  C   UNL     1       3.631  -0.005  21.999  0.00  0.00    +0.128 A 
ATOM     27  C   UNL     1       4.501  -0.606  24.171  0.00  0.00    +0.032 A 
ATOM     28  C   UNL     1       4.931   0.075  21.499  0.00  0.00    +0.047 A 
ATOM     29  C   UNL     1       5.802  -0.526  23.671  0.00  0.00    +0.042 A 
ATOM     30  C   UNL     1       6.016  -0.186  22.336  0.00  0.00    +0.023 A 
BRANCH  26   5
ATOM      5  O   UNL     1       2.588   0.254  21.159  0.00  0.00    -0.495 OA
ATOM     31  C   UNL     1       1.526  -0.697  21.133  0.00  0.00    +0.277 C 
ENDBRANCH  26   5
ENDBRANCH  23  25
BRANCH  12   9
ATOM      9  C   UNL     1      -7.013   3.063  25.760  0.00  0.00    +0.075 C 
ATOM     10  C   UNL     1      -6.521   4.452  25.977  0.00  0.00    +0.013 C 
ATOM     11  C   UNL     1      -6.246   3.384  26.995  0.00  0.00    +0.013 C 
ENDBRANCH  12   9
TORSDOF 3
ENDMDL
MODEL 4
REMARK VINA RESULT:      21.2      1.979      2.915
REMARK  Name = 11884188
REMARK  4 active torsions:
REMARK  status: ('A' for Active; 'I' for Inactive)
REMARK    1  A    between atoms: O_5  and  C_26
REMARK    2  A    between atoms: O_5  and  C_31
REMARK    3  A    between atoms: C_9  and  C_12
REMARK    4  A    between atoms: C_23  and  C_25
REMARK                            x       y       z     vdW  Elec       q    Type
REMARK                         _______ _______ _______ _____ _____    ______ ____
ROOT
ATOM      2  O   UNL     1       5.448  -0.172  20.860  0.00  0.00    -0.275 OA
ATOM      3  O   UNL     1       3.549   2.192  23.432  0.00  0.00    -0.273 OA
ATOM      4  O   UNL     1      -0.283  -0.897  25.356  0.00  0.00    -0.270 OA
ATOM      6  N   UNL     1       3.917  -0.646  22.551  0.00  0.00    -0.298 N 
ATOM      7  N   UNL     1       1.371  -0.240  23.878  0.00  0.00    -0.283 N 
ATOM      8  N   UNL     1       1.444   2.708  24.128  0.00  0.00    -0.283 N 
ATOM     12  C   UNL     1       5.181  -0.669  21.951  0.00  0.00    +0.219 C 
ATOM     13  C   UNL     1       2.801  -0.002  21.855  0.00  0.00    +0.139 C 
ATOM     14  C   UNL     1       1.795   0.654  22.809  0.00  0.00    +0.180 C 
ATOM     15  C   UNL     1       3.630  -1.249  23.854  0.00  0.00    +0.127 C 
ATOM     16  C   UNL     1       2.140  -1.469  24.072  0.00  0.00    +0.128 C 
ATOM     17  C   UNL     1       2.357   1.888  23.499  0.00  0.00    +0.239 C 
ATOM     18  C   UNL     1       0.186  -0.057  24.587  0.00  0.00    +0.249 C 
ATOM     19  C   UNL     1      -0.550   1.228  24.442  0.00  0.00    +0.059 A 
ATOM     20  C   UNL     1       0.067   2.485  24.334  0.00  0.00    +0.046 A 
ATOM     21  C   UNL     1      -1.945   1.156  24.607  0.00  0.00    +0.023 A 
ATOM     22  C   UNL     1      -0.721   3.641  24.464  0.00  0.00    +0.024 A 
ATOM     23  C   UNL     1      -2.717   2.314  24.685  0.00  0.00    -0.014 A 
ATOM     24  C   UNL     1      -2.104   3.558  24.628  0.00  0.00    +0.010 A 
ATOM     32  H   UNL     1       1.791   3.628  24.388  0.00  0.00    +0.155 HD
ENDROOT
BRANCH  23  25
ATOM      1 CL   UNL     1      -7.132   4.679  25.898  0.00  0.00    -0.084 Cl
ATOM     25  C   UNL     1      -4.152   2.221  24.850  0.00  0.00    +0.025 A 
ATOM     26  C   UNL     1      -4.825   1.020  24.619  0.00  0.00    +0.128 A 
ATOM     27  C   UNL     1      -4.867   3.353  25.246  0.00  0.00    +0.032 A 
ATOM     28  C   UNL     1      -6.208   0.951  24.782  0.00  0.00    +0.047 A 
ATOM     29  C   UNL     1      -6.251   3.284  25.410  0.00  0.00    +0.042 A 
ATOM     30  C   UNL     1      -6.921   2.083  25.178  0.00  0.00    +0.023 A 
BRANCH  26   5
ATOM      5  O   UNL     1      -4.153  -0.101  24.230  0.00  0.00    -0.495 OA
ATOM     31  C   UNL     1      -3.935  -1.101  25.222  0.00  0.00    +0.277 C 
ENDBRANCH  26   5
ENDBRANCH  23  25
BRANCH  12   9
ATOM      9  C   UNL     1       6.274  -1.368  22.696  0.00  0.00    +0.075 C 
ATOM     10  C   UNL     1       6.550  -0.951  24.099  0.00  0.00    +0.013 C 
ATOM     11  C   UNL     1       7.517  -0.607  23.004  0.00  0.00    +0.013 C 
ENDBRANCH  12   9
TORSDOF 3
ENDMDL
MODEL 5
REMARK VINA RESULT:      21.7      2.231      3.241
REMARK  Name = 11884188
REMARK  4 active torsions:
REMARK  status: ('A' for Active; 'I' for Inactive)
REMARK    1  A    between atoms: O_5  and  C_26
REMARK    2  A    between atoms: O_5  and  C_31
REMARK    3  A    between atoms: C_9  and  C_12
REMARK    4  A    between atoms: C_23  and  C_25
REMARK                            x       y       z     vdW  Elec       q    Type
REMARK                         _______ _______ _______ _____ _____    ______ ____
ROOT
ATOM      2  O   UNL     1       7.474  -0.274  24.446  0.00  0.00    -0.275 OA
ATOM      3  O   UNL     1       4.093  -2.363  24.324  0.00  0.00    -0.273 OA
ATOM      4  O   UNL     1       0.782   0.793  21.678  0.00  0.00    -0.270 OA
ATOM      6  N   UNL     1       5.548  -0.019  23.161  0.00  0.00    -0.298 N 
ATOM      7  N   UNL     1       2.672   0.242  22.892  0.00  0.00    -0.283 N 
ATOM      8  N   UNL     1       1.842  -2.086  24.519  0.00  0.00    -0.283 N 
ATOM     12  C   UNL     1       6.902  -0.309  23.359  0.00  0.00    +0.219 C 
ATOM     13  C   UNL     1       4.719   0.369  24.303  0.00  0.00    +0.139 C 
ATOM     14  C   UNL     1       3.264  -0.101  24.178  0.00  0.00    +0.180 C 
ATOM     15  C   UNL     1       4.895  -0.070  21.851  0.00  0.00    +0.127 C 
ATOM     16  C   UNL     1       3.577   0.691  21.833  0.00  0.00    +0.128 C 
ATOM     17  C   UNL     1       3.119  -1.608  24.313  0.00  0.00    +0.239 C 
ATOM     18  C   UNL     1       1.296   0.324  22.694  0.00  0.00    +0.249 C 
ATOM     19  C   UNL     1       0.384  -0.205  23.743  0.00  0.00    +0.059 A 
ATOM     20  C   UNL     1       0.627  -1.371  24.488  0.00  0.00    +0.046 A 
ATOM     21  C   UNL     1      -0.869   0.427  23.841  0.00  0.00    +0.023 A 
ATOM     22  C   UNL     1      -0.415  -1.914  25.259  0.00  0.00    +0.024 A 
ATOM     23  C   UNL     1      -1.876  -0.100  24.649  0.00  0.00    -0.014 A 
ATOM     24  C   UNL     1      -1.654  -1.279  25.348  0.00  0.00    +0.010 A 
ATOM     32  H   UNL     1       1.782  -3.053  24.827  0.00  0.00    +0.155 HD
ENDROOT
BRANCH  23  25
ATOM      1 CL   UNL     1      -4.487   4.341  24.742  0.00  0.00    -0.084 Cl
ATOM     25  C   UNL     1      -3.157   0.566  24.741  0.00  0.00    +0.025 A 
ATOM     26  C   UNL     1      -4.339  -0.165  24.865  0.00  0.00    +0.128 A 
ATOM     27  C   UNL     1      -3.204   1.961  24.702  0.00  0.00    +0.032 A 
ATOM     28  C   UNL     1      -5.565   0.496  24.951  0.00  0.00    +0.047 A 
ATOM     29  C   UNL     1      -4.430   2.622  24.789  0.00  0.00    +0.042 A 
ATOM     30  C   UNL     1      -5.610   1.889  24.913  0.00  0.00    +0.023 A 
BRANCH  26   5
ATOM      5  O   UNL     1      -4.324  -1.528  24.903  0.00  0.00    -0.495 OA
ATOM     31  C   UNL     1      -4.416  -2.212  23.656  0.00  0.00    +0.277 C 
ENDBRANCH  26   5
ENDBRANCH  23  25
BRANCH  12   9
ATOM      9  C   UNL     1       7.705  -0.671  22.150  0.00  0.00    +0.075 C 
ATOM     10  C   UNL     1       8.344  -2.015  22.104  0.00  0.00    +0.013 C 
ATOM     11  C   UNL     1       9.183  -0.785  22.291  0.00  0.00    +0.013 C 
ENDBRANCH  12   9
TORSDOF 3
ENDMDL
