MODEL 1
REMARK VINA RESULT:      -4.8      0.000      0.000
REMARK  Name = 75367163
REMARK  3 active torsions:
REMARK  status: ('A' for Active; 'I' for Inactive)
REMARK    1  A    between atoms: N_2  and  C_7
REMARK    2  A    between atoms: C_8  and  C_16
REMARK    3  A    between atoms: C_17  and  C_19
REMARK                            x       y       z     vdW  Elec       q    Type
REMARK                         _______ _______ _______ _____ _____    ______ ____
ROOT
ATOM      1  O   UNL     1      -3.426  -9.618   9.706  0.00  0.00    -0.377 OA
ATOM      2  N   UNL     1      -6.108  -9.327  10.720  0.00  0.00    -0.286 NA
ATOM      8  C   UNL     1      -5.316 -10.548  10.993  0.00  0.00    +0.149 C 
ATOM     11  C   UNL     1      -5.248  -8.183  10.391  0.00  0.00    +0.113 C 
ATOM     14  C   UNL     1      -4.225 -10.781   9.927  0.00  0.00    +0.186 C 
ATOM     15  C   UNL     1      -4.222  -8.506   9.311  0.00  0.00    +0.175 C 
ENDROOT
BRANCH   2   7
ATOM      3  N   UNL     1      -9.943  -9.513   8.886  0.00  0.00    -0.316 NA
ATOM      7  C   UNL     1      -7.127  -9.553   9.697  0.00  0.00    +0.060 C 
ATOM      9  C   UNL     1      -7.860  -8.251   9.355  0.00  0.00    +0.034 C 
ATOM     10  C   UNL     1      -8.128 -10.612  10.170  0.00  0.00    +0.034 C 
ATOM     12  C   UNL     1      -9.004  -8.511   8.374  0.00  0.00    +0.082 C 
ATOM     13  C   UNL     1      -9.262 -10.781   9.158  0.00  0.00    +0.082 C 
ATOM     24  H   UNL     1     -10.679  -9.667   8.197  0.00  0.00    +0.122 HD
ENDBRANCH   2   7
BRANCH   8  16
ATOM      4  N   UNL     1      -5.709 -10.441  13.487  0.00  0.00    -0.340 N 
ATOM      5  N   UNL     1      -3.591 -10.671  12.861  0.00  0.00    -0.238 NA
ATOM     16  C   UNL     1      -4.833 -10.558  12.445  0.00  0.00    +0.127 A 
ATOM     17  C   UNL     1      -4.981 -10.483  14.643  0.00  0.00    +0.068 A 
ATOM     18  C   UNL     1      -3.676 -10.625  14.230  0.00  0.00    +0.139 A 
ATOM     25  H   UNL     1      -6.712 -10.331  13.408  0.00  0.00    +0.167 HD
BRANCH  17  19
ATOM      6  N   UNL     1      -7.517  -9.964  17.316  0.00  0.00    -0.263 NA
ATOM     19  C   UNL     1      -5.566 -10.387  15.953  0.00  0.00    +0.018 A 
ATOM     20  C   UNL     1      -4.806 -10.608  17.096  0.00  0.00    +0.013 A 
ATOM     21  C   UNL     1      -6.906 -10.070  16.115  0.00  0.00    +0.120 A 
ATOM     22  C   UNL     1      -5.400 -10.508  18.350  0.00  0.00    +0.020 A 
ATOM     23  C   UNL     1      -6.748 -10.186  18.405  0.00  0.00    +0.111 A 
ENDBRANCH  17  19
ENDBRANCH   8  16
TORSDOF 3
ENDMDL
MODEL 2
REMARK VINA RESULT:      -3.1     15.319     17.462
REMARK  Name = 75367163
REMARK  3 active torsions:
REMARK  status: ('A' for Active; 'I' for Inactive)
REMARK    1  A    between atoms: N_2  and  C_7
REMARK    2  A    between atoms: C_8  and  C_16
REMARK    3  A    between atoms: C_17  and  C_19
REMARK                            x       y       z     vdW  Elec       q    Type
REMARK                         _______ _______ _______ _____ _____    ______ ____
ROOT
ATOM      1  O   UNL     1      -2.733  -2.062  25.021  0.00  0.00    -0.377 OA
ATOM      2  N   UNL     1      -2.928   0.706  24.239  0.00  0.00    -0.286 NA
ATOM      8  C   UNL     1      -1.725   0.189  24.928  0.00  0.00    +0.149 C 
ATOM     11  C   UNL     1      -3.677  -0.370  23.575  0.00  0.00    +0.113 C 
ATOM     14  C   UNL     1      -2.032  -1.067  25.770  0.00  0.00    +0.186 C 
ATOM     15  C   UNL     1      -3.954  -1.553  24.494  0.00  0.00    +0.175 C 
ENDROOT
BRANCH   2   7
ATOM      3  N   UNL     1      -5.725   3.644  25.524  0.00  0.00    -0.316 NA
ATOM      7  C   UNL     1      -3.779   1.488  25.134  0.00  0.00    +0.060 C 
ATOM      9  C   UNL     1      -5.258   1.330  24.763  0.00  0.00    +0.034 C 
ATOM     10  C   UNL     1      -3.379   2.966  25.089  0.00  0.00    +0.034 C 
ATOM     12  C   UNL     1      -6.136   2.241  25.622  0.00  0.00    +0.082 C 
ATOM     13  C   UNL     1      -4.329   3.814  25.935  0.00  0.00    +0.082 C 
ATOM     24  H   UNL     1      -6.324   4.213  26.122  0.00  0.00    +0.122 HD
ENDBRANCH   2   7
BRANCH   8  16
ATOM      4  N   UNL     1       0.736   0.023  24.375  0.00  0.00    -0.340 N 
ATOM      5  N   UNL     1      -0.643  -0.037  22.635  0.00  0.00    -0.238 NA
ATOM     16  C   UNL     1      -0.561   0.056  23.944  0.00  0.00    +0.127 A 
ATOM     17  C   UNL     1       1.532  -0.100  23.271  0.00  0.00    +0.068 A 
ATOM     18  C   UNL     1       0.658  -0.134  22.210  0.00  0.00    +0.139 A 
ATOM     25  H   UNL     1       1.041   0.089  25.337  0.00  0.00    +0.167 HD
BRANCH  17  19
ATOM      6  N   UNL     1       4.954  -1.444  23.848  0.00  0.00    -0.263 NA
ATOM     19  C   UNL     1       2.968  -0.167  23.333  0.00  0.00    +0.018 A 
ATOM     20  C   UNL     1       3.753   0.919  22.962  0.00  0.00    +0.013 A 
ATOM     21  C   UNL     1       3.611  -1.315  23.766  0.00  0.00    +0.120 A 
ATOM     22  C   UNL     1       5.138   0.824  23.032  0.00  0.00    +0.020 A 
ATOM     23  C   UNL     1       5.685  -0.369  23.478  0.00  0.00    +0.111 A 
ENDBRANCH  17  19
ENDBRANCH   8  16
TORSDOF 3
ENDMDL
MODEL 3
REMARK VINA RESULT:      -2.7     16.284     18.074
REMARK  Name = 75367163
REMARK  3 active torsions:
REMARK  status: ('A' for Active; 'I' for Inactive)
REMARK    1  A    between atoms: N_2  and  C_7
REMARK    2  A    between atoms: C_8  and  C_16
REMARK    3  A    between atoms: C_17  and  C_19
REMARK                            x       y       z     vdW  Elec       q    Type
REMARK                         _______ _______ _______ _____ _____    ______ ____
ROOT
ATOM      1  O   UNL     1      -0.328   3.975  24.155  0.00  0.00    -0.377 OA
ATOM      2  N   UNL     1      -2.245   1.959  24.908  0.00  0.00    -0.286 NA
ATOM      8  C   UNL     1      -1.563   1.913  23.594  0.00  0.00    +0.149 C 
ATOM     11  C   UNL     1      -1.486   2.748  25.887  0.00  0.00    +0.113 C 
ATOM     14  C   UNL     1      -1.082   3.309  23.142  0.00  0.00    +0.186 C 
ATOM     15  C   UNL     1      -1.080   4.118  25.356  0.00  0.00    +0.175 C 
ENDROOT
BRANCH   2   7
ATOM      3  N   UNL     1      -6.262   2.829  26.006  0.00  0.00    -0.316 NA
ATOM      7  C   UNL     1      -3.627   2.421  24.792  0.00  0.00    +0.060 C 
ATOM      9  C   UNL     1      -3.906   3.567  25.770  0.00  0.00    +0.034 C 
ATOM     10  C   UNL     1      -4.596   1.262  25.047  0.00  0.00    +0.034 C 
ATOM     12  C   UNL     1      -5.382   3.968  25.732  0.00  0.00    +0.082 C 
ATOM     13  C   UNL     1      -6.045   1.752  25.038  0.00  0.00    +0.082 C 
ATOM     24  H   UNL     1      -7.234   3.135  25.956  0.00  0.00    +0.122 HD
ENDBRANCH   2   7
BRANCH   8  16
ATOM      4  N   UNL     1       0.830   1.109  23.485  0.00  0.00    -0.340 N 
ATOM      5  N   UNL     1      -0.708  -0.484  23.656  0.00  0.00    -0.238 NA
ATOM     16  C   UNL     1      -0.501   0.813  23.582  0.00  0.00    +0.127 A 
ATOM     17  C   UNL     1       1.516  -0.073  23.499  0.00  0.00    +0.068 A 
ATOM     18  C   UNL     1       0.545  -1.041  23.605  0.00  0.00    +0.139 A 
ATOM     25  H   UNL     1       1.226   2.037  23.405  0.00  0.00    +0.167 HD
BRANCH  17  19
ATOM      6  N   UNL     1       4.967  -1.434  23.795  0.00  0.00    -0.263 NA
ATOM     19  C   UNL     1       2.949  -0.159  23.412  0.00  0.00    +0.018 A 
ATOM     20  C   UNL     1       3.700   0.888  22.891  0.00  0.00    +0.013 A 
ATOM     21  C   UNL     1       3.625  -1.288  23.847  0.00  0.00    +0.120 A 
ATOM     22  C   UNL     1       5.085   0.776  22.819  0.00  0.00    +0.020 A 
ATOM     23  C   UNL     1       5.664  -0.396  23.281  0.00  0.00    +0.111 A 
ENDBRANCH  17  19
ENDBRANCH   8  16
TORSDOF 3
ENDMDL
