MODEL 1
REMARK VINA RESULT:      -5.0      0.000      0.000
REMARK  Name = 28962456
REMARK  11 active torsions:
REMARK  status: ('A' for Active; 'I' for Inactive)
REMARK    1  A    between atoms: O_1  and  C_9
REMARK    2  A    between atoms: N_4  and  C_13
REMARK    3  A    between atoms: N_5  and  C_23
REMARK    4  A    between atoms: C_6  and  C_16
REMARK    5  A    between atoms: C_8  and  C_18
REMARK    6  A    between atoms: C_11  and  C_17
REMARK    7  A    between atoms: C_17  and  C_19
REMARK    8  A    between atoms: C_17  and  C_20
REMARK    9  A    between atoms: C_21  and  C_22
REMARK   10  A    between atoms: C_23  and  C_24
REMARK   11  A    between atoms: C_23  and  C_25
REMARK                            x       y       z     vdW  Elec       q    Type
REMARK                         _______ _______ _______ _____ _____    ______ ____
ROOT
ATOM      6  C   UNL     1      -2.153  -0.962  25.111  0.00  0.00    -0.027 C 
ATOM      7  C   UNL     1      -2.152   0.285  24.166  0.00  0.00    +0.028 C 
ATOM      8  C   UNL     1      -0.696   0.844  23.979  0.00  0.00    +0.012 C 
ATOM      9  C   UNL     1      -3.217   1.330  24.610  0.00  0.00    +0.122 C 
ATOM     10  C   UNL     1      -3.581  -1.553  25.183  0.00  0.00    +0.007 C 
ATOM     11  C   UNL     1      -4.623   0.710  24.781  0.00  0.00    +0.029 C 
ATOM     12  C   UNL     1      -1.224  -2.046  24.516  0.00  0.00    +0.009 C 
ATOM     13  C   UNL     1       0.246  -0.275  23.451  0.00  0.00    +0.076 C 
ATOM     14  C   UNL     1      -4.619  -0.545  25.655  0.00  0.00    +0.007 C 
ATOM     15  C   UNL     1       0.197  -1.553  24.287  0.00  0.00    +0.023 C 
ATOM     16  C   UNL     1      -1.683  -0.619  26.547  0.00  0.00    +0.011 C 
ATOM     18  C   UNL     1      -0.618   2.057  23.036  0.00  0.00    +0.010 C 
ENDROOT
BRANCH  13   4
ATOM      3  O   UNL     1       2.001  -0.343  21.139  0.00  0.00    -0.276 OA
ATOM      4  N   UNL     1       1.621   0.173  23.377  0.00  0.00    -0.312 N 
ATOM     21  C   UNL     1       2.378   0.098  22.223  0.00  0.00    +0.210 C 
ATOM     22  C   UNL     1       3.764   0.654  22.414  0.00  0.00    +0.109 C 
ATOM     26  H   UNL     1       2.060   0.503  24.232  0.00  0.00    +0.149 HD
ENDBRANCH  13   4
BRANCH   9   1
ATOM      1  O   UNL     1      -3.336   2.343  23.611  0.00  0.00    -0.391 OA
ATOM     27  H   UNL     1      -4.282   2.534  23.485  0.00  0.00    +0.210 HD
ENDBRANCH   9   1
BRANCH  11  17
ATOM     17  C   UNL     1      -5.627   1.723  25.344  0.00  0.00    +0.077 C 
ATOM     19  C   UNL     1      -6.818   1.861  24.404  0.00  0.00    +0.017 C 
BRANCH  17  20
ATOM      2  O   UNL     1      -5.489   4.142  25.345  0.00  0.00    -0.276 OA
ATOM      5  N   UNL     1      -3.643   2.926  26.046  0.00  0.00    -0.313 N 
ATOM     20  C   UNL     1      -4.938   3.066  25.570  0.00  0.00    +0.216 C 
ATOM     28  H   UNL     1      -3.247   1.995  26.135  0.00  0.00    +0.149 HD
BRANCH   5  23
ATOM     23  C   UNL     1      -2.789   4.055  26.334  0.00  0.00    +0.067 C 
ATOM     24  C   UNL     1      -2.892   5.094  25.225  0.00  0.00    +0.027 C 
ATOM     25  C   UNL     1      -1.349   3.600  26.531  0.00  0.00    +0.027 C 
ENDBRANCH   5  23
ENDBRANCH  17  20
ENDBRANCH  11  17
TORSDOF 5
ENDMDL
MODEL 2
REMARK VINA RESULT:      -3.2      1.821      6.968
REMARK  Name = 28962456
REMARK  11 active torsions:
REMARK  status: ('A' for Active; 'I' for Inactive)
REMARK    1  A    between atoms: O_1  and  C_9
REMARK    2  A    between atoms: N_4  and  C_13
REMARK    3  A    between atoms: N_5  and  C_23
REMARK    4  A    between atoms: C_6  and  C_16
REMARK    5  A    between atoms: C_8  and  C_18
REMARK    6  A    between atoms: C_11  and  C_17
REMARK    7  A    between atoms: C_17  and  C_19
REMARK    8  A    between atoms: C_17  and  C_20
REMARK    9  A    between atoms: C_21  and  C_22
REMARK   10  A    between atoms: C_23  and  C_24
REMARK   11  A    between atoms: C_23  and  C_25
REMARK                            x       y       z     vdW  Elec       q    Type
REMARK                         _______ _______ _______ _____ _____    ______ ____
ROOT
ATOM      6  C   UNL     1      -2.186   0.015  24.408  0.00  0.00    -0.027 C 
ATOM      7  C   UNL     1      -1.313   1.280  24.703  0.00  0.00    +0.028 C 
ATOM      8  C   UNL     1      -2.211   2.563  24.827  0.00  0.00    +0.012 C 
ATOM      9  C   UNL     1      -0.123   1.391  23.706  0.00  0.00    +0.122 C 
ATOM     10  C   UNL     1      -1.285  -1.243  24.405  0.00  0.00    +0.007 C 
ATOM     11  C   UNL     1       0.712   0.092  23.631  0.00  0.00    +0.029 C 
ATOM     12  C   UNL     1      -3.227  -0.154  25.538  0.00  0.00    +0.009 C 
ATOM     13  C   UNL     1      -3.303   2.352  25.915  0.00  0.00    +0.076 C 
ATOM     14  C   UNL     1      -0.143  -1.155  23.402  0.00  0.00    +0.007 C 
ATOM     15  C   UNL     1      -4.112   1.070  25.723  0.00  0.00    +0.023 C 
ATOM     16  C   UNL     1      -2.920   0.105  23.046  0.00  0.00    +0.011 C 
ATOM     18  C   UNL     1      -1.419   3.841  25.146  0.00  0.00    +0.010 C 
ENDROOT
BRANCH  13   4
ATOM      3  O   UNL     1      -5.925   2.548  24.682  0.00  0.00    -0.276 OA
ATOM      4  N   UNL     1      -4.222   3.470  25.975  0.00  0.00    -0.312 N 
ATOM     21  C   UNL     1      -5.455   3.466  25.350  0.00  0.00    +0.210 C 
ATOM     22  C   UNL     1      -6.219   4.740  25.594  0.00  0.00    +0.109 C 
ATOM     26  H   UNL     1      -3.915   4.312  26.453  0.00  0.00    +0.149 HD
ENDBRANCH  13   4
BRANCH   9   1
ATOM      1  O   UNL     1       0.765   2.423  24.136  0.00  0.00    -0.391 OA
ATOM     27  H   UNL     1       1.651   2.222  23.789  0.00  0.00    +0.210 HD
ENDBRANCH   9   1
BRANCH  11  17
ATOM     17  C   UNL     1       1.796   0.175  22.549  0.00  0.00    +0.077 C 
ATOM     19  C   UNL     1       1.387  -0.645  21.331  0.00  0.00    +0.017 C 
BRANCH  17  20
ATOM      2  O   UNL     1       3.309  -1.442  23.530  0.00  0.00    -0.276 OA
ATOM      5  N   UNL     1       4.097   0.697  23.104  0.00  0.00    -0.313 N 
ATOM     20  C   UNL     1       3.132  -0.299  23.115  0.00  0.00    +0.216 C 
ATOM     28  H   UNL     1       3.838   1.633  22.806  0.00  0.00    +0.149 HD
BRANCH   5  23
ATOM     23  C   UNL     1       5.441   0.489  23.591  0.00  0.00    +0.067 C 
ATOM     24  C   UNL     1       6.251  -0.318  22.585  0.00  0.00    +0.027 C 
ATOM     25  C   UNL     1       5.415  -0.193  24.953  0.00  0.00    +0.027 C 
ENDBRANCH   5  23
ENDBRANCH  17  20
ENDBRANCH  11  17
TORSDOF 5
ENDMDL
MODEL 3
REMARK VINA RESULT:      -2.2      1.608      7.189
REMARK  Name = 28962456
REMARK  11 active torsions:
REMARK  status: ('A' for Active; 'I' for Inactive)
REMARK    1  A    between atoms: O_1  and  C_9
REMARK    2  A    between atoms: N_4  and  C_13
REMARK    3  A    between atoms: N_5  and  C_23
REMARK    4  A    between atoms: C_6  and  C_16
REMARK    5  A    between atoms: C_8  and  C_18
REMARK    6  A    between atoms: C_11  and  C_17
REMARK    7  A    between atoms: C_17  and  C_19
REMARK    8  A    between atoms: C_17  and  C_20
REMARK    9  A    between atoms: C_21  and  C_22
REMARK   10  A    between atoms: C_23  and  C_24
REMARK   11  A    between atoms: C_23  and  C_25
REMARK                            x       y       z     vdW  Elec       q    Type
REMARK                         _______ _______ _______ _____ _____    ______ ____
ROOT
ATOM      6  C   UNL     1      -0.997   2.786  24.998  0.00  0.00    -0.027 C 
ATOM      7  C   UNL     1      -1.940   1.690  24.400  0.00  0.00    +0.028 C 
ATOM      8  C   UNL     1      -3.231   1.520  25.279  0.00  0.00    +0.012 C 
ATOM      9  C   UNL     1      -1.160   0.377  24.098  0.00  0.00    +0.122 C 
ATOM     10  C   UNL     1       0.204   3.006  24.049  0.00  0.00    +0.007 C 
ATOM     11  C   UNL     1       0.100   0.620  23.235  0.00  0.00    +0.029 C 
ATOM     12  C   UNL     1      -1.773   4.120  25.093  0.00  0.00    +0.009 C 
ATOM     13  C   UNL     1      -3.961   2.885  25.430  0.00  0.00    +0.076 C 
ATOM     14  C   UNL     1       0.994   1.732  23.784  0.00  0.00    +0.007 C 
ATOM     15  C   UNL     1      -3.050   4.011  25.914  0.00  0.00    +0.023 C 
ATOM     16  C   UNL     1      -0.461   2.406  26.401  0.00  0.00    +0.011 C 
ATOM     18  C   UNL     1      -4.217   0.475  24.731  0.00  0.00    +0.010 C 
ENDROOT
BRANCH  13   4
ATOM      3  O   UNL     1      -6.586   1.783  24.858  0.00  0.00    -0.276 OA
ATOM      4  N   UNL     1      -5.092   2.791  26.331  0.00  0.00    -0.312 N 
ATOM     21  C   UNL     1      -6.307   2.246  25.962  0.00  0.00    +0.210 C 
ATOM     22  C   UNL     1      -7.298   2.248  27.095  0.00  0.00    +0.109 C 
ATOM     26  H   UNL     1      -4.996   3.197  27.257  0.00  0.00    +0.149 HD
ENDBRANCH  13   4
BRANCH   9   1
ATOM      1  O   UNL     1      -1.995  -0.516  23.361  0.00  0.00    -0.391 OA
ATOM     27  H   UNL     1      -2.636   0.016  22.859  0.00  0.00    +0.210 HD
ENDBRANCH   9   1
BRANCH  11  17
ATOM     17  C   UNL     1       0.925  -0.662  23.061  0.00  0.00    +0.077 C 
ATOM     19  C   UNL     1       1.001  -1.421  24.380  0.00  0.00    +0.017 C 
BRANCH  17  20
ATOM      2  O   UNL     1       2.512   0.100  21.397  0.00  0.00    -0.276 OA
ATOM      5  N   UNL     1       3.308  -0.529  23.484  0.00  0.00    -0.313 N 
ATOM     20  C   UNL     1       2.316  -0.317  22.537  0.00  0.00    +0.216 C 
ATOM     28  H   UNL     1       3.058  -0.942  24.377  0.00  0.00    +0.149 HD
BRANCH   5  23
ATOM     23  C   UNL     1       4.706  -0.276  23.221  0.00  0.00    +0.067 C 
ATOM     24  C   UNL     1       5.573  -0.939  24.283  0.00  0.00    +0.027 C 
ATOM     25  C   UNL     1       4.973   1.221  23.144  0.00  0.00    +0.027 C 
ENDBRANCH   5  23
ENDBRANCH  17  20
ENDBRANCH  11  17
TORSDOF 5
ENDMDL
MODEL 4
REMARK VINA RESULT:      -1.4      2.019      5.646
REMARK  Name = 28962456
REMARK  11 active torsions:
REMARK  status: ('A' for Active; 'I' for Inactive)
REMARK    1  A    between atoms: O_1  and  C_9
REMARK    2  A    between atoms: N_4  and  C_13
REMARK    3  A    between atoms: N_5  and  C_23
REMARK    4  A    between atoms: C_6  and  C_16
REMARK    5  A    between atoms: C_8  and  C_18
REMARK    6  A    between atoms: C_11  and  C_17
REMARK    7  A    between atoms: C_17  and  C_19
REMARK    8  A    between atoms: C_17  and  C_20
REMARK    9  A    between atoms: C_21  and  C_22
REMARK   10  A    between atoms: C_23  and  C_24
REMARK   11  A    between atoms: C_23  and  C_25
REMARK                            x       y       z     vdW  Elec       q    Type
REMARK                         _______ _______ _______ _____ _____    ______ ____
ROOT
ATOM      6  C   UNL     1      -4.060   1.412  24.323  0.00  0.00    -0.027 C 
ATOM      7  C   UNL     1      -2.874   1.357  25.342  0.00  0.00    +0.028 C 
ATOM      8  C   UNL     1      -2.156   2.751  25.441  0.00  0.00    +0.012 C 
ATOM      9  C   UNL     1      -1.941   0.144  25.059  0.00  0.00    +0.122 C 
ATOM     10  C   UNL     1      -4.812   0.060  24.335  0.00  0.00    +0.007 C 
ATOM     11  C   UNL     1      -2.715  -1.192  24.968  0.00  0.00    +0.029 C 
ATOM     12  C   UNL     1      -5.055   2.509  24.766  0.00  0.00    +0.009 C 
ATOM     13  C   UNL     1      -3.182   3.859  25.814  0.00  0.00    +0.076 C 
ATOM     14  C   UNL     1      -3.911  -1.126  24.018  0.00  0.00    +0.007 C 
ATOM     15  C   UNL     1      -4.410   3.879  24.905  0.00  0.00    +0.023 C 
ATOM     16  C   UNL     1      -3.587   1.706  22.877  0.00  0.00    +0.011 C 
ATOM     18  C   UNL     1      -0.995   2.776  26.449  0.00  0.00    +0.010 C 
ENDROOT
BRANCH  13   4
ATOM      3  O   UNL     1      -1.005   4.783  24.128  0.00  0.00    -0.276 OA
ATOM      4  N   UNL     1      -2.578   5.175  25.799  0.00  0.00    -0.312 N 
ATOM     21  C   UNL     1      -1.540   5.519  24.954  0.00  0.00    +0.210 C 
ATOM     22  C   UNL     1      -1.119   6.954  25.126  0.00  0.00    +0.109 C 
ATOM     26  H   UNL     1      -2.901   5.853  26.483  0.00  0.00    +0.149 HD
ENDBRANCH  13   4
BRANCH   9   1
ATOM      1  O   UNL     1      -1.004   0.002  26.127  0.00  0.00    -0.391 OA
ATOM     27  H   UNL     1      -1.325   0.526  26.881  0.00  0.00    +0.210 HD
ENDBRANCH   9   1
BRANCH  11  17
ATOM     17  C   UNL     1      -1.799  -2.352  24.558  0.00  0.00    +0.077 C 
ATOM     19  C   UNL     1      -1.961  -3.517  25.528  0.00  0.00    +0.017 C 
BRANCH  17  20
ATOM      2  O   UNL     1       0.523  -2.308  25.248  0.00  0.00    -0.276 OA
ATOM      5  N   UNL     1      -0.147  -0.914  23.520  0.00  0.00    -0.313 N 
ATOM     20  C   UNL     1      -0.351  -1.875  24.499  0.00  0.00    +0.216 C 
ATOM     28  H   UNL     1      -0.944  -0.567  22.996  0.00  0.00    +0.149 HD
BRANCH   5  23
ATOM     23  C   UNL     1       1.142  -0.309  23.275  0.00  0.00    +0.067 C 
ATOM     24  C   UNL     1       1.136   1.149  23.715  0.00  0.00    +0.027 C 
ATOM     25  C   UNL     1       1.523  -0.441  21.806  0.00  0.00    +0.027 C 
ENDBRANCH   5  23
ENDBRANCH  17  20
ENDBRANCH  11  17
TORSDOF 5
ENDMDL
MODEL 5
REMARK VINA RESULT:      -1.0      2.129      6.546
REMARK  Name = 28962456
REMARK  11 active torsions:
REMARK  status: ('A' for Active; 'I' for Inactive)
REMARK    1  A    between atoms: O_1  and  C_9
REMARK    2  A    between atoms: N_4  and  C_13
REMARK    3  A    between atoms: N_5  and  C_23
REMARK    4  A    between atoms: C_6  and  C_16
REMARK    5  A    between atoms: C_8  and  C_18
REMARK    6  A    between atoms: C_11  and  C_17
REMARK    7  A    between atoms: C_17  and  C_19
REMARK    8  A    between atoms: C_17  and  C_20
REMARK    9  A    between atoms: C_21  and  C_22
REMARK   10  A    between atoms: C_23  and  C_24
REMARK   11  A    between atoms: C_23  and  C_25
REMARK                            x       y       z     vdW  Elec       q    Type
REMARK                         _______ _______ _______ _____ _____    ______ ____
ROOT
ATOM      6  C   UNL     1      -0.712   3.271  25.009  0.00  0.00    -0.027 C 
ATOM      7  C   UNL     1      -1.668   2.611  23.961  0.00  0.00    +0.028 C 
ATOM      8  C   UNL     1      -3.163   2.998  24.246  0.00  0.00    +0.012 C 
ATOM      9  C   UNL     1      -1.387   1.087  23.821  0.00  0.00    +0.122 C 
ATOM     10  C   UNL     1       0.757   2.964  24.632  0.00  0.00    +0.007 C 
ATOM     11  C   UNL     1       0.104   0.780  23.548  0.00  0.00    +0.029 C 
ATOM     12  C   UNL     1      -0.898   4.806  24.964  0.00  0.00    +0.009 C 
ATOM     13  C   UNL     1      -3.323   4.544  24.274  0.00  0.00    +0.076 C 
ATOM     14  C   UNL     1       1.046   1.472  24.534  0.00  0.00    +0.007 C 
ATOM     15  C   UNL     1      -2.335   5.240  25.209  0.00  0.00    +0.023 C 
ATOM     16  C   UNL     1      -0.972   2.767  26.451  0.00  0.00    +0.011 C 
ATOM     18  C   UNL     1      -4.158   2.404  23.234  0.00  0.00    +0.010 C 
ENDROOT
BRANCH  13   4
ATOM      3  O   UNL     1      -5.010   3.340  26.307  0.00  0.00    -0.276 OA
ATOM      4  N   UNL     1      -4.665   4.938  24.650  0.00  0.00    -0.312 N 
ATOM     21  C   UNL     1      -5.390   4.298  25.637  0.00  0.00    +0.210 C 
ATOM     22  C   UNL     1      -6.744   4.923  25.845  0.00  0.00    +0.109 C 
ATOM     26  H   UNL     1      -5.108   5.684  24.121  0.00  0.00    +0.149 HD
ENDBRANCH  13   4
BRANCH   9   1
ATOM      1  O   UNL     1      -2.121   0.565  22.713  0.00  0.00    -0.391 OA
ATOM     27  H   UNL     1      -2.361  -0.355  22.916  0.00  0.00    +0.210 HD
ENDBRANCH   9   1
BRANCH  11  17
ATOM     17  C   UNL     1       0.383  -0.728  23.546  0.00  0.00    +0.077 C 
ATOM     19  C   UNL     1       0.170  -1.299  22.149  0.00  0.00    +0.017 C 
BRANCH  17  20
ATOM      2  O   UNL     1      -0.109  -1.743  25.690  0.00  0.00    -0.276 OA
ATOM      5  N   UNL     1      -1.792  -1.644  24.097  0.00  0.00    -0.313 N 
ATOM     20  C   UNL     1      -0.508  -1.423  24.572  0.00  0.00    +0.216 C 
ATOM     28  H   UNL     1      -2.011  -1.408  23.134  0.00  0.00    +0.149 HD
BRANCH   5  23
ATOM     23  C   UNL     1      -2.817  -2.290  24.886  0.00  0.00    +0.067 C 
ATOM     24  C   UNL     1      -3.887  -2.885  23.981  0.00  0.00    +0.027 C 
ATOM     25  C   UNL     1      -3.420  -1.309  25.883  0.00  0.00    +0.027 C 
ENDBRANCH   5  23
ENDBRANCH  17  20
ENDBRANCH  11  17
TORSDOF 5
ENDMDL
