MODEL 1
REMARK VINA RESULT:      -2.4      0.000      0.000
REMARK  Name = 45783659
REMARK  5 active torsions:
REMARK  status: ('A' for Active; 'I' for Inactive)
REMARK    1  A    between atoms: N_3  and  C_13
REMARK    2  A    between atoms: N_7  and  C_26
REMARK    3  A    between atoms: C_9  and  C_14
REMARK    4  A    between atoms: C_13  and  C_15
REMARK    5  A    between atoms: C_18  and  C_19
REMARK                            x       y       z     vdW  Elec       q    Type
REMARK                         _______ _______ _______ _____ _____    ______ ____
ROOT
ATOM      2  O   UNL     1      -3.241   2.536  22.333  0.00  0.00    -0.336 OA
ATOM      4  N   UNL     1      -2.312   1.460  24.065  0.00  0.00    -0.190 NA
ATOM      5  N   UNL     1      -1.917   2.275  21.963  0.00  0.00    -0.056 NA
ATOM     14  C   UNL     1      -3.392   2.024  23.583  0.00  0.00    +0.245 A 
ATOM     18  C   UNL     1      -1.434   1.638  23.034  0.00  0.00    +0.204 A 
ENDROOT
BRANCH  18  19
ATOM      6  N   UNL     1       2.199   1.549  23.819  0.00  0.00    -0.237 NA
ATOM     19  C   UNL     1      -0.080   1.170  23.110  0.00  0.00    +0.041 A 
ATOM     23  C   UNL     1       0.283  -0.060  22.572  0.00  0.00    +0.017 A 
ATOM     24  C   UNL     1       0.906   1.929  23.717  0.00  0.00    +0.124 A 
ATOM     25  C   UNL     1       1.604  -0.486  22.658  0.00  0.00    +0.047 A 
ATOM     26  C   UNL     1       2.516   0.348  23.286  0.00  0.00    +0.139 A 
BRANCH  26   7
ATOM      7  N   UNL     1       3.833  -0.073  23.375  0.00  0.00    -0.290 N 
ATOM      8  N   UNL     1       5.571  -1.398  23.766  0.00  0.00    -0.244 NA
ATOM     27  C   UNL     1       4.942   0.663  23.063  0.00  0.00    +0.114 A 
ATOM     28  C   UNL     1       4.261  -1.302  23.792  0.00  0.00    +0.205 A 
ATOM     29  C   UNL     1       6.002  -0.176  23.313  0.00  0.00    +0.130 A 
ENDBRANCH  26   7
ENDBRANCH  18  19
BRANCH  14   9
ATOM      3  N   UNL     1      -4.859   1.495  25.522  0.00  0.00    -0.287 NA
ATOM      9  C   UNL     1      -4.758   2.179  24.217  0.00  0.00    +0.146 C 
ATOM     10  C   UNL     1      -5.110   3.648  24.517  0.00  0.00    +0.030 C 
ATOM     11  C   UNL     1      -5.454   3.680  26.000  0.00  0.00    +0.017 C 
ATOM     12  C   UNL     1      -5.838   2.247  26.308  0.00  0.00    +0.085 C 
BRANCH   3  13
ATOM     13  C   UNL     1      -5.214   0.087  25.406  0.00  0.00    +0.123 C 
BRANCH  13  15
ATOM      1  F   UNL     1      -5.096  -2.046  23.546  0.00  0.00    -0.205 F 
ATOM     15  C   UNL     1      -3.999  -0.785  25.231  0.00  0.00    +0.002 A 
ATOM     16  C   UNL     1      -4.009  -1.820  24.296  0.00  0.00    +0.128 A 
ATOM     17  C   UNL     1      -2.862  -0.557  26.008  0.00  0.00    +0.008 A 
ATOM     20  C   UNL     1      -2.882  -2.627  24.137  0.00  0.00    +0.038 A 
ATOM     21  C   UNL     1      -1.736  -1.364  25.849  0.00  0.00    +0.000 A 
ATOM     22  C   UNL     1      -1.746  -2.399  24.914  0.00  0.00    +0.003 A 
ENDBRANCH  13  15
ENDBRANCH   3  13
ENDBRANCH  14   9
TORSDOF 5
ENDMDL
MODEL 2
REMARK VINA RESULT:      -0.5      1.044      1.560
REMARK  Name = 45783659
REMARK  5 active torsions:
REMARK  status: ('A' for Active; 'I' for Inactive)
REMARK    1  A    between atoms: N_3  and  C_13
REMARK    2  A    between atoms: N_7  and  C_26
REMARK    3  A    between atoms: C_9  and  C_14
REMARK    4  A    between atoms: C_13  and  C_15
REMARK    5  A    between atoms: C_18  and  C_19
REMARK                            x       y       z     vdW  Elec       q    Type
REMARK                         _______ _______ _______ _____ _____    ______ ____
ROOT
ATOM      2  O   UNL     1      -3.249   1.951  22.081  0.00  0.00    -0.336 OA
ATOM      4  N   UNL     1      -2.143   1.658  24.007  0.00  0.00    -0.190 NA
ATOM      5  N   UNL     1      -1.945   1.583  21.728  0.00  0.00    -0.056 NA
ATOM     14  C   UNL     1      -3.281   1.972  23.440  0.00  0.00    +0.245 A 
ATOM     18  C   UNL     1      -1.354   1.427  22.917  0.00  0.00    +0.204 A 
ENDROOT
BRANCH  18  19
ATOM      6  N   UNL     1       1.763  -0.580  22.638  0.00  0.00    -0.237 NA
ATOM     19  C   UNL     1       0.022   1.045  23.050  0.00  0.00    +0.041 A 
ATOM     23  C   UNL     1       0.936   1.872  23.695  0.00  0.00    +0.017 A 
ATOM     24  C   UNL     1       0.482  -0.159  22.543  0.00  0.00    +0.124 A 
ATOM     25  C   UNL     1       2.263   1.473  23.811  0.00  0.00    +0.047 A 
ATOM     26  C   UNL     1       2.623   0.249  23.270  0.00  0.00    +0.139 A 
BRANCH  26   7
ATOM      7  N   UNL     1       3.944  -0.152  23.383  0.00  0.00    -0.290 N 
ATOM      8  N   UNL     1       5.695  -1.451  23.805  0.00  0.00    -0.244 NA
ATOM     27  C   UNL     1       5.047   0.601  23.094  0.00  0.00    +0.114 A 
ATOM     28  C   UNL     1       4.384  -1.376  23.806  0.00  0.00    +0.205 A 
ATOM     29  C   UNL     1       6.116  -0.222  23.362  0.00  0.00    +0.130 A 
ENDBRANCH  26   7
ENDBRANCH  18  19
BRANCH  14   9
ATOM      3  N   UNL     1      -4.800   1.699  25.391  0.00  0.00    -0.287 NA
ATOM      9  C   UNL     1      -4.601   2.346  24.079  0.00  0.00    +0.146 C 
ATOM     10  C   UNL     1      -4.716   3.855  24.365  0.00  0.00    +0.030 C 
ATOM     11  C   UNL     1      -5.041   3.955  25.849  0.00  0.00    +0.017 C 
ATOM     12  C   UNL     1      -5.643   2.602  26.174  0.00  0.00    +0.085 C 
BRANCH   3  13
ATOM     13  C   UNL     1      -5.372   0.363  25.292  0.00  0.00    +0.123 C 
BRANCH  13  15
ATOM      1  F   UNL     1      -2.892   0.142  26.644  0.00  0.00    -0.205 F 
ATOM     15  C   UNL     1      -4.333  -0.668  24.939  0.00  0.00    +0.002 A 
ATOM     16  C   UNL     1      -3.131  -0.721  25.646  0.00  0.00    +0.128 A 
ATOM     17  C   UNL     1      -4.573  -1.571  23.903  0.00  0.00    +0.008 A 
ATOM     20  C   UNL     1      -2.171  -1.676  25.317  0.00  0.00    +0.038 A 
ATOM     21  C   UNL     1      -3.612  -2.526  23.574  0.00  0.00    +0.000 A 
ATOM     22  C   UNL     1      -2.411  -2.579  24.281  0.00  0.00    +0.003 A 
ENDBRANCH  13  15
ENDBRANCH   3  13
ENDBRANCH  14   9
TORSDOF 5
ENDMDL
MODEL 3
REMARK VINA RESULT:       1.0      2.197      3.444
REMARK  Name = 45783659
REMARK  5 active torsions:
REMARK  status: ('A' for Active; 'I' for Inactive)
REMARK    1  A    between atoms: N_3  and  C_13
REMARK    2  A    between atoms: N_7  and  C_26
REMARK    3  A    between atoms: C_9  and  C_14
REMARK    4  A    between atoms: C_13  and  C_15
REMARK    5  A    between atoms: C_18  and  C_19
REMARK                            x       y       z     vdW  Elec       q    Type
REMARK                         _______ _______ _______ _____ _____    ______ ____
ROOT
ATOM      2  O   UNL     1      -3.445   1.461  23.079  0.00  0.00    -0.336 OA
ATOM      4  N   UNL     1      -2.129   0.903  24.805  0.00  0.00    -0.190 NA
ATOM      5  N   UNL     1      -2.170   1.244  22.543  0.00  0.00    -0.056 NA
ATOM     14  C   UNL     1      -3.334   1.240  24.416  0.00  0.00    +0.245 A 
ATOM     18  C   UNL     1      -1.450   0.918  23.620  0.00  0.00    +0.204 A 
ENDROOT
BRANCH  18  19
ATOM      6  N   UNL     1       2.241   1.340  23.763  0.00  0.00    -0.237 NA
ATOM     19  C   UNL     1      -0.052   0.605  23.550  0.00  0.00    +0.041 A 
ATOM     23  C   UNL     1       0.380  -0.672  23.211  0.00  0.00    +0.017 A 
ATOM     24  C   UNL     1       0.909   1.567  23.815  0.00  0.00    +0.124 A 
ATOM     25  C   UNL     1       1.742  -0.944  23.148  0.00  0.00    +0.047 A 
ATOM     26  C   UNL     1       2.624   0.087  23.431  0.00  0.00    +0.139 A 
BRANCH  26   7
ATOM      7  N   UNL     1       3.982  -0.180  23.371  0.00  0.00    -0.290 N 
ATOM      8  N   UNL     1       6.139   0.098  22.919  0.00  0.00    -0.244 NA
ATOM     27  C   UNL     1       4.610  -1.298  23.842  0.00  0.00    +0.114 A 
ATOM     28  C   UNL     1       4.941   0.629  22.825  0.00  0.00    +0.205 A 
ATOM     29  C   UNL     1       5.940  -1.104  23.553  0.00  0.00    +0.130 A 
ENDBRANCH  26   7
ENDBRANCH  18  19
BRANCH  14   9
ATOM      3  N   UNL     1      -5.164   2.769  25.122  0.00  0.00    -0.287 NA
ATOM      9  C   UNL     1      -4.595   1.412  25.236  0.00  0.00    +0.146 C 
ATOM     10  C   UNL     1      -5.729   0.472  24.786  0.00  0.00    +0.030 C 
ATOM     11  C   UNL     1      -6.912   1.386  24.500  0.00  0.00    +0.017 C 
ATOM     12  C   UNL     1      -6.609   2.628  25.312  0.00  0.00    +0.085 C 
BRANCH   3  13
ATOM     13  C   UNL     1      -4.579   3.719  26.059  0.00  0.00    +0.123 C 
BRANCH  13  15
ATOM      1  F   UNL     1      -3.830   5.239  23.789  0.00  0.00    -0.205 F 
ATOM     15  C   UNL     1      -3.146   4.034  25.716  0.00  0.00    +0.002 A 
ATOM     16  C   UNL     1      -2.848   4.788  24.581  0.00  0.00    +0.128 A 
ATOM     17  C   UNL     1      -2.117   3.569  26.535  0.00  0.00    +0.008 A 
ATOM     20  C   UNL     1      -1.521   5.078  24.266  0.00  0.00    +0.038 A 
ATOM     21  C   UNL     1      -0.790   3.859  26.220  0.00  0.00    +0.000 A 
ATOM     22  C   UNL     1      -0.492   4.613  25.086  0.00  0.00    +0.003 A 
ENDBRANCH  13  15
ENDBRANCH   3  13
ENDBRANCH  14   9
TORSDOF 5
ENDMDL
