MODEL 1
REMARK VINA RESULT:      -3.8      0.000      0.000
REMARK  Name = 56775489
REMARK  8 active torsions:
REMARK  status: ('A' for Active; 'I' for Inactive)
REMARK    1  A    between atoms: O_4  and  C_19
REMARK    2  A    between atoms: O_4  and  C_27
REMARK    3  A    between atoms: N_5  and  C_7
REMARK    4  A    between atoms: N_5  and  C_11
REMARK    5  A    between atoms: C_7  and  C_10
REMARK    6  A    between atoms: C_10  and  C_12
REMARK    7  A    between atoms: C_11  and  C_13
REMARK    8  A    between atoms: C_15  and  C_18
REMARK                            x       y       z     vdW  Elec       q    Type
REMARK                         _______ _______ _______ _____ _____    ______ ____
ROOT
ATOM      2  O   UNL     1      -3.385  -3.252  24.358  0.00  0.00    -0.376 OA
ATOM      7  C   UNL     1      -3.114  -1.138  24.241  0.00  0.00    +0.072 C 
ATOM      8  C   UNL     1      -2.289  -2.353  24.648  0.00  0.00    +0.184 C 
ATOM      9  C   UNL     1      -4.188  -2.154  23.868  0.00  0.00    +0.184 C 
ENDROOT
BRANCH   7   5
ATOM      5  N   UNL     1      -3.534  -0.432  25.443  0.00  0.00    -0.302 NA
ATOM     28  H   UNL     1      -2.830   0.179  25.856  0.00  0.00    +0.123 HD
BRANCH   5  11
ATOM     11  C   UNL     1      -4.750   0.331  25.169  0.00  0.00    +0.117 C 
BRANCH  11  13
ATOM     13  C   UNL     1      -4.530   1.812  25.332  0.00  0.00    -0.030 A 
ATOM     16  C   UNL     1      -3.238   2.314  25.479  0.00  0.00    +0.050 A 
ATOM     17  C   UNL     1      -5.621   2.681  25.337  0.00  0.00    +0.005 A 
ATOM     19  C   UNL     1      -3.035   3.686  25.630  0.00  0.00    +0.120 A 
ATOM     20  C   UNL     1      -5.419   4.053  25.489  0.00  0.00    +0.004 A 
ATOM     21  C   UNL     1      -4.126   4.555  25.636  0.00  0.00    +0.045 A 
BRANCH  19   4
ATOM      4  O   UNL     1      -1.774   4.176  25.774  0.00  0.00    -0.495 OA
ATOM     27  C   UNL     1      -1.446   5.351  25.033  0.00  0.00    +0.277 C 
ENDBRANCH  19   4
ENDBRANCH  11  13
ENDBRANCH   5  11
ENDBRANCH   7   5
BRANCH   7  10
ATOM     10  C   UNL     1      -2.570  -0.199  23.155  0.00  0.00    +0.085 C 
BRANCH  10  12
ATOM      3  O   UNL     1       0.557   1.183  24.188  0.00  0.00    -0.354 OA
ATOM      6  N   UNL     1      -0.832   1.159  24.180  0.00  0.00    -0.083 NA
ATOM     12  C   UNL     1      -1.155   0.127  23.394  0.00  0.00    +0.086 A 
ATOM     14  C   UNL     1      -0.023  -0.530  22.883  0.00  0.00    +0.076 A 
ATOM     15  C   UNL     1       1.027   0.173  23.413  0.00  0.00    +0.167 A 
BRANCH  15  18
ATOM      1  F   UNL     1       6.574  -0.231  23.077  0.00  0.00    -0.205 F 
ATOM     18  C   UNL     1       2.464   0.067  23.325  0.00  0.00    +0.020 A 
ATOM     22  C   UNL     1       3.103  -1.105  23.728  0.00  0.00    +0.014 A 
ATOM     23  C   UNL     1       3.213   1.139  22.838  0.00  0.00    +0.014 A 
ATOM     24  C   UNL     1       4.492  -1.206  23.644  0.00  0.00    +0.039 A 
ATOM     25  C   UNL     1       4.601   1.038  22.754  0.00  0.00    +0.039 A 
ATOM     26  C   UNL     1       5.240  -0.135  23.156  0.00  0.00    +0.123 A 
ENDBRANCH  15  18
ENDBRANCH  10  12
ENDBRANCH   7  10
TORSDOF 7
ENDMDL
MODEL 2
REMARK VINA RESULT:      -3.7      1.789      4.449
REMARK  Name = 56775489
REMARK  8 active torsions:
REMARK  status: ('A' for Active; 'I' for Inactive)
REMARK    1  A    between atoms: O_4  and  C_19
REMARK    2  A    between atoms: O_4  and  C_27
REMARK    3  A    between atoms: N_5  and  C_7
REMARK    4  A    between atoms: N_5  and  C_11
REMARK    5  A    between atoms: C_7  and  C_10
REMARK    6  A    between atoms: C_10  and  C_12
REMARK    7  A    between atoms: C_11  and  C_13
REMARK    8  A    between atoms: C_15  and  C_18
REMARK                            x       y       z     vdW  Elec       q    Type
REMARK                         _______ _______ _______ _____ _____    ______ ____
ROOT
ATOM      2  O   UNL     1      -6.234   3.906  26.067  0.00  0.00    -0.376 OA
ATOM      7  C   UNL     1      -4.771   2.771  25.005  0.00  0.00    +0.072 C 
ATOM      8  C   UNL     1      -6.285   2.944  24.988  0.00  0.00    +0.184 C 
ATOM      9  C   UNL     1      -4.789   3.860  26.073  0.00  0.00    +0.184 C 
ENDROOT
BRANCH   7   5
ATOM      5  N   UNL     1      -4.452   1.499  25.638  0.00  0.00    -0.302 NA
ATOM     28  H   UNL     1      -4.779   1.399  26.599  0.00  0.00    +0.123 HD
BRANCH   5  11
ATOM     11  C   UNL     1      -4.964   0.399  24.825  0.00  0.00    +0.117 C 
BRANCH  11  13
ATOM     13  C   UNL     1      -3.968  -0.724  24.710  0.00  0.00    -0.030 A 
ATOM     16  C   UNL     1      -2.712  -0.607  25.306  0.00  0.00    +0.050 A 
ATOM     17  C   UNL     1      -4.300  -1.881  24.006  0.00  0.00    +0.005 A 
ATOM     19  C   UNL     1      -1.789  -1.648  25.199  0.00  0.00    +0.120 A 
ATOM     20  C   UNL     1      -3.377  -2.921  23.898  0.00  0.00    +0.004 A 
ATOM     21  C   UNL     1      -2.122  -2.804  24.494  0.00  0.00    +0.045 A 
BRANCH  19   4
ATOM      4  O   UNL     1      -0.565  -1.533  25.780  0.00  0.00    -0.495 OA
ATOM     27  C   UNL     1       0.393  -2.549  25.483  0.00  0.00    +0.277 C 
ENDBRANCH  19   4
ENDBRANCH  11  13
ENDBRANCH   5  11
ENDBRANCH   7   5
BRANCH   7  10
ATOM     10  C   UNL     1      -3.979   3.011  23.712  0.00  0.00    +0.085 C 
BRANCH  10  12
ATOM      3  O   UNL     1      -0.610   2.525  24.794  0.00  0.00    -0.354 OA
ATOM      6  N   UNL     1      -1.887   3.048  24.953  0.00  0.00    -0.083 NA
ATOM     12  C   UNL     1      -2.566   2.635  23.878  0.00  0.00    +0.086 A 
ATOM     14  C   UNL     1      -1.776   1.857  23.014  0.00  0.00    +0.076 A 
ATOM     15  C   UNL     1      -0.556   1.818  23.636  0.00  0.00    +0.167 A 
BRANCH  15  18
ATOM      1  F   UNL     1       4.359  -0.534  22.473  0.00  0.00    -0.205 F 
ATOM     18  C   UNL     1       0.717   1.209  23.334  0.00  0.00    +0.020 A 
ATOM     22  C   UNL     1       0.773  -0.123  22.926  0.00  0.00    +0.014 A 
ATOM     23  C   UNL     1       1.891   1.953  23.451  0.00  0.00    +0.014 A 
ATOM     24  C   UNL     1       2.004  -0.713  22.635  0.00  0.00    +0.039 A 
ATOM     25  C   UNL     1       3.121   1.364  23.160  0.00  0.00    +0.039 A 
ATOM     26  C   UNL     1       3.177   0.031  22.751  0.00  0.00    +0.123 A 
ENDBRANCH  15  18
ENDBRANCH  10  12
ENDBRANCH   7  10
TORSDOF 7
ENDMDL
MODEL 3
REMARK VINA RESULT:      -2.9      3.264      7.123
REMARK  Name = 56775489
REMARK  8 active torsions:
REMARK  status: ('A' for Active; 'I' for Inactive)
REMARK    1  A    between atoms: O_4  and  C_19
REMARK    2  A    between atoms: O_4  and  C_27
REMARK    3  A    between atoms: N_5  and  C_7
REMARK    4  A    between atoms: N_5  and  C_11
REMARK    5  A    between atoms: C_7  and  C_10
REMARK    6  A    between atoms: C_10  and  C_12
REMARK    7  A    between atoms: C_11  and  C_13
REMARK    8  A    between atoms: C_15  and  C_18
REMARK                            x       y       z     vdW  Elec       q    Type
REMARK                         _______ _______ _______ _____ _____    ______ ____
ROOT
ATOM      2  O   UNL     1       3.224  -0.288  21.847  0.00  0.00    -0.376 OA
ATOM      7  C   UNL     1       1.968   0.694  23.267  0.00  0.00    +0.072 C 
ATOM      8  C   UNL     1       3.449   0.367  23.117  0.00  0.00    +0.184 C 
ATOM      9  C   UNL     1       1.824   0.071  21.882  0.00  0.00    +0.184 C 
ENDROOT
BRANCH   7   5
ATOM      5  N   UNL     1       1.386  -0.210  24.249  0.00  0.00    -0.302 NA
ATOM     28  H   UNL     1       0.990   0.242  25.073  0.00  0.00    +0.123 HD
BRANCH   5  11
ATOM     11  C   UNL     1       0.373  -1.048  23.612  0.00  0.00    +0.117 C 
BRANCH  11  13
ATOM     13  C   UNL     1      -0.793  -1.314  24.528  0.00  0.00    -0.030 A 
ATOM     16  C   UNL     1      -1.871  -2.077  24.082  0.00  0.00    +0.050 A 
ATOM     17  C   UNL     1      -0.793  -0.795  25.822  0.00  0.00    +0.005 A 
ATOM     19  C   UNL     1      -2.951  -2.323  24.930  0.00  0.00    +0.120 A 
ATOM     20  C   UNL     1      -1.873  -1.039  26.671  0.00  0.00    +0.004 A 
ATOM     21  C   UNL     1      -2.952  -1.802  26.225  0.00  0.00    +0.045 A 
BRANCH  19   4
ATOM      4  O   UNL     1      -4.002  -3.068  24.495  0.00  0.00    -0.495 OA
ATOM     27  C   UNL     1      -4.747  -2.556  23.390  0.00  0.00    +0.277 C 
ENDBRANCH  19   4
ENDBRANCH  11  13
ENDBRANCH   5  11
ENDBRANCH   7   5
BRANCH   7  10
ATOM     10  C   UNL     1       1.544   2.154  23.473  0.00  0.00    +0.085 C 
BRANCH  10  12
ATOM      3  O   UNL     1      -1.129   2.516  25.815  0.00  0.00    -0.354 OA
ATOM      6  N   UNL     1       0.220   2.512  25.482  0.00  0.00    -0.083 NA
ATOM     12  C   UNL     1       0.253   2.239  24.174  0.00  0.00    +0.086 A 
ATOM     14  C   UNL     1      -1.032   2.062  23.633  0.00  0.00    +0.076 A 
ATOM     15  C   UNL     1      -1.865   2.247  24.706  0.00  0.00    +0.167 A 
BRANCH  15  18
ATOM      1  F   UNL     1      -7.386   2.137  25.443  0.00  0.00    -0.205 F 
ATOM     18  C   UNL     1      -3.295   2.219  24.896  0.00  0.00    +0.020 A 
ATOM     22  C   UNL     1      -3.952   3.338  25.407  0.00  0.00    +0.014 A 
ATOM     23  C   UNL     1      -4.019   1.072  24.570  0.00  0.00    +0.014 A 
ATOM     24  C   UNL     1      -5.335   3.310  25.592  0.00  0.00    +0.039 A 
ATOM     25  C   UNL     1      -5.400   1.045  24.755  0.00  0.00    +0.039 A 
ATOM     26  C   UNL     1      -6.059   2.164  25.265  0.00  0.00    +0.123 A 
ENDBRANCH  15  18
ENDBRANCH  10  12
ENDBRANCH   7  10
TORSDOF 7
ENDMDL
MODEL 4
REMARK VINA RESULT:      -2.6      1.494      4.170
REMARK  Name = 56775489
REMARK  8 active torsions:
REMARK  status: ('A' for Active; 'I' for Inactive)
REMARK    1  A    between atoms: O_4  and  C_19
REMARK    2  A    between atoms: O_4  and  C_27
REMARK    3  A    between atoms: N_5  and  C_7
REMARK    4  A    between atoms: N_5  and  C_11
REMARK    5  A    between atoms: C_7  and  C_10
REMARK    6  A    between atoms: C_10  and  C_12
REMARK    7  A    between atoms: C_11  and  C_13
REMARK    8  A    between atoms: C_15  and  C_18
REMARK                            x       y       z     vdW  Elec       q    Type
REMARK                         _______ _______ _______ _____ _____    ______ ____
ROOT
ATOM      2  O   UNL     1      -1.077   4.274  25.874  0.00  0.00    -0.376 OA
ATOM      7  C   UNL     1      -1.971   2.651  24.814  0.00  0.00    +0.072 C 
ATOM      8  C   UNL     1      -2.257   4.129  25.050  0.00  0.00    +0.184 C 
ATOM      9  C   UNL     1      -0.697   2.903  25.614  0.00  0.00    +0.184 C 
ENDROOT
BRANCH   7   5
ATOM      5  N   UNL     1      -2.886   1.861  25.627  0.00  0.00    -0.302 NA
ATOM     28  H   UNL     1      -3.315   2.360  26.405  0.00  0.00    +0.123 HD
BRANCH   5  11
ATOM     11  C   UNL     1      -3.924   1.279  24.780  0.00  0.00    +0.117 C 
BRANCH  11  13
ATOM     13  C   UNL     1      -3.733  -0.204  24.598  0.00  0.00    -0.030 A 
ATOM     16  C   UNL     1      -2.552  -0.812  25.023  0.00  0.00    +0.050 A 
ATOM     17  C   UNL     1      -4.736  -0.968  24.003  0.00  0.00    +0.005 A 
ATOM     19  C   UNL     1      -2.375  -2.186  24.853  0.00  0.00    +0.120 A 
ATOM     20  C   UNL     1      -4.559  -2.341  23.832  0.00  0.00    +0.004 A 
ATOM     21  C   UNL     1      -3.378  -2.949  24.257  0.00  0.00    +0.045 A 
BRANCH  19   4
ATOM      4  O   UNL     1      -1.223  -2.779  25.268  0.00  0.00    -0.495 OA
ATOM     27  C   UNL     1      -0.090  -1.933  25.460  0.00  0.00    +0.277 C 
ENDBRANCH  19   4
ENDBRANCH  11  13
ENDBRANCH   5  11
ENDBRANCH   7   5
BRANCH   7  10
ATOM     10  C   UNL     1      -1.855   2.134  23.373  0.00  0.00    +0.085 C 
BRANCH  10  12
ATOM      3  O   UNL     1       0.658  -0.257  22.523  0.00  0.00    -0.354 OA
ATOM      6  N   UNL     1      -0.653   0.204  22.511  0.00  0.00    -0.083 NA
ATOM     12  C   UNL     1      -0.620   1.357  23.185  0.00  0.00    +0.086 A 
ATOM     14  C   UNL     1       0.672   1.672  23.642  0.00  0.00    +0.076 A 
ATOM     15  C   UNL     1       1.437   0.625  23.199  0.00  0.00    +0.167 A 
BRANCH  15  18
ATOM      1  F   UNL     1       6.835  -0.704  23.569  0.00  0.00    -0.205 F 
ATOM     18  C   UNL     1       2.835   0.280  23.293  0.00  0.00    +0.020 A 
ATOM     22  C   UNL     1       3.211  -1.010  23.666  0.00  0.00    +0.014 A 
ATOM     23  C   UNL     1       3.810   1.238  23.015  0.00  0.00    +0.014 A 
ATOM     24  C   UNL     1       4.563  -1.343  23.759  0.00  0.00    +0.039 A 
ATOM     25  C   UNL     1       5.160   0.906  23.107  0.00  0.00    +0.039 A 
ATOM     26  C   UNL     1       5.537  -0.386  23.479  0.00  0.00    +0.123 A 
ENDBRANCH  15  18
ENDBRANCH  10  12
ENDBRANCH   7  10
TORSDOF 7
ENDMDL
MODEL 5
REMARK VINA RESULT:      -2.6      3.323      6.827
REMARK  Name = 56775489
REMARK  8 active torsions:
REMARK  status: ('A' for Active; 'I' for Inactive)
REMARK    1  A    between atoms: O_4  and  C_19
REMARK    2  A    between atoms: O_4  and  C_27
REMARK    3  A    between atoms: N_5  and  C_7
REMARK    4  A    between atoms: N_5  and  C_11
REMARK    5  A    between atoms: C_7  and  C_10
REMARK    6  A    between atoms: C_10  and  C_12
REMARK    7  A    between atoms: C_11  and  C_13
REMARK    8  A    between atoms: C_15  and  C_18
REMARK                            x       y       z     vdW  Elec       q    Type
REMARK                         _______ _______ _______ _____ _____    ______ ____
ROOT
ATOM      2  O   UNL     1       3.352  -1.049  22.638  0.00  0.00    -0.376 OA
ATOM      7  C   UNL     1       1.829   0.374  23.101  0.00  0.00    +0.072 C 
ATOM      8  C   UNL     1       2.703  -0.620  23.858  0.00  0.00    +0.184 C 
ATOM      9  C   UNL     1       2.622  -0.062  21.873  0.00  0.00    +0.184 C 
ENDROOT
BRANCH   7   5
ATOM      5  N   UNL     1       0.481  -0.167  23.004  0.00  0.00    -0.302 NA
ATOM     28  H   UNL     1       0.302  -0.739  22.179  0.00  0.00    +0.123 HD
BRANCH   5  11
ATOM     11  C   UNL     1       0.165  -0.929  24.210  0.00  0.00    +0.117 C 
BRANCH  11  13
ATOM     13  C   UNL     1      -1.305  -1.240  24.307  0.00  0.00    -0.030 A 
ATOM     16  C   UNL     1      -2.242  -0.209  24.255  0.00  0.00    +0.050 A 
ATOM     17  C   UNL     1      -1.729  -2.561  24.450  0.00  0.00    +0.005 A 
ATOM     19  C   UNL     1      -3.604  -0.498  24.346  0.00  0.00    +0.120 A 
ATOM     20  C   UNL     1      -3.091  -2.851  24.541  0.00  0.00    +0.004 A 
ATOM     21  C   UNL     1      -4.028  -1.819  24.489  0.00  0.00    +0.045 A 
BRANCH  19   4
ATOM      4  O   UNL     1      -4.518   0.509  24.295  0.00  0.00    -0.495 OA
ATOM     27  C   UNL     1      -5.287   0.747  25.473  0.00  0.00    +0.277 C 
ENDBRANCH  19   4
ENDBRANCH  11  13
ENDBRANCH   5  11
ENDBRANCH   7   5
BRANCH   7  10
ATOM     10  C   UNL     1       1.852   1.852  23.514  0.00  0.00    +0.085 C 
BRANCH  10  12
ATOM      3  O   UNL     1      -0.715   2.464  25.920  0.00  0.00    -0.354 OA
ATOM      6  N   UNL     1       0.550   2.016  25.561  0.00  0.00    -0.083 NA
ATOM     12  C   UNL     1       0.627   2.218  24.243  0.00  0.00    +0.086 A 
ATOM     14  C   UNL     1      -0.547   2.786  23.720  0.00  0.00    +0.076 A 
ATOM     15  C   UNL     1      -1.359   2.921  24.816  0.00  0.00    +0.167 A 
BRANCH  15  18
ATOM      1  F   UNL     1      -6.510   4.872  25.653  0.00  0.00    -0.205 F 
ATOM     18  C   UNL     1      -2.693   3.425  25.033  0.00  0.00    +0.020 A 
ATOM     22  C   UNL     1      -3.569   3.565  23.956  0.00  0.00    +0.014 A 
ATOM     23  C   UNL     1      -3.106   3.774  26.319  0.00  0.00    +0.014 A 
ATOM     24  C   UNL     1      -4.859   4.054  24.166  0.00  0.00    +0.039 A 
ATOM     25  C   UNL     1      -4.395   4.262  26.528  0.00  0.00    +0.039 A 
ATOM     26  C   UNL     1      -5.272   4.401  25.451  0.00  0.00    +0.123 A 
ENDBRANCH  15  18
ENDBRANCH  10  12
ENDBRANCH   7  10
TORSDOF 7
ENDMDL
MODEL 6
REMARK VINA RESULT:      -2.0      3.272      6.476
REMARK  Name = 56775489
REMARK  8 active torsions:
REMARK  status: ('A' for Active; 'I' for Inactive)
REMARK    1  A    between atoms: O_4  and  C_19
REMARK    2  A    between atoms: O_4  and  C_27
REMARK    3  A    between atoms: N_5  and  C_7
REMARK    4  A    between atoms: N_5  and  C_11
REMARK    5  A    between atoms: C_7  and  C_10
REMARK    6  A    between atoms: C_10  and  C_12
REMARK    7  A    between atoms: C_11  and  C_13
REMARK    8  A    between atoms: C_15  and  C_18
REMARK                            x       y       z     vdW  Elec       q    Type
REMARK                         _______ _______ _______ _____ _____    ______ ____
ROOT
ATOM      2  O   UNL     1       4.775   0.026  22.727  0.00  0.00    -0.376 OA
ATOM      7  C   UNL     1       2.659   0.201  22.949  0.00  0.00    +0.072 C 
ATOM      8  C   UNL     1       3.763   0.883  22.149  0.00  0.00    +0.184 C 
ATOM      9  C   UNL     1       3.767  -0.724  23.442  0.00  0.00    +0.184 C 
ENDROOT
BRANCH   7   5
ATOM      5  N   UNL     1       2.261   1.078  24.041  0.00  0.00    -0.302 NA
ATOM     28  H   UNL     1       3.028   1.448  24.602  0.00  0.00    +0.123 HD
BRANCH   5  11
ATOM     11  C   UNL     1       1.452   2.178  23.523  0.00  0.00    +0.117 C 
BRANCH  11  13
ATOM     13  C   UNL     1       0.433   2.646  24.527  0.00  0.00    -0.030 A 
ATOM     16  C   UNL     1      -0.462   3.662  24.192  0.00  0.00    +0.050 A 
ATOM     17  C   UNL     1       0.384   2.064  25.794  0.00  0.00    +0.005 A 
ATOM     19  C   UNL     1      -1.406   4.096  25.123  0.00  0.00    +0.120 A 
ATOM     20  C   UNL     1      -0.559   2.498  26.725  0.00  0.00    +0.004 A 
ATOM     21  C   UNL     1      -1.454   3.514  26.390  0.00  0.00    +0.045 A 
BRANCH  19   4
ATOM      4  O   UNL     1      -2.279   5.087  24.795  0.00  0.00    -0.495 OA
ATOM     27  C   UNL     1      -3.504   5.140  25.525  0.00  0.00    +0.277 C 
ENDBRANCH  19   4
ENDBRANCH  11  13
ENDBRANCH   5  11
ENDBRANCH   7   5
BRANCH   7  10
ATOM     10  C   UNL     1       1.463  -0.405  22.202  0.00  0.00    +0.085 C 
BRANCH  10  12
ATOM      3  O   UNL     1      -1.158  -0.733  24.606  0.00  0.00    -0.354 OA
ATOM      6  N   UNL     1       0.094  -1.063  24.101  0.00  0.00    -0.083 NA
ATOM     12  C   UNL     1       0.233  -0.312  23.005  0.00  0.00    +0.086 A 
ATOM     14  C   UNL     1      -0.887   0.504  22.771  0.00  0.00    +0.076 A 
ATOM     15  C   UNL     1      -1.732   0.201  23.806  0.00  0.00    +0.167 A 
BRANCH  15  18
ATOM      1  F   UNL     1      -6.796   1.928  25.359  0.00  0.00    -0.205 F 
ATOM     18  C   UNL     1      -3.044   0.648  24.208  0.00  0.00    +0.020 A 
ATOM     22  C   UNL     1      -3.539   1.865  23.739  0.00  0.00    +0.014 A 
ATOM     23  C   UNL     1      -3.815  -0.136  25.065  0.00  0.00    +0.014 A 
ATOM     24  C   UNL     1      -4.808   2.297  24.128  0.00  0.00    +0.039 A 
ATOM     25  C   UNL     1      -5.083   0.296  25.454  0.00  0.00    +0.039 A 
ATOM     26  C   UNL     1      -5.579   1.513  24.985  0.00  0.00    +0.123 A 
ENDBRANCH  15  18
ENDBRANCH  10  12
ENDBRANCH   7  10
TORSDOF 7
ENDMDL
MODEL 7
REMARK VINA RESULT:      -1.9      1.411      2.399
REMARK  Name = 56775489
REMARK  8 active torsions:
REMARK  status: ('A' for Active; 'I' for Inactive)
REMARK    1  A    between atoms: O_4  and  C_19
REMARK    2  A    between atoms: O_4  and  C_27
REMARK    3  A    between atoms: N_5  and  C_7
REMARK    4  A    between atoms: N_5  and  C_11
REMARK    5  A    between atoms: C_7  and  C_10
REMARK    6  A    between atoms: C_10  and  C_12
REMARK    7  A    between atoms: C_11  and  C_13
REMARK    8  A    between atoms: C_15  and  C_18
REMARK                            x       y       z     vdW  Elec       q    Type
REMARK                         _______ _______ _______ _____ _____    ______ ____
ROOT
ATOM      2  O   UNL     1      -2.814  -2.875  24.576  0.00  0.00    -0.376 OA
ATOM      7  C   UNL     1      -2.280  -0.812  24.453  0.00  0.00    +0.072 C 
ATOM      8  C   UNL     1      -1.564  -2.149  24.609  0.00  0.00    +0.184 C 
ATOM      9  C   UNL     1      -3.547  -1.653  24.333  0.00  0.00    +0.184 C 
ENDROOT
BRANCH   7   5
ATOM      5  N   UNL     1      -2.289  -0.133  25.741  0.00  0.00    -0.302 NA
ATOM     28  H   UNL     1      -2.285  -0.747  26.555  0.00  0.00    +0.123 HD
BRANCH   5  11
ATOM     11  C   UNL     1      -1.165   0.797  25.819  0.00  0.00    +0.117 C 
BRANCH  11  13
ATOM     13  C   UNL     1      -1.598   2.221  25.592  0.00  0.00    -0.030 A 
ATOM     16  C   UNL     1      -2.956   2.538  25.543  0.00  0.00    +0.050 A 
ATOM     17  C   UNL     1      -0.642   3.223  25.431  0.00  0.00    +0.005 A 
ATOM     19  C   UNL     1      -3.357   3.857  25.332  0.00  0.00    +0.120 A 
ATOM     20  C   UNL     1      -1.042   4.542  25.220  0.00  0.00    +0.004 A 
ATOM     21  C   UNL     1      -2.400   4.859  25.170  0.00  0.00    +0.045 A 
BRANCH  19   4
ATOM      4  O   UNL     1      -4.681   4.166  25.284  0.00  0.00    -0.495 OA
ATOM     27  C   UNL     1      -5.603   3.120  25.589  0.00  0.00    +0.277 C 
ENDBRANCH  19   4
ENDBRANCH  11  13
ENDBRANCH   5  11
ENDBRANCH   7   5
BRANCH   7  10
ATOM     10  C   UNL     1      -1.888   0.113  23.293  0.00  0.00    +0.085 C 
BRANCH  10  12
ATOM      3  O   UNL     1       1.288  -0.367  21.732  0.00  0.00    -0.354 OA
ATOM      6  N   UNL     1      -0.099  -0.296  21.697  0.00  0.00    -0.083 NA
ATOM     12  C   UNL     1      -0.463  -0.032  22.956  0.00  0.00    +0.086 A 
ATOM     14  C   UNL     1       0.640   0.073  23.821  0.00  0.00    +0.076 A 
ATOM     15  C   UNL     1       1.717  -0.146  23.001  0.00  0.00    +0.167 A 
BRANCH  15  18
ATOM      1  F   UNL     1       7.236  -0.303  23.748  0.00  0.00    -0.205 F 
ATOM     18  C   UNL     1       3.146  -0.186  23.196  0.00  0.00    +0.020 A 
ATOM     22  C   UNL     1       3.927   0.917  22.853  0.00  0.00    +0.014 A 
ATOM     23  C   UNL     1       3.746  -1.329  23.724  0.00  0.00    +0.014 A 
ATOM     24  C   UNL     1       5.310   0.878  23.040  0.00  0.00    +0.039 A 
ATOM     25  C   UNL     1       5.127  -1.368  23.911  0.00  0.00    +0.039 A 
ATOM     26  C   UNL     1       5.909  -0.264  23.569  0.00  0.00    +0.123 A 
ENDBRANCH  15  18
ENDBRANCH  10  12
ENDBRANCH   7  10
TORSDOF 7
ENDMDL
MODEL 8
REMARK VINA RESULT:      -0.7      3.618      6.499
REMARK  Name = 56775489
REMARK  8 active torsions:
REMARK  status: ('A' for Active; 'I' for Inactive)
REMARK    1  A    between atoms: O_4  and  C_19
REMARK    2  A    between atoms: O_4  and  C_27
REMARK    3  A    between atoms: N_5  and  C_7
REMARK    4  A    between atoms: N_5  and  C_11
REMARK    5  A    between atoms: C_7  and  C_10
REMARK    6  A    between atoms: C_10  and  C_12
REMARK    7  A    between atoms: C_11  and  C_13
REMARK    8  A    between atoms: C_15  and  C_18
REMARK                            x       y       z     vdW  Elec       q    Type
REMARK                         _______ _______ _______ _____ _____    ______ ____
ROOT
ATOM      2  O   UNL     1       0.613  -2.527  26.126  0.00  0.00    -0.376 OA
ATOM      7  C   UNL     1      -0.996  -2.352  24.734  0.00  0.00    +0.072 C 
ATOM      8  C   UNL     1       0.103  -3.358  25.057  0.00  0.00    +0.184 C 
ATOM      9  C   UNL     1      -0.461  -1.578  25.934  0.00  0.00    +0.184 C 
ENDROOT
BRANCH   7   5
ATOM      5  N   UNL     1      -0.635  -1.638  23.517  0.00  0.00    -0.302 NA
ATOM     28  H   UNL     1      -1.421  -1.333  22.944  0.00  0.00    +0.123 HD
BRANCH   5  11
ATOM     11  C   UNL     1       0.209  -0.492  23.847  0.00  0.00    +0.117 C 
BRANCH  11  13
ATOM     13  C   UNL     1      -0.538   0.810  23.717  0.00  0.00    -0.030 A 
ATOM     16  C   UNL     1      -0.238   1.874  24.567  0.00  0.00    +0.050 A 
ATOM     17  C   UNL     1      -1.530   0.950  22.747  0.00  0.00    +0.005 A 
ATOM     19  C   UNL     1      -0.930   3.079  24.447  0.00  0.00    +0.120 A 
ATOM     20  C   UNL     1      -2.223   2.154  22.627  0.00  0.00    +0.004 A 
ATOM     21  C   UNL     1      -1.923   3.219  23.477  0.00  0.00    +0.045 A 
BRANCH  19   4
ATOM      4  O   UNL     1      -0.637   4.117  25.276  0.00  0.00    -0.495 OA
ATOM     27  C   UNL     1      -1.268   5.367  24.999  0.00  0.00    +0.277 C 
ENDBRANCH  19   4
ENDBRANCH  11  13
ENDBRANCH   5  11
ENDBRANCH   7   5
BRANCH   7  10
ATOM     10  C   UNL     1      -2.459  -2.818  24.742  0.00  0.00    +0.085 C 
BRANCH  10  12
ATOM      3  O   UNL     1      -5.111  -0.525  24.064  0.00  0.00    -0.354 OA
ATOM      6  N   UNL     1      -4.482  -1.754  23.912  0.00  0.00    -0.083 NA
ATOM     12  C   UNL     1      -3.381  -1.674  24.665  0.00  0.00    +0.086 A 
ATOM     14  C   UNL     1      -3.263  -0.430  25.309  0.00  0.00    +0.076 A 
ATOM     15  C   UNL     1      -4.377   0.255  24.897  0.00  0.00    +0.167 A 
BRANCH  15  18
ATOM      1  F   UNL     1      -6.431   5.339  25.887  0.00  0.00    -0.205 F 
ATOM     18  C   UNL     1      -4.909   1.571  25.155  0.00  0.00    +0.020 A 
ATOM     22  C   UNL     1      -6.269   1.822  24.971  0.00  0.00    +0.014 A 
ATOM     23  C   UNL     1      -4.064   2.594  25.585  0.00  0.00    +0.014 A 
ATOM     24  C   UNL     1      -6.784   3.095  25.218  0.00  0.00    +0.039 A 
ATOM     25  C   UNL     1      -4.578   3.866  25.833  0.00  0.00    +0.039 A 
ATOM     26  C   UNL     1      -5.938   4.116  25.650  0.00  0.00    +0.123 A 
ENDBRANCH  15  18
ENDBRANCH  10  12
ENDBRANCH   7  10
TORSDOF 7
ENDMDL
MODEL 9
REMARK VINA RESULT:      -0.6      1.594      3.607
REMARK  Name = 56775489
REMARK  8 active torsions:
REMARK  status: ('A' for Active; 'I' for Inactive)
REMARK    1  A    between atoms: O_4  and  C_19
REMARK    2  A    between atoms: O_4  and  C_27
REMARK    3  A    between atoms: N_5  and  C_7
REMARK    4  A    between atoms: N_5  and  C_11
REMARK    5  A    between atoms: C_7  and  C_10
REMARK    6  A    between atoms: C_10  and  C_12
REMARK    7  A    between atoms: C_11  and  C_13
REMARK    8  A    between atoms: C_15  and  C_18
REMARK                            x       y       z     vdW  Elec       q    Type
REMARK                         _______ _______ _______ _____ _____    ______ ____
ROOT
ATOM      2  O   UNL     1      -0.297   3.229  26.500  0.00  0.00    -0.376 OA
ATOM      7  C   UNL     1      -1.532   3.230  24.759  0.00  0.00    +0.072 C 
ATOM      8  C   UNL     1      -0.176   3.791  25.173  0.00  0.00    +0.184 C 
ATOM      9  C   UNL     1      -1.544   2.590  26.143  0.00  0.00    +0.184 C 
ENDROOT
BRANCH   7   5
ATOM      5  N   UNL     1      -2.502   4.316  24.737  0.00  0.00    -0.302 NA
ATOM     28  H   UNL     1      -2.142   5.212  24.408  0.00  0.00    +0.123 HD
BRANCH   5  11
ATOM     11  C   UNL     1      -3.662   3.927  23.938  0.00  0.00    +0.117 C 
BRANCH  11  13
ATOM     13  C   UNL     1      -4.413   2.781  24.562  0.00  0.00    -0.030 A 
ATOM     16  C   UNL     1      -4.126   1.470  24.182  0.00  0.00    +0.050 A 
ATOM     17  C   UNL     1      -5.397   3.031  25.519  0.00  0.00    +0.005 A 
ATOM     19  C   UNL     1      -4.822   0.408  24.760  0.00  0.00    +0.120 A 
ATOM     20  C   UNL     1      -6.093   1.969  26.096  0.00  0.00    +0.004 A 
ATOM     21  C   UNL     1      -5.807   0.658  25.716  0.00  0.00    +0.045 A 
BRANCH  19   4
ATOM      4  O   UNL     1      -4.542  -0.871  24.389  0.00  0.00    -0.495 OA
ATOM     27  C   UNL     1      -3.666  -1.614  25.235  0.00  0.00    +0.277 C 
ENDBRANCH  19   4
ENDBRANCH  11  13
ENDBRANCH   5  11
ENDBRANCH   7   5
BRANCH   7  10
ATOM     10  C   UNL     1      -1.618   2.327  23.521  0.00  0.00    +0.085 C 
BRANCH  10  12
ATOM      3  O   UNL     1       0.685  -0.380  23.164  0.00  0.00    -0.354 OA
ATOM      6  N   UNL     1      -0.603   0.140  23.199  0.00  0.00    -0.083 NA
ATOM     12  C   UNL     1      -0.442   1.448  23.422  0.00  0.00    +0.086 A 
ATOM     14  C   UNL     1       0.912   1.808  23.536  0.00  0.00    +0.076 A 
ATOM     15  C   UNL     1       1.578   0.622  23.365  0.00  0.00    +0.167 A 
BRANCH  15  18
ATOM      1  F   UNL     1       6.944  -0.877  23.326  0.00  0.00    -0.205 F 
ATOM     18  C   UNL     1       2.968   0.234  23.354  0.00  0.00    +0.020 A 
ATOM     22  C   UNL     1       3.335  -1.055  23.743  0.00  0.00    +0.014 A 
ATOM     23  C   UNL     1       3.944   1.147  22.956  0.00  0.00    +0.014 A 
ATOM     24  C   UNL     1       4.679  -1.430  23.734  0.00  0.00    +0.039 A 
ATOM     25  C   UNL     1       5.287   0.772  22.946  0.00  0.00    +0.039 A 
ATOM     26  C   UNL     1       5.654  -0.517  23.334  0.00  0.00    +0.123 A 
ENDBRANCH  15  18
ENDBRANCH  10  12
ENDBRANCH   7  10
TORSDOF 7
ENDMDL
MODEL 10
REMARK VINA RESULT:      -0.3      1.779      4.781
REMARK  Name = 56775489
REMARK  8 active torsions:
REMARK  status: ('A' for Active; 'I' for Inactive)
REMARK    1  A    between atoms: O_4  and  C_19
REMARK    2  A    between atoms: O_4  and  C_27
REMARK    3  A    between atoms: N_5  and  C_7
REMARK    4  A    between atoms: N_5  and  C_11
REMARK    5  A    between atoms: C_7  and  C_10
REMARK    6  A    between atoms: C_10  and  C_12
REMARK    7  A    between atoms: C_11  and  C_13
REMARK    8  A    between atoms: C_15  and  C_18
REMARK                            x       y       z     vdW  Elec       q    Type
REMARK                         _______ _______ _______ _____ _____    ______ ____
ROOT
ATOM      2  O   UNL     1      -6.343   3.375  26.375  0.00  0.00    -0.376 OA
ATOM      7  C   UNL     1      -4.576   3.050  25.223  0.00  0.00    +0.072 C 
ATOM      8  C   UNL     1      -5.895   3.798  25.067  0.00  0.00    +0.184 C 
ATOM      9  C   UNL     1      -5.077   2.723  26.625  0.00  0.00    +0.184 C 
ENDROOT
BRANCH   7   5
ATOM      5  N   UNL     1      -4.626   1.840  24.414  0.00  0.00    -0.302 NA
ATOM     28  H   UNL     1      -3.811   1.680  23.822  0.00  0.00    +0.123 HD
BRANCH   5  11
ATOM     11  C   UNL     1      -4.846   0.679  25.273  0.00  0.00    +0.117 C 
BRANCH  11  13
ATOM     13  C   UNL     1      -3.721  -0.316  25.171  0.00  0.00    -0.030 A 
ATOM     16  C   UNL     1      -3.915  -1.524  24.500  0.00  0.00    +0.050 A 
ATOM     17  C   UNL     1      -2.483  -0.031  25.748  0.00  0.00    +0.005 A 
ATOM     19  C   UNL     1      -2.872  -2.445  24.406  0.00  0.00    +0.120 A 
ATOM     20  C   UNL     1      -1.441  -0.952  25.655  0.00  0.00    +0.004 A 
ATOM     21  C   UNL     1      -1.635  -2.160  24.984  0.00  0.00    +0.045 A 
BRANCH  19   4
ATOM      4  O   UNL     1      -3.062  -3.623  23.751  0.00  0.00    -0.495 OA
ATOM     27  C   UNL     1      -4.393  -3.925  23.332  0.00  0.00    +0.277 C 
ENDBRANCH  19   4
ENDBRANCH  11  13
ENDBRANCH   5  11
ENDBRANCH   7   5
BRANCH   7  10
ATOM     10  C   UNL     1      -3.258   3.821  25.065  0.00  0.00    +0.085 C 
BRANCH  10  12
ATOM      3  O   UNL     1      -1.429   1.864  22.702  0.00  0.00    -0.354 OA
ATOM      6  N   UNL     1      -2.567   2.549  23.111  0.00  0.00    -0.083 NA
ATOM     12  C   UNL     1      -2.266   3.029  24.320  0.00  0.00    +0.086 A 
ATOM     14  C   UNL     1      -0.965   2.684  24.724  0.00  0.00    +0.076 A 
ATOM     15  C   UNL     1      -0.482   1.952  23.670  0.00  0.00    +0.167 A 
BRANCH  15  18
ATOM      1  F   UNL     1       4.338  -0.617  22.570  0.00  0.00    -0.205 F 
ATOM     18  C   UNL     1       0.767   1.286  23.386  0.00  0.00    +0.020 A 
ATOM     22  C   UNL     1       1.967   1.990  23.474  0.00  0.00    +0.014 A 
ATOM     23  C   UNL     1       0.772  -0.060  23.023  0.00  0.00    +0.014 A 
ATOM     24  C   UNL     1       3.175   1.347  23.198  0.00  0.00    +0.039 A 
ATOM     25  C   UNL     1       1.978  -0.703  22.748  0.00  0.00    +0.039 A 
ATOM     26  C   UNL     1       3.180   0.001  22.836  0.00  0.00    +0.123 A 
ENDBRANCH  15  18
ENDBRANCH  10  12
ENDBRANCH   7  10
TORSDOF 7
ENDMDL
