MODEL 1
REMARK VINA RESULT:       0.4      0.000      0.000
REMARK  Name = 45784384
REMARK  11 active torsions:
REMARK  status: ('A' for Active; 'I' for Inactive)
REMARK    1  A    between atoms: O_1  and  C_11
REMARK    2  A    between atoms: N_4  and  C_15
REMARK    3  A    between atoms: N_5  and  C_25
REMARK    4  A    between atoms: N_5  and  C_26
REMARK    5  A    between atoms: C_8  and  C_18
REMARK    6  A    between atoms: C_10  and  C_20
REMARK    7  A    between atoms: C_13  and  C_19
REMARK    8  A    between atoms: C_19  and  C_21
REMARK    9  A    between atoms: C_19  and  C_22
REMARK   10  A    between atoms: C_23  and  C_24
REMARK   11  A    between atoms: C_25  and  C_27
REMARK                            x       y       z     vdW  Elec       q    Type
REMARK                         _______ _______ _______ _____ _____    ______ ____
ROOT
ATOM      8  C   UNL     1      -2.872  -1.017  24.860  0.00  0.00    -0.027 C 
ATOM      9  C   UNL     1      -2.406   0.156  23.936  0.00  0.00    +0.028 C 
ATOM     10  C   UNL     1      -0.849   0.353  24.025  0.00  0.00    +0.012 C 
ATOM     11  C   UNL     1      -3.255   1.437  24.180  0.00  0.00    +0.122 C 
ATOM     12  C   UNL     1      -4.388  -1.257  24.663  0.00  0.00    +0.007 C 
ATOM     13  C   UNL     1      -4.775   1.169  24.084  0.00  0.00    +0.029 C 
ATOM     14  C   UNL     1      -2.134  -2.310  24.443  0.00  0.00    +0.009 C 
ATOM     15  C   UNL     1      -0.119  -0.975  23.677  0.00  0.00    +0.076 C 
ATOM     16  C   UNL     1      -5.226  -0.016  24.939  0.00  0.00    +0.007 C 
ATOM     17  C   UNL     1      -0.619  -2.173  24.483  0.00  0.00    +0.023 C 
ATOM     18  C   UNL     1      -2.603  -0.738  26.359  0.00  0.00    +0.011 C 
ATOM     20  C   UNL     1      -0.317   1.476  23.118  0.00  0.00    +0.010 C 
ENDROOT
BRANCH  15   4
ATOM      3  O   UNL     1       1.807  -0.182  21.701  0.00  0.00    -0.268 OA
ATOM      4  N   UNL     1       1.313  -0.864  23.860  0.00  0.00    -0.307 N 
ATOM     23  C   UNL     1       2.163  -0.471  22.840  0.00  0.00    +0.264 C 
ATOM     36  H   UNL     1       1.707  -1.140  24.755  0.00  0.00    +0.149 HD
BRANCH  23  24
ATOM      6  N   UNL     1       4.124  -1.542  23.745  0.00  0.00    -0.247 NA
ATOM      7  N   UNL     1       5.685   0.734  23.244  0.00  0.00    -0.259 NA
ATOM     24  C   UNL     1       3.607  -0.432  23.183  0.00  0.00    +0.143 A 
ATOM     28  C   UNL     1       4.374   0.686  22.936  0.00  0.00    +0.143 A 
ATOM     31  C   UNL     1       5.436  -1.495  24.053  0.00  0.00    +0.131 A 
ATOM     32  C   UNL     1       6.203  -0.376  23.808  0.00  0.00    +0.130 A 
ENDBRANCH  23  24
ENDBRANCH  15   4
BRANCH  11   1
ATOM      1  O   UNL     1      -2.948   2.410  23.179  0.00  0.00    -0.391 OA
ATOM     37  H   UNL     1      -2.521   3.167  23.616  0.00  0.00    +0.210 HD
ENDBRANCH  11   1
BRANCH  13  19
ATOM     19  C   UNL     1      -5.596   2.410  24.456  0.00  0.00    +0.078 C 
ATOM     21  C   UNL     1      -5.159   3.590  23.587  0.00  0.00    +0.017 C 
BRANCH  19  22
ATOM      2  O   UNL     1      -6.073   2.097  26.781  0.00  0.00    -0.275 OA
ATOM      5  N   UNL     1      -4.516   3.738  26.291  0.00  0.00    -0.300 N 
ATOM     22  C   UNL     1      -5.416   2.725  25.942  0.00  0.00    +0.219 C 
ATOM     26  C   UNL     1      -4.336   4.077  27.698  0.00  0.00    +0.132 C 
BRANCH   5  25
ATOM     25  C   UNL     1      -3.677   4.500  25.368  0.00  0.00    +0.142 C 
BRANCH  25  27
ATOM     27  C   UNL     1      -2.226   4.134  25.494  0.00  0.00    -0.030 A 
ATOM     29  C   UNL     1      -1.262   4.851  24.787  0.00  0.00    +0.005 A 
ATOM     30  C   UNL     1      -1.844   3.075  26.317  0.00  0.00    +0.005 A 
ATOM     33  C   UNL     1       0.086   4.510  24.905  0.00  0.00    +0.000 A 
ATOM     34  C   UNL     1      -0.497   2.733  26.434  0.00  0.00    +0.000 A 
ATOM     35  C   UNL     1       0.468   3.451  25.728  0.00  0.00    +0.000 A 
ENDBRANCH  25  27
ENDBRANCH   5  25
ENDBRANCH  19  22
ENDBRANCH  13  19
TORSDOF 7
ENDMDL
MODEL 2
REMARK VINA RESULT:       1.7      0.990      1.537
REMARK  Name = 45784384
REMARK  11 active torsions:
REMARK  status: ('A' for Active; 'I' for Inactive)
REMARK    1  A    between atoms: O_1  and  C_11
REMARK    2  A    between atoms: N_4  and  C_15
REMARK    3  A    between atoms: N_5  and  C_25
REMARK    4  A    between atoms: N_5  and  C_26
REMARK    5  A    between atoms: C_8  and  C_18
REMARK    6  A    between atoms: C_10  and  C_20
REMARK    7  A    between atoms: C_13  and  C_19
REMARK    8  A    between atoms: C_19  and  C_21
REMARK    9  A    between atoms: C_19  and  C_22
REMARK   10  A    between atoms: C_23  and  C_24
REMARK   11  A    between atoms: C_25  and  C_27
REMARK                            x       y       z     vdW  Elec       q    Type
REMARK                         _______ _______ _______ _____ _____    ______ ____
ROOT
ATOM      8  C   UNL     1      -2.516  -1.217  25.072  0.00  0.00    -0.027 C 
ATOM      9  C   UNL     1      -2.079  -0.029  24.153  0.00  0.00    +0.028 C 
ATOM     10  C   UNL     1      -0.521   0.169  24.199  0.00  0.00    +0.012 C 
ATOM     11  C   UNL     1      -2.923   1.246  24.441  0.00  0.00    +0.122 C 
ATOM     12  C   UNL     1      -4.037  -1.457  24.916  0.00  0.00    +0.007 C 
ATOM     13  C   UNL     1      -4.445   0.976  24.386  0.00  0.00    +0.029 C 
ATOM     14  C   UNL     1      -1.789  -2.502  24.614  0.00  0.00    +0.009 C 
ATOM     15  C   UNL     1       0.201  -1.152  23.810  0.00  0.00    +0.076 C 
ATOM     16  C   UNL     1      -4.868  -0.222  25.235  0.00  0.00    +0.007 C 
ATOM     17  C   UNL     1      -0.274  -2.363  24.612  0.00  0.00    +0.023 C 
ATOM     18  C   UNL     1      -2.204  -0.960  26.568  0.00  0.00    +0.011 C 
ATOM     20  C   UNL     1      -0.017   1.307  23.295  0.00  0.00    +0.010 C 
ENDROOT
BRANCH  15   4
ATOM      3  O   UNL     1       2.041  -0.101  21.874  0.00  0.00    -0.268 OA
ATOM      4  N   UNL     1       1.638  -1.040  23.954  0.00  0.00    -0.307 N 
ATOM     23  C   UNL     1       2.443  -0.516  22.958  0.00  0.00    +0.264 C 
ATOM     36  H   UNL     1       2.068  -1.414  24.795  0.00  0.00    +0.149 HD
BRANCH  23  24
ATOM      6  N   UNL     1       4.424  -1.616  23.783  0.00  0.00    -0.247 NA
ATOM      7  N   UNL     1       5.990   0.649  23.249  0.00  0.00    -0.259 NA
ATOM     24  C   UNL     1       3.899  -0.496  23.250  0.00  0.00    +0.143 A 
ATOM     28  C   UNL     1       4.669   0.617  22.987  0.00  0.00    +0.143 A 
ATOM     31  C   UNL     1       5.746  -1.585  24.045  0.00  0.00    +0.131 A 
ATOM     32  C   UNL     1       6.515  -0.472  23.784  0.00  0.00    +0.130 A 
ENDBRANCH  23  24
ENDBRANCH  15   4
BRANCH  11   1
ATOM      1  O   UNL     1      -2.647   2.235  23.447  0.00  0.00    -0.391 OA
ATOM     37  H   UNL     1      -3.439   2.332  22.890  0.00  0.00    +0.210 HD
ENDBRANCH  11   1
BRANCH  13  19
ATOM     19  C   UNL     1      -5.257   2.210  24.800  0.00  0.00    +0.078 C 
ATOM     21  C   UNL     1      -6.750   1.884  24.734  0.00  0.00    +0.017 C 
BRANCH  19  22
ATOM      2  O   UNL     1      -5.323   3.395  22.722  0.00  0.00    -0.275 OA
ATOM      5  N   UNL     1      -4.114   4.410  24.414  0.00  0.00    -0.300 N 
ATOM     22  C   UNL     1      -4.911   3.388  23.887  0.00  0.00    +0.219 C 
ATOM     26  C   UNL     1      -3.748   5.537  23.563  0.00  0.00    +0.132 C 
BRANCH   5  25
ATOM     25  C   UNL     1      -3.617   4.495  25.786  0.00  0.00    +0.142 C 
BRANCH  25  27
ATOM     27  C   UNL     1      -2.200   4.014  25.901  0.00  0.00    -0.030 A 
ATOM     29  C   UNL     1      -1.883   2.986  26.789  0.00  0.00    +0.005 A 
ATOM     30  C   UNL     1      -1.201   4.594  25.120  0.00  0.00    +0.005 A 
ATOM     33  C   UNL     1      -0.566   2.539  26.895  0.00  0.00    +0.000 A 
ATOM     34  C   UNL     1       0.116   4.148  25.227  0.00  0.00    +0.000 A 
ATOM     35  C   UNL     1       0.433   3.119  26.115  0.00  0.00    +0.000 A 
ENDBRANCH  25  27
ENDBRANCH   5  25
ENDBRANCH  19  22
ENDBRANCH  13  19
TORSDOF 7
ENDMDL
