MODEL 1
REMARK VINA RESULT:      -2.8      0.000      0.000
REMARK  Name = 51137865
REMARK  4 active torsions:
REMARK  status: ('A' for Active; 'I' for Inactive)
REMARK    1  A    between atoms: N_4  and  C_13
REMARK    2  A    between atoms: C_8  and  C_12
REMARK    3  A    between atoms: C_13  and  C_14
REMARK    4  A    between atoms: C_17  and  C_25
REMARK                            x       y       z     vdW  Elec       q    Type
REMARK                         _______ _______ _______ _____ _____    ______ ____
ROOT
ATOM      5  N   UNL     1      10.361  -6.600  32.869  0.00  0.00    -0.342 N 
ATOM      6  N   UNL     1      10.296  -8.694  32.125  0.00  0.00    -0.231 NA
ATOM     12  C   UNL     1      11.076  -7.713  32.522  0.00  0.00    +0.113 A 
ATOM     15  C   UNL     1       9.032  -6.881  32.682  0.00  0.00    +0.067 A 
ATOM     16  C   UNL     1       9.017  -8.193  32.218  0.00  0.00    +0.101 A 
ATOM     17  C   UNL     1       7.787  -8.802  31.922  0.00  0.00    +0.064 A 
ATOM     18  C   UNL     1       7.876  -6.123  32.873  0.00  0.00    +0.028 A 
ATOM     21  C   UNL     1       6.613  -8.060  32.106  0.00  0.00    +0.015 A 
ATOM     22  C   UNL     1       6.659  -6.744  32.573  0.00  0.00    +0.003 A 
ATOM     27  H   UNL     1      10.741  -5.725  33.203  0.00  0.00    +0.167 HD
ENDROOT
BRANCH  17  25
ATOM      3  O   UNL     1       6.645 -10.777  31.334  0.00  0.00    -0.270 OA
ATOM      7  N   UNL     1       8.922 -10.781  31.071  0.00  0.00    -0.325 N 
ATOM     25  C   UNL     1       7.727 -10.169  31.438  0.00  0.00    +0.244 C 
ATOM     28  H   UNL     1       8.921 -11.734  30.722  0.00  0.00    +0.145 HD
ATOM     29  H   UNL     1       9.830 -10.333  31.128  0.00  0.00    +0.145 HD
ENDBRANCH  17  25
BRANCH  12   8
ATOM      4  N   UNL     1      14.535  -7.141  31.460  0.00  0.00    -0.297 NA
ATOM      8  C   UNL     1      12.584  -7.739  32.615  0.00  0.00    +0.070 C 
ATOM      9  C   UNL     1      13.246  -9.001  32.036  0.00  0.00    +0.028 C 
ATOM     10  C   UNL     1      13.249  -6.574  31.868  0.00  0.00    +0.096 C 
ATOM     11  C   UNL     1      14.220  -8.488  30.984  0.00  0.00    +0.085 C 
BRANCH   4  13
ATOM     13  C   UNL     1      15.200  -6.336  30.446  0.00  0.00    +0.119 C 
BRANCH  13  14
ATOM      1  F   UNL     1      16.297  -1.625  29.797  0.00  0.00    -0.202 F 
ATOM      2  F   UNL     1      16.822  -1.331  32.465  0.00  0.00    -0.202 F 
ATOM     14  C   UNL     1      15.633  -4.998  30.986  0.00  0.00    -0.030 A 
ATOM     19  C   UNL     1      15.767  -3.909  30.124  0.00  0.00    +0.046 A 
ATOM     20  C   UNL     1      15.900  -4.848  32.346  0.00  0.00    +0.008 A 
ATOM     23  C   UNL     1      16.169  -2.671  30.624  0.00  0.00    +0.159 A 
ATOM     24  C   UNL     1      16.302  -3.610  32.847  0.00  0.00    +0.041 A 
ATOM     26  C   UNL     1      16.436  -2.521  31.985  0.00  0.00    +0.158 A 
ENDBRANCH  13  14
ENDBRANCH   4  13
ENDBRANCH  12   8
TORSDOF 4
ENDMDL
MODEL 2
REMARK VINA RESULT:      -2.7     14.881     17.113
REMARK  Name = 51137865
REMARK  4 active torsions:
REMARK  status: ('A' for Active; 'I' for Inactive)
REMARK    1  A    between atoms: N_4  and  C_13
REMARK    2  A    between atoms: C_8  and  C_12
REMARK    3  A    between atoms: C_13  and  C_14
REMARK    4  A    between atoms: C_17  and  C_25
REMARK                            x       y       z     vdW  Elec       q    Type
REMARK                         _______ _______ _______ _____ _____    ______ ____
ROOT
ATOM      5  N   UNL     1      -1.835   2.720  25.229  0.00  0.00    -0.342 N 
ATOM      6  N   UNL     1      -3.456   1.201  25.311  0.00  0.00    -0.231 NA
ATOM     12  C   UNL     1      -2.159   1.391  25.226  0.00  0.00    +0.113 A 
ATOM     15  C   UNL     1      -3.002   3.434  25.322  0.00  0.00    +0.067 A 
ATOM     16  C   UNL     1      -3.999   2.464  25.372  0.00  0.00    +0.101 A 
ATOM     17  C   UNL     1      -5.342   2.865  25.472  0.00  0.00    +0.064 A 
ATOM     18  C   UNL     1      -3.263   4.804  25.366  0.00  0.00    +0.028 A 
ATOM     21  C   UNL     1      -5.628   4.236  25.516  0.00  0.00    +0.015 A 
ATOM     22  C   UNL     1      -4.605   5.187  25.464  0.00  0.00    +0.003 A 
ATOM     27  H   UNL     1      -0.904   3.110  25.173  0.00  0.00    +0.167 HD
ENDROOT
BRANCH  17  25
ATOM      3  O   UNL     1      -6.919   1.414  24.495  0.00  0.00    -0.270 OA
ATOM      7  N   UNL     1      -6.845   1.470  26.785  0.00  0.00    -0.325 N 
ATOM     25  C   UNL     1      -6.411   1.886  25.529  0.00  0.00    +0.244 C 
ATOM     28  H   UNL     1      -7.586   0.782  26.866  0.00  0.00    +0.145 HD
ATOM     29  H   UNL     1      -6.464   1.815  27.659  0.00  0.00    +0.145 HD
ENDBRANCH  17  25
BRANCH  12   8
ATOM      4  N   UNL     1       0.489  -0.616  23.683  0.00  0.00    -0.297 NA
ATOM      8  C   UNL     1      -1.093   0.323  25.135  0.00  0.00    +0.070 C 
ATOM      9  C   UNL     1      -1.591  -1.048  24.650  0.00  0.00    +0.028 C 
ATOM     10  C   UNL     1       0.040   0.690  24.168  0.00  0.00    +0.096 C 
ATOM     11  C   UNL     1      -0.741  -1.367  23.428  0.00  0.00    +0.085 C 
BRANCH   4  13
ATOM     13  C   UNL     1       1.329  -0.510  22.499  0.00  0.00    +0.119 C 
BRANCH  13  14
ATOM      1  F   UNL     1       5.553  -2.115  24.343  0.00  0.00    -0.202 F 
ATOM      2  F   UNL     1       6.745   0.293  23.831  0.00  0.00    -0.202 F 
ATOM     14  C   UNL     1       2.777  -0.296  22.854  0.00  0.00    -0.030 A 
ATOM     19  C   UNL     1       3.509  -1.325  23.445  0.00  0.00    +0.046 A 
ATOM     20  C   UNL     1       3.385   0.932  22.593  0.00  0.00    +0.008 A 
ATOM     23  C   UNL     1       4.850  -1.126  23.776  0.00  0.00    +0.159 A 
ATOM     24  C   UNL     1       4.726   1.132  22.923  0.00  0.00    +0.041 A 
ATOM     26  C   UNL     1       5.458   0.102  23.514  0.00  0.00    +0.158 A 
ENDBRANCH  13  14
ENDBRANCH   4  13
ENDBRANCH  12   8
TORSDOF 4
ENDMDL
MODEL 3
REMARK VINA RESULT:      -2.2     14.661     16.969
REMARK  Name = 51137865
REMARK  4 active torsions:
REMARK  status: ('A' for Active; 'I' for Inactive)
REMARK    1  A    between atoms: N_4  and  C_13
REMARK    2  A    between atoms: C_8  and  C_12
REMARK    3  A    between atoms: C_13  and  C_14
REMARK    4  A    between atoms: C_17  and  C_25
REMARK                            x       y       z     vdW  Elec       q    Type
REMARK                         _______ _______ _______ _____ _____    ______ ____
ROOT
ATOM      5  N   UNL     1      -3.591   0.196  24.950  0.00  0.00    -0.342 N 
ATOM      6  N   UNL     1      -2.263   1.926  25.382  0.00  0.00    -0.231 NA
ATOM     12  C   UNL     1      -2.308   0.642  25.103  0.00  0.00    +0.113 A 
ATOM     15  C   UNL     1      -4.431   1.263  25.144  0.00  0.00    +0.067 A 
ATOM     16  C   UNL     1      -3.579   2.330  25.411  0.00  0.00    +0.101 A 
ATOM     17  C   UNL     1      -4.127   3.600  25.661  0.00  0.00    +0.064 A 
ATOM     18  C   UNL     1      -5.821   1.382  25.108  0.00  0.00    +0.028 A 
ATOM     21  C   UNL     1      -5.520   3.742  25.631  0.00  0.00    +0.015 A 
ATOM     22  C   UNL     1      -6.351   2.652  25.359  0.00  0.00    +0.003 A 
ATOM     27  H   UNL     1      -3.874  -0.750  24.733  0.00  0.00    +0.167 HD
ENDROOT
BRANCH  17  25
ATOM      3  O   UNL     1      -3.587   5.593  26.793  0.00  0.00    -0.270 OA
ATOM      7  N   UNL     1      -2.075   4.842  25.242  0.00  0.00    -0.325 N 
ATOM     25  C   UNL     1      -3.274   4.739  25.942  0.00  0.00    +0.244 C 
ATOM     28  H   UNL     1      -1.449   5.622  25.416  0.00  0.00    +0.145 HD
ATOM     29  H   UNL     1      -1.767   4.174  24.544  0.00  0.00    +0.145 HD
ENDBRANCH  17  25
BRANCH  12   8
ATOM      4  N   UNL     1       0.602  -0.890  23.487  0.00  0.00    -0.297 NA
ATOM      8  C   UNL     1      -1.128  -0.290  24.952  0.00  0.00    +0.070 C 
ATOM      9  C   UNL     1      -1.453  -1.644  24.299  0.00  0.00    +0.028 C 
ATOM     10  C   UNL     1      -0.007   0.299  24.085  0.00  0.00    +0.096 C 
ATOM     11  C   UNL     1      -0.527  -1.733  23.094  0.00  0.00    +0.085 C 
BRANCH   4  13
ATOM     13  C   UNL     1       1.468  -0.564  22.364  0.00  0.00    +0.119 C 
BRANCH  13  14
ATOM      1  F   UNL     1       5.626  -2.095  24.412  0.00  0.00    -0.202 F 
ATOM      2  F   UNL     1       6.780   0.351  24.007  0.00  0.00    -0.202 F 
ATOM     14  C   UNL     1       2.888  -0.320  22.802  0.00  0.00    -0.030 A 
ATOM     19  C   UNL     1       3.614  -1.341  23.416  0.00  0.00    +0.046 A 
ATOM     20  C   UNL     1       3.477   0.927  22.596  0.00  0.00    +0.008 A 
ATOM     23  C   UNL     1       4.929  -1.114  23.823  0.00  0.00    +0.159 A 
ATOM     24  C   UNL     1       4.792   1.155  23.003  0.00  0.00    +0.041 A 
ATOM     26  C   UNL     1       5.518   0.134  23.616  0.00  0.00    +0.158 A 
ENDBRANCH  13  14
ENDBRANCH   4  13
ENDBRANCH  12   8
TORSDOF 4
ENDMDL
MODEL 4
REMARK VINA RESULT:      -1.8     16.165     18.976
REMARK  Name = 51137865
REMARK  4 active torsions:
REMARK  status: ('A' for Active; 'I' for Inactive)
REMARK    1  A    between atoms: N_4  and  C_13
REMARK    2  A    between atoms: C_8  and  C_12
REMARK    3  A    between atoms: C_13  and  C_14
REMARK    4  A    between atoms: C_17  and  C_25
REMARK                            x       y       z     vdW  Elec       q    Type
REMARK                         _______ _______ _______ _____ _____    ______ ____
ROOT
ATOM      5  N   UNL     1      -4.972  -1.058  24.295  0.00  0.00    -0.342 N 
ATOM      6  N   UNL     1      -3.200   0.273  24.476  0.00  0.00    -0.231 NA
ATOM     12  C   UNL     1      -4.514   0.219  24.463  0.00  0.00    +0.113 A 
ATOM     15  C   UNL     1      -3.882  -1.884  24.192  0.00  0.00    +0.067 A 
ATOM     16  C   UNL     1      -2.788  -1.030  24.308  0.00  0.00    +0.101 A 
ATOM     17  C   UNL     1      -1.491  -1.564  24.244  0.00  0.00    +0.064 A 
ATOM     18  C   UNL     1      -3.762  -3.262  24.013  0.00  0.00    +0.028 A 
ATOM     21  C   UNL     1      -1.346  -2.946  24.064  0.00  0.00    +0.015 A 
ATOM     22  C   UNL     1      -2.463  -3.779  23.951  0.00  0.00    +0.003 A 
ATOM     27  H   UNL     1      -5.940  -1.346  24.254  0.00  0.00    +0.167 HD
ENDROOT
BRANCH  17  25
ATOM      3  O   UNL     1       0.562  -0.691  23.488  0.00  0.00    -0.270 OA
ATOM      7  N   UNL     1      -0.232   0.111  25.484  0.00  0.00    -0.325 N 
ATOM     25  C   UNL     1      -0.324  -0.710  24.363  0.00  0.00    +0.244 C 
ATOM     28  H   UNL     1       0.566   0.728  25.599  0.00  0.00    +0.145 HD
ATOM     29  H   UNL     1      -0.925   0.142  26.223  0.00  0.00    +0.145 HD
ENDBRANCH  17  25
BRANCH  12   8
ATOM      4  N   UNL     1      -5.596   3.609  25.337  0.00  0.00    -0.297 NA
ATOM      8  C   UNL     1      -5.467   1.383  24.612  0.00  0.00    +0.070 C 
ATOM      9  C   UNL     1      -6.208   1.443  25.958  0.00  0.00    +0.028 C 
ATOM     10  C   UNL     1      -4.771   2.745  24.491  0.00  0.00    +0.096 C 
ATOM     11  C   UNL     1      -5.871   2.812  26.533  0.00  0.00    +0.085 C 
BRANCH   4  13
ATOM     13  C   UNL     1      -4.939   4.870  25.650  0.00  0.00    +0.119 C 
BRANCH  13  14
ATOM      1  F   UNL     1      -0.703   2.691  26.712  0.00  0.00    -0.202 F 
ATOM      2  F   UNL     1       0.664   4.499  25.181  0.00  0.00    -0.202 F 
ATOM     14  C   UNL     1      -3.442   4.770  25.524  0.00  0.00    -0.030 A 
ATOM     19  C   UNL     1      -2.752   3.756  26.189  0.00  0.00    +0.046 A 
ATOM     20  C   UNL     1      -2.745   5.692  24.743  0.00  0.00    +0.008 A 
ATOM     23  C   UNL     1      -1.365   3.665  26.074  0.00  0.00    +0.159 A 
ATOM     24  C   UNL     1      -1.357   5.601  24.627  0.00  0.00    +0.041 A 
ATOM     26  C   UNL     1      -0.668   4.587  25.292  0.00  0.00    +0.158 A 
ENDBRANCH  13  14
ENDBRANCH   4  13
ENDBRANCH  12   8
TORSDOF 4
ENDMDL
MODEL 5
REMARK VINA RESULT:      -1.4      3.359      4.128
REMARK  Name = 51137865
REMARK  4 active torsions:
REMARK  status: ('A' for Active; 'I' for Inactive)
REMARK    1  A    between atoms: N_4  and  C_13
REMARK    2  A    between atoms: C_8  and  C_12
REMARK    3  A    between atoms: C_13  and  C_14
REMARK    4  A    between atoms: C_17  and  C_25
REMARK                            x       y       z     vdW  Elec       q    Type
REMARK                         _______ _______ _______ _____ _____    ______ ____
ROOT
ATOM      5  N   UNL     1      11.453  -6.962  32.716  0.00  0.00    -0.342 N 
ATOM      6  N   UNL     1      10.782  -9.065  32.452  0.00  0.00    -0.231 NA
ATOM     12  C   UNL     1      11.823  -8.268  32.547  0.00  0.00    +0.113 A 
ATOM     15  C   UNL     1      10.083  -6.913  32.731  0.00  0.00    +0.067 A 
ATOM     16  C   UNL     1       9.687  -8.238  32.565  0.00  0.00    +0.101 A 
ATOM     17  C   UNL     1       8.317  -8.546  32.536  0.00  0.00    +0.064 A 
ATOM     18  C   UNL     1       9.183  -5.857  32.872  0.00  0.00    +0.028 A 
ATOM     21  C   UNL     1       7.395  -7.500  32.675  0.00  0.00    +0.015 A 
ATOM     22  C   UNL     1       7.822  -6.180  32.840  0.00  0.00    +0.003 A 
ATOM     27  H   UNL     1      12.076  -6.172  32.813  0.00  0.00    +0.167 HD
ENDROOT
BRANCH  17  25
ATOM      3  O   UNL     1       6.779 -10.303  32.841  0.00  0.00    -0.270 OA
ATOM      7  N   UNL     1       8.670 -10.781  31.637  0.00  0.00    -0.325 N 
ATOM     25  C   UNL     1       7.862  -9.913  32.367  0.00  0.00    +0.244 C 
ATOM     28  H   UNL     1       8.382 -11.744  31.492  0.00  0.00    +0.145 HD
ATOM     29  H   UNL     1       9.557 -10.517  31.223  0.00  0.00    +0.145 HD
ENDBRANCH  17  25
BRANCH  12   8
ATOM      4  N   UNL     1      15.285  -8.257  31.349  0.00  0.00    -0.297 NA
ATOM      8  C   UNL     1      13.278  -8.672  32.487  0.00  0.00    +0.070 C 
ATOM      9  C   UNL     1      13.585  -9.846  31.543  0.00  0.00    +0.028 C 
ATOM     10  C   UNL     1      14.194  -7.538  32.008  0.00  0.00    +0.096 C 
ATOM     11  C   UNL     1      14.628  -9.309  30.572  0.00  0.00    +0.085 C 
BRANCH   4  13
ATOM     13  C   UNL     1      16.104  -7.385  30.520  0.00  0.00    +0.119 C 
BRANCH  13  14
ATOM      1  F   UNL     1      16.731 -10.273  26.635  0.00  0.00    -0.202 F 
ATOM      2  F   UNL     1      15.442  -8.472  25.030  0.00  0.00    -0.202 F 
ATOM     14  C   UNL     1      15.926  -7.676  29.053  0.00  0.00    -0.030 A 
ATOM     19  C   UNL     1      16.421  -8.864  28.513  0.00  0.00    +0.046 A 
ATOM     20  C   UNL     1      15.269  -6.758  28.234  0.00  0.00    +0.008 A 
ATOM     23  C   UNL     1      16.257  -9.132  27.153  0.00  0.00    +0.159 A 
ATOM     24  C   UNL     1      15.105  -7.027  26.875  0.00  0.00    +0.041 A 
ATOM     26  C   UNL     1      15.599  -8.214  26.335  0.00  0.00    +0.158 A 
ENDBRANCH  13  14
ENDBRANCH   4  13
ENDBRANCH  12   8
TORSDOF 4
ENDMDL
MODEL 6
REMARK VINA RESULT:      -0.3     15.670     18.913
REMARK  Name = 51137865
REMARK  4 active torsions:
REMARK  status: ('A' for Active; 'I' for Inactive)
REMARK    1  A    between atoms: N_4  and  C_13
REMARK    2  A    between atoms: C_8  and  C_12
REMARK    3  A    between atoms: C_13  and  C_14
REMARK    4  A    between atoms: C_17  and  C_25
REMARK                            x       y       z     vdW  Elec       q    Type
REMARK                         _______ _______ _______ _____ _____    ______ ____
ROOT
ATOM      5  N   UNL     1      -0.571   1.409  23.859  0.00  0.00    -0.342 N 
ATOM      6  N   UNL     1       1.515   2.056  24.275  0.00  0.00    -0.231 NA
ATOM     12  C   UNL     1       0.245   2.270  24.539  0.00  0.00    +0.113 A 
ATOM     15  C   UNL     1       0.225   0.585  23.105  0.00  0.00    +0.067 A 
ATOM     16  C   UNL     1       1.522   1.009  23.382  0.00  0.00    +0.101 A 
ATOM     17  C   UNL     1       2.603   0.361  22.760  0.00  0.00    +0.064 A 
ATOM     18  C   UNL     1      -0.068  -0.462  22.231  0.00  0.00    +0.028 A 
ATOM     21  C   UNL     1       2.331  -0.693  21.879  0.00  0.00    +0.015 A 
ATOM     22  C   UNL     1       1.018  -1.096  21.620  0.00  0.00    +0.003 A 
ATOM     27  H   UNL     1      -1.580   1.382  23.901  0.00  0.00    +0.167 HD
ENDROOT
BRANCH  17  25
ATOM      3  O   UNL     1       4.432   1.831  22.566  0.00  0.00    -0.270 OA
ATOM      7  N   UNL     1       4.752  -0.057  23.826  0.00  0.00    -0.325 N 
ATOM     25  C   UNL     1       3.970   0.769  23.023  0.00  0.00    +0.244 C 
ATOM     28  H   UNL     1       5.711   0.198  24.038  0.00  0.00    +0.145 HD
ATOM     29  H   UNL     1       4.426  -0.928  24.230  0.00  0.00    +0.145 HD
ENDBRANCH  17  25
BRANCH  12   8
ATOM      4  N   UNL     1      -2.315   4.375  26.101  0.00  0.00    -0.297 NA
ATOM      8  C   UNL     1      -0.320   3.318  25.471  0.00  0.00    +0.070 C 
ATOM      9  C   UNL     1      -0.349   4.745  24.899  0.00  0.00    +0.028 C 
ATOM     10  C   UNL     1      -1.771   3.034  25.880  0.00  0.00    +0.096 C 
ATOM     11  C   UNL     1      -1.806   5.176  24.987  0.00  0.00    +0.085 C 
BRANCH   4  13
ATOM     13  C   UNL     1      -3.769   4.379  26.168  0.00  0.00    +0.119 C 
BRANCH  13  14
ATOM      1  F   UNL     1      -3.570   0.469  23.253  0.00  0.00    -0.202 F 
ATOM      2  F   UNL     1      -5.982  -0.412  24.192  0.00  0.00    -0.202 F 
ATOM     14  C   UNL     1      -4.360   3.099  25.640  0.00  0.00    -0.030 A 
ATOM     19  C   UNL     1      -3.677   2.362  24.672  0.00  0.00    +0.046 A 
ATOM     20  C   UNL     1      -5.590   2.649  26.119  0.00  0.00    +0.008 A 
ATOM     23  C   UNL     1      -4.226   1.177  24.182  0.00  0.00    +0.159 A 
ATOM     24  C   UNL     1      -6.139   1.463  25.631  0.00  0.00    +0.041 A 
ATOM     26  C   UNL     1      -5.456   0.727  24.662  0.00  0.00    +0.158 A 
ENDBRANCH  13  14
ENDBRANCH   4  13
ENDBRANCH  12   8
TORSDOF 4
ENDMDL
MODEL 7
REMARK VINA RESULT:       0.0     16.131     18.529
REMARK  Name = 51137865
REMARK  4 active torsions:
REMARK  status: ('A' for Active; 'I' for Inactive)
REMARK    1  A    between atoms: N_4  and  C_13
REMARK    2  A    between atoms: C_8  and  C_12
REMARK    3  A    between atoms: C_13  and  C_14
REMARK    4  A    between atoms: C_17  and  C_25
REMARK                            x       y       z     vdW  Elec       q    Type
REMARK                         _______ _______ _______ _____ _____    ______ ____
ROOT
ATOM      5  N   UNL     1      -5.607   1.271  25.460  0.00  0.00    -0.342 N 
ATOM      6  N   UNL     1      -3.438   1.755  25.417  0.00  0.00    -0.231 NA
ATOM     12  C   UNL     1      -4.329   0.788  25.412  0.00  0.00    +0.113 A 
ATOM     15  C   UNL     1      -5.537   2.640  25.498  0.00  0.00    +0.067 A 
ATOM     16  C   UNL     1      -4.173   2.917  25.470  0.00  0.00    +0.101 A 
ATOM     17  C   UNL     1      -3.745   4.255  25.498  0.00  0.00    +0.064 A 
ATOM     18  C   UNL     1      -6.519   3.629  25.553  0.00  0.00    +0.028 A 
ATOM     21  C   UNL     1      -4.715   5.265  25.553  0.00  0.00    +0.015 A 
ATOM     22  C   UNL     1      -6.077   4.956  25.580  0.00  0.00    +0.003 A 
ATOM     27  H   UNL     1      -6.455   0.720  25.466  0.00  0.00    +0.167 HD
ENDROOT
BRANCH  17  25
ATOM      3  O   UNL     1      -1.936   5.711  25.104  0.00  0.00    -0.270 OA
ATOM      7  N   UNL     1      -1.427   3.615  25.881  0.00  0.00    -0.325 N 
ATOM     25  C   UNL     1      -2.333   4.588  25.468  0.00  0.00    +0.244 C 
ATOM     28  H   UNL     1      -0.432   3.813  25.880  0.00  0.00    +0.145 HD
ATOM     29  H   UNL     1      -1.694   2.688  26.193  0.00  0.00    +0.145 HD
ENDBRANCH  17  25
BRANCH  12   8
ATOM      4  N   UNL     1      -2.444  -2.272  24.702  0.00  0.00    -0.297 NA
ATOM      8  C   UNL     1      -4.050  -0.696  25.360  0.00  0.00    +0.070 C 
ATOM      9  C   UNL     1      -4.514  -1.396  24.072  0.00  0.00    +0.028 C 
ATOM     10  C   UNL     1      -2.556  -1.028  25.466  0.00  0.00    +0.096 C 
ATOM     11  C   UNL     1      -3.263  -2.056  23.509  0.00  0.00    +0.085 C 
BRANCH   4  13
ATOM     13  C   UNL     1      -1.064  -2.600  24.375  0.00  0.00    +0.119 C 
BRANCH  13  14
ATOM      1  F   UNL     1       2.181  -0.172  21.655  0.00  0.00    -0.202 F 
ATOM      2  F   UNL     1       1.995   2.008  23.296  0.00  0.00    -0.202 F 
ATOM     14  C   UNL     1      -0.247  -1.368  24.086  0.00  0.00    -0.030 A 
ATOM     19  C   UNL     1       0.606  -1.340  22.982  0.00  0.00    +0.046 A 
ATOM     20  C   UNL     1      -0.342  -0.256  24.923  0.00  0.00    +0.008 A 
ATOM     23  C   UNL     1       1.363  -0.199  22.716  0.00  0.00    +0.159 A 
ATOM     24  C   UNL     1       0.415   0.885  24.656  0.00  0.00    +0.041 A 
ATOM     26  C   UNL     1       1.268   0.913  23.552  0.00  0.00    +0.158 A 
ENDBRANCH  13  14
ENDBRANCH   4  13
ENDBRANCH  12   8
TORSDOF 4
ENDMDL
MODEL 8
REMARK VINA RESULT:       0.0     16.238     19.198
REMARK  Name = 51137865
REMARK  4 active torsions:
REMARK  status: ('A' for Active; 'I' for Inactive)
REMARK    1  A    between atoms: N_4  and  C_13
REMARK    2  A    between atoms: C_8  and  C_12
REMARK    3  A    between atoms: C_13  and  C_14
REMARK    4  A    between atoms: C_17  and  C_25
REMARK                            x       y       z     vdW  Elec       q    Type
REMARK                         _______ _______ _______ _____ _____    ______ ____
ROOT
ATOM      5  N   UNL     1       1.013   2.536  24.108  0.00  0.00    -0.342 N 
ATOM      6  N   UNL     1      -0.611   1.305  24.997  0.00  0.00    -0.231 NA
ATOM     12  C   UNL     1      -0.086   2.508  24.921  0.00  0.00    +0.113 A 
ATOM     15  C   UNL     1       1.211   1.266  23.629  0.00  0.00    +0.067 A 
ATOM     16  C   UNL     1       0.185   0.517  24.197  0.00  0.00    +0.101 A 
ATOM     17  C   UNL     1       0.095  -0.854  23.906  0.00  0.00    +0.064 A 
ATOM     18  C   UNL     1       2.170   0.725  22.772  0.00  0.00    +0.028 A 
ATOM     21  C   UNL     1       1.047  -1.419  23.049  0.00  0.00    +0.015 A 
ATOM     22  C   UNL     1       2.067  -0.641  22.493  0.00  0.00    +0.003 A 
ATOM     27  H   UNL     1       1.581   3.345  23.896  0.00  0.00    +0.167 HD
ENDROOT
BRANCH  17  25
ATOM      3  O   UNL     1      -1.469  -2.615  23.843  0.00  0.00    -0.270 OA
ATOM      7  N   UNL     1      -1.381  -1.378  25.771  0.00  0.00    -0.325 N 
ATOM     25  C   UNL     1      -0.961  -1.670  24.476  0.00  0.00    +0.244 C 
ATOM     28  H   UNL     1      -2.112  -1.931  26.207  0.00  0.00    +0.145 HD
ATOM     29  H   UNL     1      -0.999  -0.627  26.335  0.00  0.00    +0.145 HD
ENDBRANCH  17  25
BRANCH  12   8
ATOM      4  N   UNL     1      -2.519   5.000  26.058  0.00  0.00    -0.297 NA
ATOM      8  C   UNL     1      -0.583   3.756  25.614  0.00  0.00    +0.070 C 
ATOM      9  C   UNL     1      -0.592   5.022  24.741  0.00  0.00    +0.028 C 
ATOM     10  C   UNL     1      -2.024   3.624  26.123  0.00  0.00    +0.096 C 
ATOM     11  C   UNL     1      -2.031   5.517  24.779  0.00  0.00    +0.085 C 
BRANCH   4  13
ATOM     13  C   UNL     1      -3.968   5.075  26.169  0.00  0.00    +0.119 C 
BRANCH  13  14
ATOM      1  F   UNL     1      -7.012   1.329  26.894  0.00  0.00    -0.202 F 
ATOM      2  F   UNL     1      -6.454   0.334  24.409  0.00  0.00    -0.202 F 
ATOM     14  C   UNL     1      -4.633   3.808  25.698  0.00  0.00    -0.030 A 
ATOM     19  C   UNL     1      -5.533   3.142  26.531  0.00  0.00    +0.046 A 
ATOM     20  C   UNL     1      -4.349   3.300  24.431  0.00  0.00    +0.008 A 
ATOM     23  C   UNL     1      -6.148   1.968  26.095  0.00  0.00    +0.159 A 
ATOM     24  C   UNL     1      -4.964   2.127  23.994  0.00  0.00    +0.041 A 
ATOM     26  C   UNL     1      -5.864   1.460  24.827  0.00  0.00    +0.158 A 
ENDBRANCH  13  14
ENDBRANCH   4  13
ENDBRANCH  12   8
TORSDOF 4
ENDMDL
MODEL 9
REMARK VINA RESULT:       0.8     16.048     18.710
REMARK  Name = 51137865
REMARK  4 active torsions:
REMARK  status: ('A' for Active; 'I' for Inactive)
REMARK    1  A    between atoms: N_4  and  C_13
REMARK    2  A    between atoms: C_8  and  C_12
REMARK    3  A    between atoms: C_13  and  C_14
REMARK    4  A    between atoms: C_17  and  C_25
REMARK                            x       y       z     vdW  Elec       q    Type
REMARK                         _______ _______ _______ _____ _____    ______ ____
ROOT
ATOM      5  N   UNL     1       0.259  -0.583  25.168  0.00  0.00    -0.342 N 
ATOM      6  N   UNL     1      -1.757   0.274  24.785  0.00  0.00    -0.231 NA
ATOM     12  C   UNL     1      -0.498   0.550  25.043  0.00  0.00    +0.113 A 
ATOM     15  C   UNL     1      -0.567  -1.661  24.979  0.00  0.00    +0.067 A 
ATOM     16  C   UNL     1      -1.819  -1.100  24.741  0.00  0.00    +0.101 A 
ATOM     17  C   UNL     1      -2.915  -1.946  24.503  0.00  0.00    +0.064 A 
ATOM     18  C   UNL     1      -0.334  -3.036  24.994  0.00  0.00    +0.028 A 
ATOM     21  C   UNL     1      -2.704  -3.331  24.514  0.00  0.00    +0.015 A 
ATOM     22  C   UNL     1      -1.436  -3.865  24.755  0.00  0.00    +0.003 A 
ATOM     27  H   UNL     1       1.249  -0.622  25.365  0.00  0.00    +0.167 HD
ENDROOT
BRANCH  17  25
ATOM      3  O   UNL     1      -5.057  -1.997  23.523  0.00  0.00    -0.270 OA
ATOM      7  N   UNL     1      -4.572  -0.198  24.859  0.00  0.00    -0.325 N 
ATOM     25  C   UNL     1      -4.237  -1.403  24.248  0.00  0.00    +0.244 C 
ATOM     28  H   UNL     1      -5.489   0.211  24.710  0.00  0.00    +0.145 HD
ATOM     29  H   UNL     1      -3.948   0.325  25.463  0.00  0.00    +0.145 HD
ENDBRANCH  17  25
BRANCH  12   8
ATOM      4  N   UNL     1      -0.398   4.211  25.134  0.00  0.00    -0.297 NA
ATOM      8  C   UNL     1       0.114   1.924  25.194  0.00  0.00    +0.070 C 
ATOM      9  C   UNL     1       0.656   2.538  23.892  0.00  0.00    +0.028 C 
ATOM     10  C   UNL     1      -0.879   2.964  25.730  0.00  0.00    +0.096 C 
ATOM     11  C   UNL     1      -0.074   3.866  23.749  0.00  0.00    +0.085 C 
BRANCH   4  13
ATOM     13  C   UNL     1      -1.377   5.283  25.224  0.00  0.00    +0.119 C 
BRANCH  13  14
ATOM      1  F   UNL     1      -5.024   2.597  23.406  0.00  0.00    -0.202 F 
ATOM      2  F   UNL     1      -6.646   3.304  25.490  0.00  0.00    -0.202 F 
ATOM     14  C   UNL     1      -2.785   4.754  25.296  0.00  0.00    -0.030 A 
ATOM     19  C   UNL     1      -3.262   3.903  24.298  0.00  0.00    +0.046 A 
ATOM     20  C   UNL     1      -3.613   5.114  26.359  0.00  0.00    +0.008 A 
ATOM     23  C   UNL     1      -4.567   3.414  24.364  0.00  0.00    +0.159 A 
ATOM     24  C   UNL     1      -4.917   4.624  26.425  0.00  0.00    +0.041 A 
ATOM     26  C   UNL     1      -5.394   3.774  25.428  0.00  0.00    +0.158 A 
ENDBRANCH  13  14
ENDBRANCH   4  13
ENDBRANCH  12   8
TORSDOF 4
ENDMDL
MODEL 10
REMARK VINA RESULT:       1.1     16.376     19.059
REMARK  Name = 51137865
REMARK  4 active torsions:
REMARK  status: ('A' for Active; 'I' for Inactive)
REMARK    1  A    between atoms: N_4  and  C_13
REMARK    2  A    between atoms: C_8  and  C_12
REMARK    3  A    between atoms: C_13  and  C_14
REMARK    4  A    between atoms: C_17  and  C_25
REMARK                            x       y       z     vdW  Elec       q    Type
REMARK                         _______ _______ _______ _____ _____    ______ ____
ROOT
ATOM      5  N   UNL     1      -2.849   4.412  24.145  0.00  0.00    -0.342 N 
ATOM      6  N   UNL     1      -3.367   2.330  24.725  0.00  0.00    -0.231 NA
ATOM     12  C   UNL     1      -2.447   3.106  24.198  0.00  0.00    +0.113 A 
ATOM     15  C   UNL     1      -4.112   4.484  24.672  0.00  0.00    +0.067 A 
ATOM     16  C   UNL     1      -4.414   3.172  25.028  0.00  0.00    +0.101 A 
ATOM     17  C   UNL     1      -5.660   2.888  25.610  0.00  0.00    +0.064 A 
ATOM     18  C   UNL     1      -4.991   5.550  24.864  0.00  0.00    +0.028 A 
ATOM     21  C   UNL     1      -6.559   3.944  25.811  0.00  0.00    +0.015 A 
ATOM     22  C   UNL     1      -6.228   5.251  25.444  0.00  0.00    +0.003 A 
ATOM     27  H   UNL     1      -2.313   5.189  23.782  0.00  0.00    +0.167 HD
ENDROOT
BRANCH  17  25
ATOM      3  O   UNL     1      -6.766   1.309  26.963  0.00  0.00    -0.270 OA
ATOM      7  N   UNL     1      -5.498   0.487  25.239  0.00  0.00    -0.325 N 
ATOM     25  C   UNL     1      -6.013   1.535  25.997  0.00  0.00    +0.244 C 
ATOM     28  H   UNL     1      -5.728  -0.473  25.475  0.00  0.00    +0.145 HD
ATOM     29  H   UNL     1      -4.887   0.612  24.440  0.00  0.00    +0.145 HD
ENDBRANCH  17  25
BRANCH  12   8
ATOM      4  N   UNL     1       0.421   0.886  23.679  0.00  0.00    -0.297 NA
ATOM      8  C   UNL     1      -1.087   2.680  23.693  0.00  0.00    +0.070 C 
ATOM      9  C   UNL     1       0.081   2.984  24.645  0.00  0.00    +0.028 C 
ATOM     10  C   UNL     1      -0.993   1.172  23.430  0.00  0.00    +0.096 C 
ATOM     11  C   UNL     1       0.749   1.638  24.890  0.00  0.00    +0.085 C 
BRANCH   4  13
ATOM     13  C   UNL     1       0.682  -0.539  23.822  0.00  0.00    +0.119 C 
BRANCH  13  14
ATOM      1  F   UNL     1      -3.144  -1.119  26.797  0.00  0.00    -0.202 F 
ATOM      2  F   UNL     1      -3.915  -3.367  25.444  0.00  0.00    -0.202 F 
ATOM     14  C   UNL     1      -0.547  -1.294  24.255  0.00  0.00    -0.030 A 
ATOM     19  C   UNL     1      -1.292  -0.848  25.347  0.00  0.00    +0.046 A 
ATOM     20  C   UNL     1      -0.940  -2.441  23.565  0.00  0.00    +0.008 A 
ATOM     23  C   UNL     1      -2.429  -1.549  25.749  0.00  0.00    +0.159 A 
ATOM     24  C   UNL     1      -2.078  -3.141  23.966  0.00  0.00    +0.041 A 
ATOM     26  C   UNL     1      -2.823  -2.695  25.058  0.00  0.00    +0.158 A 
ENDBRANCH  13  14
ENDBRANCH   4  13
ENDBRANCH  12   8
TORSDOF 4
ENDMDL
