MODEL 1
REMARK VINA RESULT:      -0.9      0.000      0.000
REMARK  Name = 40777634
REMARK  7 active torsions:
REMARK  status: ('A' for Active; 'I' for Inactive)
REMARK    1  A    between atoms: N_2  and  C_7
REMARK    2  A    between atoms: N_3  and  C_21
REMARK    3  A    between atoms: C_5  and  C_14
REMARK    4  A    between atoms: C_6  and  C_15
REMARK    5  A    between atoms: C_18  and  C_20
REMARK    6  A    between atoms: C_19  and  C_22
REMARK    7  A    between atoms: C_21  and  C_23
REMARK                            x       y       z     vdW  Elec       q    Type
REMARK                         _______ _______ _______ _____ _____    ______ ____
ROOT
ATOM      6  C   UNL     1      -5.789  -9.481  13.980  0.00  0.00    +0.047 C 
ATOM      7  C   UNL     1      -7.013 -10.780  15.665  0.00  0.00    +0.097 C 
ATOM      8  C   UNL     1      -6.602 -10.775  14.187  0.00  0.00    +0.039 C 
ATOM     16  C   UNL     1      -5.340  -9.155  15.376  0.00  0.00    -0.021 C 
ATOM     17  C   UNL     1      -6.013  -9.862  16.290  0.00  0.00    -0.009 C 
ENDROOT
BRANCH   6  15
ATOM      3  N   UNL     1      -2.764 -10.065  11.997  0.00  0.00    -0.264 N 
ATOM      4  N   UNL     1      -3.520  -9.568  11.003  0.00  0.00    -0.176 NA
ATOM     15  C   UNL     1      -4.668  -9.634  12.977  0.00  0.00    +0.003 A 
ATOM     18  C   UNL     1      -3.405 -10.126  13.200  0.00  0.00    +0.041 A 
ATOM     19  C   UNL     1      -4.682  -9.307  11.608  0.00  0.00    +0.064 A 
ATOM     20  C   UNL     1      -2.761 -10.638  14.425  0.00  0.00    +0.065 C 
ATOM     22  C   UNL     1      -5.794  -8.737  10.827  0.00  0.00    +0.068 C 
BRANCH   3  21
ATOM     21  C   UNL     1      -1.407 -10.470  11.715  0.00  0.00    +0.178 C 
BRANCH  21  23
ATOM     23  C   UNL     1      -0.418  -9.333  11.776  0.00  0.00    -0.026 A 
ATOM     24  C   UNL     1       0.601  -9.242  10.828  0.00  0.00    +0.005 A 
ATOM     25  C   UNL     1      -0.523  -8.371  12.782  0.00  0.00    +0.005 A 
ATOM     26  C   UNL     1       1.515  -8.190  10.886  0.00  0.00    +0.000 A 
ATOM     27  C   UNL     1       0.391  -7.320  12.840  0.00  0.00    +0.000 A 
ATOM     28  C   UNL     1       1.410  -7.229  11.891  0.00  0.00    +0.000 A 
ENDBRANCH  21  23
ENDBRANCH   3  21
ENDBRANCH   6  15
BRANCH   7   2
ATOM      1  O   UNL     1      -9.019 -10.204  13.653  0.00  0.00    -0.275 OA
ATOM      2  N   UNL     1      -8.334 -10.254  15.878  0.00  0.00    -0.309 N 
ATOM     14  C   UNL     1      -9.227 -10.010  14.848  0.00  0.00    +0.217 C 
ATOM     29  H   UNL     1      -8.627 -10.088  16.836  0.00  0.00    +0.149 HD
BRANCH  14   5
ATOM      5  C   UNL     1     -10.542  -9.486  15.348  0.00  0.00    +0.075 C 
ATOM      9  C   UNL     1     -10.676  -9.690  16.859  0.00  0.00    +0.013 C 
ATOM     10  C   UNL     1     -10.720  -8.024  14.930  0.00  0.00    +0.013 C 
ATOM     11  C   UNL     1      -9.858  -8.695  17.682  0.00  0.00    +0.001 C 
ATOM     12  C   UNL     1      -9.886  -7.057  15.768  0.00  0.00    +0.001 C 
ATOM     13  C   UNL     1     -10.125  -7.254  17.260  0.00  0.00    +0.000 C 
ENDBRANCH  14   5
ENDBRANCH   7   2
TORSDOF 5
ENDMDL
