MODEL 1
REMARK VINA RESULT:      -4.7      0.000      0.000
REMARK  Name = 75537121
REMARK  3 active torsions:
REMARK  status: ('A' for Active; 'I' for Inactive)
REMARK    1  A    between atoms: N_3  and  C_7
REMARK    2  A    between atoms: N_5  and  C_18
REMARK    3  A    between atoms: C_18  and  C_19
REMARK                            x       y       z     vdW  Elec       q    Type
REMARK                         _______ _______ _______ _____ _____    ______ ____
ROOT
ATOM      2  O   UNL     1      17.396  -5.999  23.141  0.00  0.00    -0.252 OA
ATOM      3  N   UNL     1      17.335  -4.454  24.922  0.00  0.00    -0.281 N 
ATOM      4  N   UNL     1      17.187  -6.645  25.390  0.00  0.00    -0.278 N 
ATOM      5  N   UNL     1      16.232  -8.028  27.645  0.00  0.00    -0.295 NA
ATOM      6  C   UNL     1      17.243  -6.000  26.685  0.00  0.00    +0.109 C 
ATOM      8  C   UNL     1      17.112  -4.515  26.357  0.00  0.00    +0.133 C 
ATOM      9  C   UNL     1      16.154  -6.554  27.603  0.00  0.00    +0.109 C 
ATOM     12  C   UNL     1      17.319  -5.734  24.333  0.00  0.00    +0.305 C 
ATOM     13  C   UNL     1      17.108  -8.089  25.320  0.00  0.00    +0.125 C 
ATOM     14  C   UNL     1      16.049  -8.605  26.298  0.00  0.00    +0.104 C 
ENDROOT
BRANCH   3   7
ATOM      7  C   UNL     1      17.404  -3.200  24.212  0.00  0.00    +0.078 C 
ATOM     10  C   UNL     1      17.385  -2.025  25.193  0.00  0.00    +0.022 C 
ATOM     11  C   UNL     1      16.268  -3.092  23.190  0.00  0.00    +0.022 C 
ATOM     15  C   UNL     1      17.405  -0.684  24.464  0.00  0.00    +0.002 C 
ATOM     16  C   UNL     1      16.290  -1.749  22.465  0.00  0.00    +0.002 C 
ATOM     17  C   UNL     1      16.274  -0.579  23.445  0.00  0.00    +0.000 C 
ENDBRANCH   3   7
BRANCH   5  18
ATOM     18  C   UNL     1      15.233  -8.565  28.569  0.00  0.00    +0.119 C 
BRANCH  18  19
ATOM      1  F   UNL     1      14.249  -5.059  32.868  0.00  0.00    -0.205 F 
ATOM     19  C   UNL     1      14.970  -7.629  29.718  0.00  0.00    -0.033 A 
ATOM     20  C   UNL     1      13.814  -6.849  29.731  0.00  0.00    +0.008 A 
ATOM     21  C   UNL     1      15.883  -7.540  30.768  0.00  0.00    +0.008 A 
ATOM     22  C   UNL     1      13.571  -5.981  30.796  0.00  0.00    +0.038 A 
ATOM     23  C   UNL     1      15.640  -6.672  31.833  0.00  0.00    +0.038 A 
ATOM     24  C   UNL     1      14.483  -5.892  31.846  0.00  0.00    +0.123 A 
ENDBRANCH  18  19
ENDBRANCH   5  18
TORSDOF 3
ENDMDL
MODEL 2
REMARK VINA RESULT:      -3.9     26.960     27.943
REMARK  Name = 75537121
REMARK  3 active torsions:
REMARK  status: ('A' for Active; 'I' for Inactive)
REMARK    1  A    between atoms: N_3  and  C_7
REMARK    2  A    between atoms: N_5  and  C_18
REMARK    3  A    between atoms: C_18  and  C_19
REMARK                            x       y       z     vdW  Elec       q    Type
REMARK                         _______ _______ _______ _____ _____    ______ ____
ROOT
ATOM      2  O   UNL     1      -5.877  -9.624   8.787  0.00  0.00    -0.252 OA
ATOM      3  N   UNL     1      -5.309 -10.380  10.949  0.00  0.00    -0.281 N 
ATOM      4  N   UNL     1      -7.479 -10.117  10.433  0.00  0.00    -0.278 N 
ATOM      5  N   UNL     1      -9.772  -9.823  12.035  0.00  0.00    -0.295 NA
ATOM      6  C   UNL     1      -7.488 -10.699  11.759  0.00  0.00    +0.109 C 
ATOM      8  C   UNL     1      -6.022 -10.657  12.184  0.00  0.00    +0.133 C 
ATOM      9  C   UNL     1      -8.443  -9.929  12.671  0.00  0.00    +0.109 C 
ATOM     12  C   UNL     1      -6.184  -9.997   9.912  0.00  0.00    +0.305 C 
ATOM     13  C   UNL     1      -8.737  -9.832   9.775  0.00  0.00    +0.125 C 
ATOM     14  C   UNL     1      -9.683  -9.115  10.742  0.00  0.00    +0.104 C 
ENDROOT
BRANCH   3   7
ATOM      7  C   UNL     1      -3.868 -10.364  10.885  0.00  0.00    +0.078 C 
ATOM     10  C   UNL     1      -3.266 -10.756  12.236  0.00  0.00    +0.022 C 
ATOM     11  C   UNL     1      -3.360  -8.994  10.425  0.00  0.00    +0.022 C 
ATOM     15  C   UNL     1      -1.741 -10.697  12.211  0.00  0.00    +0.002 C 
ATOM     16  C   UNL     1      -1.836  -8.938  10.403  0.00  0.00    +0.002 C 
ATOM     17  C   UNL     1      -1.238  -9.332  11.751  0.00  0.00    +0.000 C 
ENDBRANCH   3   7
BRANCH   5  18
ATOM     18  C   UNL     1     -10.711  -9.142  12.926  0.00  0.00    +0.119 C 
BRANCH  18  19
ATOM      1  F   UNL     1      -9.353  -9.847  18.349  0.00  0.00    -0.205 F 
ATOM     19  C   UNL     1     -10.348  -9.330  14.374  0.00  0.00    -0.033 A 
ATOM     20  C   UNL     1     -10.360 -10.607  14.936  0.00  0.00    +0.008 A 
ATOM     21  C   UNL     1     -10.000  -8.228  15.155  0.00  0.00    +0.008 A 
ATOM     22  C   UNL     1     -10.024 -10.781  16.279  0.00  0.00    +0.038 A 
ATOM     23  C   UNL     1      -9.665  -8.402  16.498  0.00  0.00    +0.038 A 
ATOM     24  C   UNL     1      -9.676  -9.679  17.060  0.00  0.00    +0.123 A 
ENDBRANCH  18  19
ENDBRANCH   5  18
TORSDOF 3
ENDMDL
MODEL 3
REMARK VINA RESULT:      -3.5      1.421      2.122
REMARK  Name = 75537121
REMARK  3 active torsions:
REMARK  status: ('A' for Active; 'I' for Inactive)
REMARK    1  A    between atoms: N_3  and  C_7
REMARK    2  A    between atoms: N_5  and  C_18
REMARK    3  A    between atoms: C_18  and  C_19
REMARK                            x       y       z     vdW  Elec       q    Type
REMARK                         _______ _______ _______ _____ _____    ______ ____
ROOT
ATOM      2  O   UNL     1      16.679  -7.650  24.913  0.00  0.00    -0.252 OA
ATOM      3  N   UNL     1      17.187  -5.916  26.430  0.00  0.00    -0.281 N 
ATOM      4  N   UNL     1      16.668  -7.943  27.243  0.00  0.00    -0.278 N 
ATOM      5  N   UNL     1      15.788  -8.785  29.779  0.00  0.00    -0.295 NA
ATOM      6  C   UNL     1      17.039  -7.168  28.409  0.00  0.00    +0.109 C 
ATOM      8  C   UNL     1      17.164  -5.744  27.872  0.00  0.00    +0.133 C 
ATOM      9  C   UNL     1      16.004  -7.347  29.519  0.00  0.00    +0.109 C 
ATOM     12  C   UNL     1      16.829  -7.225  26.051  0.00  0.00    +0.305 C 
ATOM     13  C   UNL     1      16.290  -9.331  27.406  0.00  0.00    +0.125 C 
ATOM     14  C   UNL     1      15.300  -9.473  28.566  0.00  0.00    +0.104 C 
ENDROOT
BRANCH   3   7
ATOM      7  C   UNL     1      17.405  -4.808  25.531  0.00  0.00    +0.078 C 
ATOM     10  C   UNL     1      16.932  -3.499  26.167  0.00  0.00    +0.022 C 
ATOM     11  C   UNL     1      16.715  -5.056  24.187  0.00  0.00    +0.022 C 
ATOM     15  C   UNL     1      17.103  -2.317  25.216  0.00  0.00    +0.002 C 
ATOM     16  C   UNL     1      16.887  -3.873  23.239  0.00  0.00    +0.002 C 
ATOM     17  C   UNL     1      16.417  -2.568  23.876  0.00  0.00    +0.000 C 
ENDBRANCH   3   7
BRANCH   5  18
ATOM     18  C   UNL     1      14.844  -8.968  30.882  0.00  0.00    +0.119 C 
BRANCH  18  19
ATOM      1  F   UNL     1      12.093  -4.204  32.102  0.00  0.00    -0.205 F 
ATOM     19  C   UNL     1      14.109  -7.696  31.208  0.00  0.00    -0.033 A 
ATOM     20  C   UNL     1      12.974  -7.340  30.479  0.00  0.00    +0.008 A 
ATOM     21  C   UNL     1      14.563  -6.872  32.237  0.00  0.00    +0.008 A 
ATOM     22  C   UNL     1      12.293  -6.160  30.782  0.00  0.00    +0.038 A 
ATOM     23  C   UNL     1      13.883  -5.692  32.540  0.00  0.00    +0.038 A 
ATOM     24  C   UNL     1      12.747  -5.337  31.812  0.00  0.00    +0.123 A 
ENDBRANCH  18  19
ENDBRANCH   5  18
TORSDOF 3
ENDMDL
