MODEL 1
REMARK VINA RESULT:       1.1      0.000      0.000
REMARK  Name = 86768988
REMARK  7 active torsions:
REMARK  status: ('A' for Active; 'I' for Inactive)
REMARK    1  A    between atoms: O_1  and  C_10
REMARK    2  A    between atoms: O_2  and  C_12
REMARK    3  A    between atoms: N_4  and  C_8
REMARK    4  A    between atoms: N_4  and  C_13
REMARK    5  A    between atoms: N_5  and  C_21
REMARK    6  A    between atoms: N_7  and  C_23
REMARK    7  A    between atoms: C_9  and  C_14
REMARK                            x       y       z     vdW  Elec       q    Type
REMARK                         _______ _______ _______ _____ _____    ______ ____
ROOT
ATOM      8  C   UNL     1      -3.750   1.949  24.325  0.00  0.00    +0.092 C 
ATOM      9  C   UNL     1      -2.534   2.593  25.059  0.00  0.00    +0.042 C 
ATOM     10  C   UNL     1      -4.485   3.125  23.660  0.00  0.00    +0.160 C 
ATOM     11  C   UNL     1      -2.637   4.108  24.796  0.00  0.00    +0.043 C 
ATOM     12  C   UNL     1      -4.119   4.326  24.527  0.00  0.00    +0.145 C 
ENDROOT
BRANCH   9  14
ATOM      6  N   UNL     1       1.187   2.316  24.377  0.00  0.00    -0.240 NA
ATOM     14  C   UNL     1      -1.195   2.010  24.663  0.00  0.00    -0.024 A 
ATOM     19  C   UNL     1      -1.085   0.693  24.232  0.00  0.00    +0.009 A 
ATOM     20  C   UNL     1      -0.038   2.773  24.718  0.00  0.00    +0.116 A 
ATOM     22  C   UNL     1       0.160   0.185  23.874  0.00  0.00    +0.044 A 
ATOM     23  C   UNL     1       1.255   1.031  23.963  0.00  0.00    +0.121 A 
BRANCH  23   7
ATOM      3  O   UNL     1       4.912  -0.534  22.602  0.00  0.00    -0.377 OA
ATOM      7  N   UNL     1       2.500   0.507  23.598  0.00  0.00    -0.311 N 
ATOM     24  C   UNL     1       3.402   1.353  22.805  0.00  0.00    +0.134 C 
ATOM     25  C   UNL     1       2.653  -0.937  23.392  0.00  0.00    +0.134 C 
ATOM     26  C   UNL     1       4.834   0.849  22.944  0.00  0.00    +0.178 C 
ATOM     27  C   UNL     1       4.126  -1.319  23.498  0.00  0.00    +0.178 C 
ENDBRANCH  23   7
ENDBRANCH   9  14
BRANCH  10   1
ATOM      1  O   UNL     1      -3.977   3.282  22.336  0.00  0.00    -0.388 OA
ATOM     29  H   UNL     1      -3.935   2.399  21.933  0.00  0.00    +0.210 HD
ENDBRANCH  10   1
BRANCH  12   2
ATOM      2  O   UNL     1      -4.350   5.558  23.874  0.00  0.00    -0.389 OA
ATOM     30  H   UNL     1      -4.627   5.358  22.964  0.00  0.00    +0.210 HD
ENDBRANCH  12   2
BRANCH   8   4
ATOM      4  N   UNL     1      -4.627   1.303  25.304  0.00  0.00    -0.307 NA
ATOM     28  H   UNL     1      -5.587   1.625  25.187  0.00  0.00    +0.123 HD
BRANCH   4  13
ATOM      5  N   UNL     1      -3.109  -2.560  24.385  0.00  0.00    -0.305 NA
ATOM     13  C   UNL     1      -4.576  -0.151  25.165  0.00  0.00    +0.056 C 
ATOM     15  C   UNL     1      -4.391  -0.556  23.700  0.00  0.00    +0.034 C 
ATOM     16  C   UNL     1      -3.439  -0.725  26.013  0.00  0.00    +0.034 C 
ATOM     17  C   UNL     1      -4.228  -2.073  23.567  0.00  0.00    +0.085 C 
ATOM     18  C   UNL     1      -3.307  -2.236  25.806  0.00  0.00    +0.085 C 
ATOM     21  C   UNL     1      -2.935  -4.001  24.209  0.00  0.00    +0.104 C 
ENDBRANCH   4  13
ENDBRANCH   8   4
TORSDOF 6
ENDMDL
MODEL 2
REMARK VINA RESULT:       1.3      2.506      4.559
REMARK  Name = 86768988
REMARK  7 active torsions:
REMARK  status: ('A' for Active; 'I' for Inactive)
REMARK    1  A    between atoms: O_1  and  C_10
REMARK    2  A    between atoms: O_2  and  C_12
REMARK    3  A    between atoms: N_4  and  C_8
REMARK    4  A    between atoms: N_4  and  C_13
REMARK    5  A    between atoms: N_5  and  C_21
REMARK    6  A    between atoms: N_7  and  C_23
REMARK    7  A    between atoms: C_9  and  C_14
REMARK                            x       y       z     vdW  Elec       q    Type
REMARK                         _______ _______ _______ _____ _____    ______ ____
ROOT
ATOM      8  C   UNL     1      -3.124  -0.196  25.322  0.00  0.00    +0.092 C 
ATOM      9  C   UNL     1      -2.585  -0.178  23.858  0.00  0.00    +0.042 C 
ATOM     10  C   UNL     1      -4.039  -1.429  25.397  0.00  0.00    +0.160 C 
ATOM     11  C   UNL     1      -3.230  -1.390  23.157  0.00  0.00    +0.043 C 
ATOM     12  C   UNL     1      -4.502  -1.633  23.957  0.00  0.00    +0.145 C 
ENDROOT
BRANCH   9  14
ATOM      6  N   UNL     1       1.034  -1.260  24.205  0.00  0.00    -0.240 NA
ATOM     14  C   UNL     1      -1.075  -0.165  23.756  0.00  0.00    -0.024 A 
ATOM     19  C   UNL     1      -0.406   0.895  23.156  0.00  0.00    +0.009 A 
ATOM     20  C   UNL     1      -0.316  -1.209  24.260  0.00  0.00    +0.116 A 
ATOM     22  C   UNL     1       0.983   0.880  23.078  0.00  0.00    +0.044 A 
ATOM     23  C   UNL     1       1.649  -0.211  23.613  0.00  0.00    +0.121 A 
BRANCH  23   7
ATOM      3  O   UNL     1       5.821  -0.285  23.093  0.00  0.00    -0.377 OA
ATOM      7  N   UNL     1       3.046  -0.213  23.529  0.00  0.00    -0.311 N 
ATOM     24  C   UNL     1       3.691   0.799  22.681  0.00  0.00    +0.134 C 
ATOM     25  C   UNL     1       3.786  -1.472  23.674  0.00  0.00    +0.134 C 
ATOM     26  C   UNL     1       5.146   0.972  23.103  0.00  0.00    +0.178 C 
ATOM     27  C   UNL     1       5.236  -1.177  24.041  0.00  0.00    +0.178 C 
ENDBRANCH  23   7
ENDBRANCH   9  14
BRANCH  10   1
ATOM      1  O   UNL     1      -3.262  -2.541  25.841  0.00  0.00    -0.388 OA
ATOM     29  H   UNL     1      -2.760  -2.251  26.621  0.00  0.00    +0.210 HD
ENDBRANCH  10   1
BRANCH  12   2
ATOM      2  O   UNL     1      -5.015  -2.930  23.730  0.00  0.00    -0.389 OA
ATOM     30  H   UNL     1      -4.520  -3.313  22.986  0.00  0.00    +0.210 HD
ENDBRANCH  12   2
BRANCH   8   4
ATOM      4  N   UNL     1      -3.902   1.018  25.573  0.00  0.00    -0.307 NA
ATOM     28  H   UNL     1      -4.048   1.146  26.573  0.00  0.00    +0.123 HD
BRANCH   4  13
ATOM      5  N   UNL     1      -2.157   4.890  25.392  0.00  0.00    -0.305 NA
ATOM     13  C   UNL     1      -3.226   2.191  25.022  0.00  0.00    +0.056 C 
ATOM     15  C   UNL     1      -4.129   3.425  25.086  0.00  0.00    +0.034 C 
ATOM     16  C   UNL     1      -1.924   2.457  25.782  0.00  0.00    +0.034 C 
ATOM     17  C   UNL     1      -3.383   4.676  24.612  0.00  0.00    +0.085 C 
ATOM     18  C   UNL     1      -1.249   3.738  25.284  0.00  0.00    +0.085 C 
ATOM     21  C   UNL     1      -1.483   6.114  24.961  0.00  0.00    +0.104 C 
ENDBRANCH   4  13
ENDBRANCH   8   4
TORSDOF 6
ENDMDL
MODEL 3
REMARK VINA RESULT:       4.1      2.623      4.718
REMARK  Name = 86768988
REMARK  7 active torsions:
REMARK  status: ('A' for Active; 'I' for Inactive)
REMARK    1  A    between atoms: O_1  and  C_10
REMARK    2  A    between atoms: O_2  and  C_12
REMARK    3  A    between atoms: N_4  and  C_8
REMARK    4  A    between atoms: N_4  and  C_13
REMARK    5  A    between atoms: N_5  and  C_21
REMARK    6  A    between atoms: N_7  and  C_23
REMARK    7  A    between atoms: C_9  and  C_14
REMARK                            x       y       z     vdW  Elec       q    Type
REMARK                         _______ _______ _______ _____ _____    ______ ____
ROOT
ATOM      8  C   UNL     1      -2.779  -0.323  24.645  0.00  0.00    +0.092 C 
ATOM      9  C   UNL     1      -2.014  -1.218  23.620  0.00  0.00    +0.042 C 
ATOM     10  C   UNL     1      -3.542  -1.309  25.545  0.00  0.00    +0.160 C 
ATOM     11  C   UNL     1      -2.388  -2.671  23.969  0.00  0.00    +0.043 C 
ATOM     12  C   UNL     1      -3.735  -2.539  24.664  0.00  0.00    +0.145 C 
ENDROOT
BRANCH   9  14
ATOM      6  N   UNL     1       1.667  -1.451  24.502  0.00  0.00    -0.240 NA
ATOM     14  C   UNL     1      -0.520  -0.978  23.586  0.00  0.00    -0.024 A 
ATOM     19  C   UNL     1       0.046  -0.106  22.664  0.00  0.00    +0.009 A 
ATOM     20  C   UNL     1       0.327  -1.620  24.476  0.00  0.00    +0.116 A 
ATOM     22  C   UNL     1       1.423   0.095  22.658  0.00  0.00    +0.044 A 
ATOM     23  C   UNL     1       2.182  -0.596  23.590  0.00  0.00    +0.121 A 
BRANCH  23   7
ATOM      3  O   UNL     1       6.337  -0.034  23.274  0.00  0.00    -0.377 OA
ATOM      7  N   UNL     1       3.565  -0.383  23.574  0.00  0.00    -0.311 N 
ATOM     24  C   UNL     1       4.090   0.702  22.734  0.00  0.00    +0.134 C 
ATOM     25  C   UNL     1       4.480  -1.510  23.784  0.00  0.00    +0.134 C 
ATOM     26  C   UNL     1       5.477   1.104  23.221  0.00  0.00    +0.178 C 
ATOM     27  C   UNL     1       5.847  -0.990  24.213  0.00  0.00    +0.178 C 
ENDBRANCH  23   7
ENDBRANCH   9  14
BRANCH  10   1
ATOM      1  O   UNL     1      -2.722  -1.617  26.671  0.00  0.00    -0.388 OA
ATOM     29  H   UNL     1      -3.209  -2.257  27.219  0.00  0.00    +0.210 HD
ENDBRANCH  10   1
BRANCH  12   2
ATOM      2  O   UNL     1      -4.048  -3.698  25.410  0.00  0.00    -0.389 OA
ATOM     30  H   UNL     1      -3.398  -3.766  26.129  0.00  0.00    +0.210 HD
ENDBRANCH  12   2
BRANCH   8   4
ATOM      4  N   UNL     1      -3.726   0.537  23.933  0.00  0.00    -0.307 NA
ATOM     28  H   UNL     1      -4.556   0.009  23.668  0.00  0.00    +0.123 HD
BRANCH   4  13
ATOM      5  N   UNL     1      -5.668   4.134  25.101  0.00  0.00    -0.305 NA
ATOM     13  C   UNL     1      -4.114   1.677  24.761  0.00  0.00    +0.056 C 
ATOM     15  C   UNL     1      -3.708   2.998  24.101  0.00  0.00    +0.034 C 
ATOM     16  C   UNL     1      -5.624   1.660  25.011  0.00  0.00    +0.034 C 
ATOM     17  C   UNL     1      -4.212   4.194  24.914  0.00  0.00    +0.085 C 
ATOM     18  C   UNL     1      -6.065   2.900  25.794  0.00  0.00    +0.085 C 
ATOM     21  C   UNL     1      -6.139   5.307  25.834  0.00  0.00    +0.104 C 
ENDBRANCH   4  13
ENDBRANCH   8   4
TORSDOF 6
ENDMDL
