MODEL 1
REMARK VINA RESULT:      -6.0      0.000      0.000
REMARK  Name = 51137889
REMARK  6 active torsions:
REMARK  status: ('A' for Active; 'I' for Inactive)
REMARK    1  A    between atoms: N_1  and  C_9
REMARK    2  A    between atoms: N_2  and  C_14
REMARK    3  A    between atoms: C_4  and  C_8
REMARK    4  A    between atoms: C_9  and  C_10
REMARK    5  A    between atoms: C_10  and  C_12
REMARK    6  A    between atoms: C_12  and  C_16
REMARK                            x       y       z     vdW  Elec       q    Type
REMARK                         _______ _______ _______ _____ _____    ______ ____
ROOT
ATOM      1  N   UNL     1      -0.372   4.229  25.157  0.00  0.00    -0.302 NA
ATOM      4  C   UNL     1      -0.164   1.901  25.350  0.00  0.00    +0.070 C 
ATOM      5  C   UNL     1      -1.038   3.084  25.783  0.00  0.00    +0.095 C 
ATOM      6  C   UNL     1       0.515   2.372  24.052  0.00  0.00    +0.028 C 
ATOM      7  C   UNL     1      -0.030   3.774  23.810  0.00  0.00    +0.085 C 
ENDROOT
BRANCH   4   8
ATOM      2  N   UNL     1      -0.563  -0.387  24.371  0.00  0.00    -0.330 N 
ATOM      3  N   UNL     1      -2.027   0.297  25.896  0.00  0.00    -0.232 NA
ATOM      8  C   UNL     1      -0.940   0.609  25.227  0.00  0.00    +0.115 A 
ATOM     11  C   UNL     1      -1.466  -1.413  24.497  0.00  0.00    +0.069 A 
ATOM     13  C   UNL     1      -2.369  -0.960  25.455  0.00  0.00    +0.089 A 
ATOM     14  C   UNL     1       0.582  -0.370  23.489  0.00  0.00    +0.150 C 
ATOM     15  C   UNL     1      -1.566  -2.656  23.874  0.00  0.00    +0.028 A 
ATOM     17  C   UNL     1      -3.444  -1.787  25.826  0.00  0.00    +0.030 A 
ATOM     18  C   UNL     1      -2.642  -3.466  24.256  0.00  0.00    +0.002 A 
ATOM     19  C   UNL     1      -3.565  -3.041  25.214  0.00  0.00    +0.002 A 
ENDBRANCH   4   8
BRANCH   1   9
ATOM      9  C   UNL     1      -1.207   5.420  25.145  0.00  0.00    +0.085 C 
BRANCH   9  10
ATOM     10  C   UNL     1      -2.633   5.072  25.572  0.00  0.00    +0.020 C 
BRANCH  10  12
ATOM     12  C   UNL     1      -3.474   4.628  24.373  0.00  0.00    +0.036 C 
BRANCH  12  16
ATOM     16  C   UNL     1      -4.288   3.399  24.686  0.00  0.00    -0.047 A 
ATOM     20  C   UNL     1      -4.113   2.236  23.938  0.00  0.00    +0.003 A 
ATOM     21  C   UNL     1      -5.218   3.425  25.727  0.00  0.00    +0.003 A 
ATOM     22  C   UNL     1      -4.866   1.098  24.229  0.00  0.00    +0.000 A 
ATOM     23  C   UNL     1      -5.971   2.288  26.017  0.00  0.00    +0.000 A 
ATOM     24  C   UNL     1      -5.795   1.124  25.269  0.00  0.00    +0.000 A 
ENDBRANCH  12  16
ENDBRANCH  10  12
ENDBRANCH   9  10
ENDBRANCH   1   9
TORSDOF 5
ENDMDL
MODEL 2
REMARK VINA RESULT:      -4.4      1.667      4.084
REMARK  Name = 51137889
REMARK  6 active torsions:
REMARK  status: ('A' for Active; 'I' for Inactive)
REMARK    1  A    between atoms: N_1  and  C_9
REMARK    2  A    between atoms: N_2  and  C_14
REMARK    3  A    between atoms: C_4  and  C_8
REMARK    4  A    between atoms: C_9  and  C_10
REMARK    5  A    between atoms: C_10  and  C_12
REMARK    6  A    between atoms: C_12  and  C_16
REMARK                            x       y       z     vdW  Elec       q    Type
REMARK                         _______ _______ _______ _____ _____    ______ ____
ROOT
ATOM      1  N   UNL     1      -3.158   3.678  25.892  0.00  0.00    -0.302 NA
ATOM      4  C   UNL     1      -0.924   3.073  25.514  0.00  0.00    +0.070 C 
ATOM      5  C   UNL     1      -2.331   2.486  25.689  0.00  0.00    +0.095 C 
ATOM      6  C   UNL     1      -1.160   4.509  25.013  0.00  0.00    +0.028 C 
ATOM      7  C   UNL     1      -2.673   4.644  24.907  0.00  0.00    +0.085 C 
ENDROOT
BRANCH   4   8
ATOM      2  N   UNL     1      -0.554   1.330  23.732  0.00  0.00    -0.330 N 
ATOM      3  N   UNL     1       1.273   2.249  24.601  0.00  0.00    -0.232 NA
ATOM      8  C   UNL     1      -0.040   2.228  24.625  0.00  0.00    +0.115 A 
ATOM     11  C   UNL     1       0.499   0.732  23.087  0.00  0.00    +0.069 A 
ATOM     13  C   UNL     1       1.628   1.323  23.648  0.00  0.00    +0.089 A 
ATOM     14  C   UNL     1      -1.955   1.056  23.502  0.00  0.00    +0.150 C 
ATOM     15  C   UNL     1       0.558  -0.245  22.093  0.00  0.00    +0.028 A 
ATOM     17  C   UNL     1       2.900   0.927  23.201  0.00  0.00    +0.030 A 
ATOM     18  C   UNL     1       1.833  -0.627  21.661  0.00  0.00    +0.002 A 
ATOM     19  C   UNL     1       2.984  -0.053  22.204  0.00  0.00    +0.002 A 
ENDBRANCH   4   8
BRANCH   1   9
ATOM      9  C   UNL     1      -4.578   3.399  25.744  0.00  0.00    +0.085 C 
BRANCH   9  10
ATOM     10  C   UNL     1      -4.806   2.378  24.630  0.00  0.00    +0.020 C 
BRANCH  10  12
ATOM     12  C   UNL     1      -5.550   1.148  25.153  0.00  0.00    +0.036 C 
BRANCH  12  16
ATOM     16  C   UNL     1      -4.720  -0.103  25.025  0.00  0.00    -0.047 A 
ATOM     20  C   UNL     1      -4.837  -0.906  23.891  0.00  0.00    +0.003 A 
ATOM     21  C   UNL     1      -3.834  -0.459  26.042  0.00  0.00    +0.003 A 
ATOM     22  C   UNL     1      -4.068  -2.064  23.772  0.00  0.00    +0.000 A 
ATOM     23  C   UNL     1      -3.065  -1.617  25.924  0.00  0.00    +0.000 A 
ATOM     24  C   UNL     1      -3.182  -2.419  24.789  0.00  0.00    +0.000 A 
ENDBRANCH  12  16
ENDBRANCH  10  12
ENDBRANCH   9  10
ENDBRANCH   1   9
TORSDOF 5
ENDMDL
MODEL 3
REMARK VINA RESULT:      -4.4      1.284      5.152
REMARK  Name = 51137889
REMARK  6 active torsions:
REMARK  status: ('A' for Active; 'I' for Inactive)
REMARK    1  A    between atoms: N_1  and  C_9
REMARK    2  A    between atoms: N_2  and  C_14
REMARK    3  A    between atoms: C_4  and  C_8
REMARK    4  A    between atoms: C_9  and  C_10
REMARK    5  A    between atoms: C_10  and  C_12
REMARK    6  A    between atoms: C_12  and  C_16
REMARK                            x       y       z     vdW  Elec       q    Type
REMARK                         _______ _______ _______ _____ _____    ______ ____
ROOT
ATOM      1  N   UNL     1      -2.187  -2.370  25.058  0.00  0.00    -0.302 NA
ATOM      4  C   UNL     1      -0.945  -0.428  25.489  0.00  0.00    +0.070 C 
ATOM      5  C   UNL     1      -1.698  -1.169  24.377  0.00  0.00    +0.095 C 
ATOM      6  C   UNL     1      -1.586  -0.928  26.795  0.00  0.00    +0.028 C 
ATOM      7  C   UNL     1      -2.676  -1.895  26.353  0.00  0.00    +0.085 C 
ENDROOT
BRANCH   4   8
ATOM      2  N   UNL     1      -0.146   1.706  24.411  0.00  0.00    -0.330 N 
ATOM      3  N   UNL     1      -1.717   1.921  25.967  0.00  0.00    -0.232 NA
ATOM      8  C   UNL     1      -0.958   1.074  25.310  0.00  0.00    +0.115 A 
ATOM     11  C   UNL     1      -0.398   3.052  24.492  0.00  0.00    +0.069 A 
ATOM     13  C   UNL     1      -1.383   3.159  25.471  0.00  0.00    +0.089 A 
ATOM     14  C   UNL     1       0.810   1.075  23.528  0.00  0.00    +0.150 C 
ATOM     15  C   UNL     1       0.134   4.149  23.816  0.00  0.00    +0.028 A 
ATOM     17  C   UNL     1      -1.878   4.432  25.806  0.00  0.00    +0.030 A 
ATOM     18  C   UNL     1      -0.370   5.408  24.162  0.00  0.00    +0.002 A 
ATOM     19  C   UNL     1      -1.358   5.548  25.140  0.00  0.00    +0.002 A 
ENDBRANCH   4   8
BRANCH   1   9
ATOM      9  C   UNL     1      -3.214  -3.062  24.296  0.00  0.00    +0.085 C 
BRANCH   9  10
ATOM     10  C   UNL     1      -4.363  -2.109  23.968  0.00  0.00    +0.020 C 
BRANCH  10  12
ATOM     12  C   UNL     1      -3.862  -0.886  23.197  0.00  0.00    +0.036 C 
BRANCH  12  16
ATOM     16  C   UNL     1      -4.298   0.402  23.847  0.00  0.00    -0.047 A 
ATOM     20  C   UNL     1      -3.916   1.625  23.298  0.00  0.00    +0.003 A 
ATOM     21  C   UNL     1      -5.085   0.370  24.998  0.00  0.00    +0.003 A 
ATOM     22  C   UNL     1      -4.320   2.817  23.900  0.00  0.00    +0.000 A 
ATOM     23  C   UNL     1      -5.490   1.562  25.600  0.00  0.00    +0.000 A 
ATOM     24  C   UNL     1      -5.107   2.785  25.051  0.00  0.00    +0.000 A 
ENDBRANCH  12  16
ENDBRANCH  10  12
ENDBRANCH   9  10
ENDBRANCH   1   9
TORSDOF 5
ENDMDL
MODEL 4
REMARK VINA RESULT:      -4.3      1.323      5.051
REMARK  Name = 51137889
REMARK  6 active torsions:
REMARK  status: ('A' for Active; 'I' for Inactive)
REMARK    1  A    between atoms: N_1  and  C_9
REMARK    2  A    between atoms: N_2  and  C_14
REMARK    3  A    between atoms: C_4  and  C_8
REMARK    4  A    between atoms: C_9  and  C_10
REMARK    5  A    between atoms: C_10  and  C_12
REMARK    6  A    between atoms: C_12  and  C_16
REMARK                            x       y       z     vdW  Elec       q    Type
REMARK                         _______ _______ _______ _____ _____    ______ ____
ROOT
ATOM      1  N   UNL     1       1.022   1.437  23.480  0.00  0.00    -0.302 NA
ATOM      4  C   UNL     1      -0.869   2.746  23.939  0.00  0.00    +0.070 C 
ATOM      5  C   UNL     1      -0.395   1.539  23.120  0.00  0.00    +0.095 C 
ATOM      6  C   UNL     1       0.109   2.822  25.124  0.00  0.00    +0.028 C 
ATOM      7  C   UNL     1       1.058   1.647  24.927  0.00  0.00    +0.085 C 
ENDROOT
BRANCH   4   8
ATOM      2  N   UNL     1      -2.963   3.663  25.002  0.00  0.00    -0.330 N 
ATOM      3  N   UNL     1      -3.133   1.651  24.073  0.00  0.00    -0.232 NA
ATOM      8  C   UNL     1      -2.328   2.658  24.326  0.00  0.00    +0.115 A 
ATOM     11  C   UNL     1      -4.265   3.279  25.197  0.00  0.00    +0.069 A 
ATOM     13  C   UNL     1      -4.346   2.019  24.609  0.00  0.00    +0.089 A 
ATOM     14  C   UNL     1      -2.373   4.910  25.434  0.00  0.00    +0.150 C 
ATOM     15  C   UNL     1      -5.345   3.905  25.820  0.00  0.00    +0.028 A 
ATOM     17  C   UNL     1      -5.570   1.329  24.634  0.00  0.00    +0.030 A 
ATOM     18  C   UNL     1      -6.556   3.203  25.835  0.00  0.00    +0.002 A 
ATOM     19  C   UNL     1      -6.668   1.939  25.254  0.00  0.00    +0.002 A 
ENDBRANCH   4   8
BRANCH   1   9
ATOM      9  C   UNL     1       1.604   0.162  23.090  0.00  0.00    +0.085 C 
BRANCH   9  10
ATOM     10  C   UNL     1       0.541  -0.936  23.113  0.00  0.00    +0.020 C 
BRANCH  10  12
ATOM     12  C   UNL     1       0.328  -1.467  24.533  0.00  0.00    +0.036 C 
BRANCH  12  16
ATOM     16  C   UNL     1      -1.135  -1.602  24.865  0.00  0.00    -0.047 A 
ATOM     20  C   UNL     1      -1.938  -2.478  24.135  0.00  0.00    +0.003 A 
ATOM     21  C   UNL     1      -1.687  -0.852  25.904  0.00  0.00    +0.003 A 
ATOM     22  C   UNL     1      -3.294  -2.604  24.443  0.00  0.00    +0.000 A 
ATOM     23  C   UNL     1      -3.042  -0.979  26.212  0.00  0.00    +0.000 A 
ATOM     24  C   UNL     1      -3.845  -1.854  25.482  0.00  0.00    +0.000 A 
ENDBRANCH  12  16
ENDBRANCH  10  12
ENDBRANCH   9  10
ENDBRANCH   1   9
TORSDOF 5
ENDMDL
MODEL 5
REMARK VINA RESULT:      -4.1     15.061     18.131
REMARK  Name = 51137889
REMARK  6 active torsions:
REMARK  status: ('A' for Active; 'I' for Inactive)
REMARK    1  A    between atoms: N_1  and  C_9
REMARK    2  A    between atoms: N_2  and  C_14
REMARK    3  A    between atoms: C_4  and  C_8
REMARK    4  A    between atoms: C_9  and  C_10
REMARK    5  A    between atoms: C_10  and  C_12
REMARK    6  A    between atoms: C_12  and  C_16
REMARK                            x       y       z     vdW  Elec       q    Type
REMARK                         _______ _______ _______ _____ _____    ______ ____
ROOT
ATOM      1  N   UNL     1      -2.807 -10.433  11.550  0.00  0.00    -0.302 NA
ATOM      4  C   UNL     1      -4.351 -10.395   9.784  0.00  0.00    +0.070 C 
ATOM      5  C   UNL     1      -4.200 -10.781  11.261  0.00  0.00    +0.095 C 
ATOM      6  C   UNL     1      -3.277  -9.318   9.552  0.00  0.00    +0.028 C 
ATOM      7  C   UNL     1      -2.603  -9.136  10.905  0.00  0.00    +0.085 C 
ENDROOT
BRANCH   4   8
ATOM      2  N   UNL     1      -6.216  -8.706   9.642  0.00  0.00    -0.330 N 
ATOM      3  N   UNL     1      -6.677 -10.744   8.886  0.00  0.00    -0.232 NA
ATOM      8  C   UNL     1      -5.758  -9.976   9.426  0.00  0.00    +0.115 A 
ATOM     11  C   UNL     1      -7.517  -8.651   9.212  0.00  0.00    +0.069 A 
ATOM     13  C   UNL     1      -7.781  -9.936   8.745  0.00  0.00    +0.089 A 
ATOM     14  C   UNL     1      -5.466  -7.613  10.219  0.00  0.00    +0.150 C 
ATOM     15  C   UNL     1      -8.457  -7.620   9.193  0.00  0.00    +0.028 A 
ATOM     17  C   UNL     1      -9.054 -10.227   8.224  0.00  0.00    +0.030 A 
ATOM     18  C   UNL     1      -9.718  -7.928   8.671  0.00  0.00    +0.002 A 
ATOM     19  C   UNL     1     -10.013  -9.207   8.196  0.00  0.00    +0.002 A 
ENDBRANCH   4   8
BRANCH   1   9
ATOM      9  C   UNL     1      -2.528 -10.394  12.977  0.00  0.00    +0.085 C 
BRANCH   9  10
ATOM     10  C   UNL     1      -3.805 -10.654  13.774  0.00  0.00    +0.020 C 
BRANCH  10  12
ATOM     12  C   UNL     1      -3.567 -10.466  15.274  0.00  0.00    +0.036 C 
BRANCH  12  16
ATOM     16  C   UNL     1      -4.862 -10.347  16.035  0.00  0.00    -0.047 A 
ATOM     20  C   UNL     1      -6.034  -9.995  15.367  0.00  0.00    +0.003 A 
ATOM     21  C   UNL     1      -4.889 -10.589  17.409  0.00  0.00    +0.003 A 
ATOM     22  C   UNL     1      -7.233  -9.885  16.071  0.00  0.00    +0.000 A 
ATOM     23  C   UNL     1      -6.087 -10.480  18.113  0.00  0.00    +0.000 A 
ATOM     24  C   UNL     1      -7.260 -10.128  17.445  0.00  0.00    +0.000 A 
ENDBRANCH  12  16
ENDBRANCH  10  12
ENDBRANCH   9  10
ENDBRANCH   1   9
TORSDOF 5
ENDMDL
MODEL 6
REMARK VINA RESULT:      -3.6      1.523      4.298
REMARK  Name = 51137889
REMARK  6 active torsions:
REMARK  status: ('A' for Active; 'I' for Inactive)
REMARK    1  A    between atoms: N_1  and  C_9
REMARK    2  A    between atoms: N_2  and  C_14
REMARK    3  A    between atoms: C_4  and  C_8
REMARK    4  A    between atoms: C_9  and  C_10
REMARK    5  A    between atoms: C_10  and  C_12
REMARK    6  A    between atoms: C_12  and  C_16
REMARK                            x       y       z     vdW  Elec       q    Type
REMARK                         _______ _______ _______ _____ _____    ______ ____
ROOT
ATOM      1  N   UNL     1      -4.788   3.539  25.637  0.00  0.00    -0.302 NA
ATOM      4  C   UNL     1      -2.493   3.393  25.181  0.00  0.00    +0.070 C 
ATOM      5  C   UNL     1      -3.645   2.655  25.875  0.00  0.00    +0.095 C 
ATOM      6  C   UNL     1      -3.176   4.263  24.110  0.00  0.00    +0.028 C 
ATOM      7  C   UNL     1      -4.660   3.951  24.239  0.00  0.00    +0.085 C 
ENDROOT
BRANCH   4   8
ATOM      2  N   UNL     1      -0.193   2.904  24.273  0.00  0.00    -0.330 N 
ATOM      3  N   UNL     1      -1.549   1.159  24.501  0.00  0.00    -0.232 NA
ATOM      8  C   UNL     1      -1.428   2.458  24.654  0.00  0.00    +0.115 A 
ATOM     11  C   UNL     1       0.531   1.819  23.847  0.00  0.00    +0.069 A 
ATOM     13  C   UNL     1      -0.338   0.743  24.000  0.00  0.00    +0.089 A 
ATOM     14  C   UNL     1       0.273   4.272  24.311  0.00  0.00    +0.150 C 
ATOM     15  C   UNL     1       1.831   1.693  23.357  0.00  0.00    +0.028 A 
ATOM     17  C   UNL     1       0.099  -0.545  23.647  0.00  0.00    +0.030 A 
ATOM     18  C   UNL     1       2.250   0.403  23.011  0.00  0.00    +0.002 A 
ATOM     19  C   UNL     1       1.401  -0.697  23.152  0.00  0.00    +0.002 A 
ENDBRANCH   4   8
BRANCH   1   9
ATOM      9  C   UNL     1      -6.060   2.887  25.909  0.00  0.00    +0.085 C 
BRANCH   9  10
ATOM     10  C   UNL     1      -5.883   1.369  25.938  0.00  0.00    +0.020 C 
BRANCH  10  12
ATOM     12  C   UNL     1      -5.379   0.846  24.591  0.00  0.00    +0.036 C 
BRANCH  12  16
ATOM     16  C   UNL     1      -4.564  -0.411  24.748  0.00  0.00    -0.047 A 
ATOM     20  C   UNL     1      -4.532  -1.355  23.723  0.00  0.00    +0.003 A 
ATOM     21  C   UNL     1      -3.840  -0.630  25.921  0.00  0.00    +0.003 A 
ATOM     22  C   UNL     1      -3.777  -2.519  23.869  0.00  0.00    +0.000 A 
ATOM     23  C   UNL     1      -3.085  -1.793  26.067  0.00  0.00    +0.000 A 
ATOM     24  C   UNL     1      -3.053  -2.738  25.041  0.00  0.00    +0.000 A 
ENDBRANCH  12  16
ENDBRANCH  10  12
ENDBRANCH   9  10
ENDBRANCH   1   9
TORSDOF 5
ENDMDL
MODEL 7
REMARK VINA RESULT:      -3.4      1.653      4.185
REMARK  Name = 51137889
REMARK  6 active torsions:
REMARK  status: ('A' for Active; 'I' for Inactive)
REMARK    1  A    between atoms: N_1  and  C_9
REMARK    2  A    between atoms: N_2  and  C_14
REMARK    3  A    between atoms: C_4  and  C_8
REMARK    4  A    between atoms: C_9  and  C_10
REMARK    5  A    between atoms: C_10  and  C_12
REMARK    6  A    between atoms: C_12  and  C_16
REMARK                            x       y       z     vdW  Elec       q    Type
REMARK                         _______ _______ _______ _____ _____    ______ ____
ROOT
ATOM      1  N   UNL     1      -6.009   3.025  25.199  0.00  0.00    -0.302 NA
ATOM      4  C   UNL     1      -4.882   1.083  24.520  0.00  0.00    +0.070 C 
ATOM      5  C   UNL     1      -4.804   2.615  24.474  0.00  0.00    +0.095 C 
ATOM      6  C   UNL     1      -5.739   0.774  25.761  0.00  0.00    +0.028 C 
ATOM      7  C   UNL     1      -6.072   2.134  26.358  0.00  0.00    +0.085 C 
ENDROOT
BRANCH   4   8
ATOM      2  N   UNL     1      -2.514   0.851  23.688  0.00  0.00    -0.330 N 
ATOM      3  N   UNL     1      -3.154  -0.597  25.248  0.00  0.00    -0.232 NA
ATOM      8  C   UNL     1      -3.522   0.424  24.508  0.00  0.00    +0.115 A 
ATOM     11  C   UNL     1      -1.422   0.053  23.917  0.00  0.00    +0.069 A 
ATOM     13  C   UNL     1      -1.847  -0.843  24.895  0.00  0.00    +0.089 A 
ATOM     14  C   UNL     1      -2.581   1.947  22.749  0.00  0.00    +0.150 C 
ATOM     15  C   UNL     1      -0.140   0.038  23.368  0.00  0.00    +0.028 A 
ATOM     17  C   UNL     1      -0.952  -1.818  25.365  0.00  0.00    +0.030 A 
ATOM     18  C   UNL     1       0.739  -0.940  23.849  0.00  0.00    +0.002 A 
ATOM     19  C   UNL     1       0.342  -1.852  24.829  0.00  0.00    +0.002 A 
ENDBRANCH   4   8
BRANCH   1   9
ATOM      9  C   UNL     1      -5.979   4.428  25.579  0.00  0.00    +0.085 C 
BRANCH   9  10
ATOM     10  C   UNL     1      -4.573   4.999  25.389  0.00  0.00    +0.020 C 
BRANCH  10  12
ATOM     12  C   UNL     1      -3.632   4.529  26.500  0.00  0.00    +0.036 C 
BRANCH  12  16
ATOM     16  C   UNL     1      -2.278   4.146  25.961  0.00  0.00    -0.047 A 
ATOM     20  C   UNL     1      -1.651   4.954  25.013  0.00  0.00    +0.003 A 
ATOM     21  C   UNL     1      -1.651   2.984  26.410  0.00  0.00    +0.003 A 
ATOM     22  C   UNL     1      -0.397   4.601  24.514  0.00  0.00    +0.000 A 
ATOM     23  C   UNL     1      -0.398   2.630  25.911  0.00  0.00    +0.000 A 
ATOM     24  C   UNL     1       0.230   3.438  24.964  0.00  0.00    +0.000 A 
ENDBRANCH  12  16
ENDBRANCH  10  12
ENDBRANCH   9  10
ENDBRANCH   1   9
TORSDOF 5
ENDMDL
MODEL 8
REMARK VINA RESULT:      -3.2      1.705      5.875
REMARK  Name = 51137889
REMARK  6 active torsions:
REMARK  status: ('A' for Active; 'I' for Inactive)
REMARK    1  A    between atoms: N_1  and  C_9
REMARK    2  A    between atoms: N_2  and  C_14
REMARK    3  A    between atoms: C_4  and  C_8
REMARK    4  A    between atoms: C_9  and  C_10
REMARK    5  A    between atoms: C_10  and  C_12
REMARK    6  A    between atoms: C_12  and  C_16
REMARK                            x       y       z     vdW  Elec       q    Type
REMARK                         _______ _______ _______ _____ _____    ______ ____
ROOT
ATOM      1  N   UNL     1      -2.525  -2.465  24.927  0.00  0.00    -0.302 NA
ATOM      4  C   UNL     1      -4.257  -0.902  25.162  0.00  0.00    +0.070 C 
ATOM      5  C   UNL     1      -2.827  -1.211  25.621  0.00  0.00    +0.095 C 
ATOM      6  C   UNL     1      -4.399  -1.629  23.812  0.00  0.00    +0.028 C 
ATOM      7  C   UNL     1      -3.044  -2.280  23.572  0.00  0.00    +0.085 C 
ENDROOT
BRANCH   4   8
ATOM      2  N   UNL     1      -3.939   1.420  24.234  0.00  0.00    -0.330 N 
ATOM      3  N   UNL     1      -5.404   1.218  25.892  0.00  0.00    -0.232 NA
ATOM      8  C   UNL     1      -4.555   0.580  25.119  0.00  0.00    +0.115 A 
ATOM     11  C   UNL     1      -4.424   2.685  24.450  0.00  0.00    +0.069 A 
ATOM     13  C   UNL     1      -5.337   2.531  25.490  0.00  0.00    +0.089 A 
ATOM     14  C   UNL     1      -2.953   1.047  23.244  0.00  0.00    +0.150 C 
ATOM     15  C   UNL     1      -4.150   3.911  23.844  0.00  0.00    +0.028 A 
ATOM     17  C   UNL     1      -6.027   3.659  25.966  0.00  0.00    +0.030 A 
ATOM     18  C   UNL     1      -4.847   5.023  24.331  0.00  0.00    +0.002 A 
ATOM     19  C   UNL     1      -5.768   4.901  25.373  0.00  0.00    +0.002 A 
ENDBRANCH   4   8
BRANCH   1   9
ATOM      9  C   UNL     1      -1.105  -2.779  24.939  0.00  0.00    +0.085 C 
BRANCH   9  10
ATOM     10  C   UNL     1      -0.302  -1.584  25.452  0.00  0.00    +0.020 C 
BRANCH  10  12
ATOM     12  C   UNL     1       0.113  -0.663  24.302  0.00  0.00    +0.036 C 
BRANCH  12  16
ATOM     16  C   UNL     1      -0.112   0.788  24.640  0.00  0.00    -0.047 A 
ATOM     20  C   UNL     1       0.254   1.780  23.731  0.00  0.00    +0.003 A 
ATOM     21  C   UNL     1      -0.688   1.139  25.861  0.00  0.00    +0.003 A 
ATOM     22  C   UNL     1       0.045   3.124  24.044  0.00  0.00    +0.000 A 
ATOM     23  C   UNL     1      -0.897   2.482  26.173  0.00  0.00    +0.000 A 
ATOM     24  C   UNL     1      -0.531   3.474  25.265  0.00  0.00    +0.000 A 
ENDBRANCH  12  16
ENDBRANCH  10  12
ENDBRANCH   9  10
ENDBRANCH   1   9
TORSDOF 5
ENDMDL
MODEL 9
REMARK VINA RESULT:      -3.2      1.453      3.763
REMARK  Name = 51137889
REMARK  6 active torsions:
REMARK  status: ('A' for Active; 'I' for Inactive)
REMARK    1  A    between atoms: N_1  and  C_9
REMARK    2  A    between atoms: N_2  and  C_14
REMARK    3  A    between atoms: C_4  and  C_8
REMARK    4  A    between atoms: C_9  and  C_10
REMARK    5  A    between atoms: C_10  and  C_12
REMARK    6  A    between atoms: C_12  and  C_16
REMARK                            x       y       z     vdW  Elec       q    Type
REMARK                         _______ _______ _______ _____ _____    ______ ____
ROOT
ATOM      1  N   UNL     1      -4.607   4.363  24.554  0.00  0.00    -0.302 NA
ATOM      4  C   UNL     1      -4.905   2.039  24.440  0.00  0.00    +0.070 C 
ATOM      5  C   UNL     1      -4.016   3.179  23.926  0.00  0.00    +0.095 C 
ATOM      6  C   UNL     1      -5.494   2.569  25.759  0.00  0.00    +0.028 C 
ATOM      7  C   UNL     1      -4.889   3.956  25.931  0.00  0.00    +0.085 C 
ENDROOT
BRANCH   4   8
ATOM      2  N   UNL     1      -3.093   0.421  23.769  0.00  0.00    -0.330 N 
ATOM      3  N   UNL     1      -4.456  -0.248  25.392  0.00  0.00    -0.232 NA
ATOM      8  C   UNL     1      -4.168   0.724  24.557  0.00  0.00    +0.115 A 
ATOM     11  C   UNL     1      -2.657  -0.832  24.120  0.00  0.00    +0.069 A 
ATOM     13  C   UNL     1      -3.524  -1.227  25.135  0.00  0.00    +0.089 A 
ATOM     14  C   UNL     1      -2.514   1.265  22.748  0.00  0.00    +0.150 C 
ATOM     15  C   UNL     1      -1.612  -1.627  23.651  0.00  0.00    +0.028 A 
ATOM     17  C   UNL     1      -3.352  -2.489  25.729  0.00  0.00    +0.030 A 
ATOM     18  C   UNL     1      -1.455  -2.880  24.254  0.00  0.00    +0.002 A 
ATOM     19  C   UNL     1      -2.308  -3.305  25.274  0.00  0.00    +0.002 A 
ENDBRANCH   4   8
BRANCH   1   9
ATOM      9  C   UNL     1      -3.732   5.523  24.486  0.00  0.00    +0.085 C 
BRANCH   9  10
ATOM     10  C   UNL     1      -2.665   5.447  25.577  0.00  0.00    +0.020 C 
BRANCH  10  12
ATOM     12  C   UNL     1      -1.265   5.313  24.972  0.00  0.00    +0.036 C 
BRANCH  12  16
ATOM     16  C   UNL     1      -0.773   3.890  25.013  0.00  0.00    -0.047 A 
ATOM     20  C   UNL     1      -1.189   3.036  26.034  0.00  0.00    +0.003 A 
ATOM     21  C   UNL     1       0.100   3.425  24.029  0.00  0.00    +0.003 A 
ATOM     22  C   UNL     1      -0.733   1.718  26.072  0.00  0.00    +0.000 A 
ATOM     23  C   UNL     1       0.555   2.107  24.066  0.00  0.00    +0.000 A 
ATOM     24  C   UNL     1       0.139   1.254  25.087  0.00  0.00    +0.000 A 
ENDBRANCH  12  16
ENDBRANCH  10  12
ENDBRANCH   9  10
ENDBRANCH   1   9
TORSDOF 5
ENDMDL
MODEL 10
REMARK VINA RESULT:      -3.0      1.526      4.338
REMARK  Name = 51137889
REMARK  6 active torsions:
REMARK  status: ('A' for Active; 'I' for Inactive)
REMARK    1  A    between atoms: N_1  and  C_9
REMARK    2  A    between atoms: N_2  and  C_14
REMARK    3  A    between atoms: C_4  and  C_8
REMARK    4  A    between atoms: C_9  and  C_10
REMARK    5  A    between atoms: C_10  and  C_12
REMARK    6  A    between atoms: C_12  and  C_16
REMARK                            x       y       z     vdW  Elec       q    Type
REMARK                         _______ _______ _______ _____ _____    ______ ____
ROOT
ATOM      1  N   UNL     1      -5.887   2.844  25.087  0.00  0.00    -0.302 NA
ATOM      4  C   UNL     1      -4.559   1.114  24.225  0.00  0.00    +0.070 C 
ATOM      5  C   UNL     1      -4.684   2.642  24.276  0.00  0.00    +0.095 C 
ATOM      6  C   UNL     1      -5.293   0.621  25.485  0.00  0.00    +0.028 C 
ATOM      7  C   UNL     1      -5.764   1.887  26.187  0.00  0.00    +0.085 C 
ENDROOT
BRANCH   4   8
ATOM      2  N   UNL     1      -2.656  -0.441  24.784  0.00  0.00    -0.330 N 
ATOM      3  N   UNL     1      -2.198   1.195  23.352  0.00  0.00    -0.232 NA
ATOM      8  C   UNL     1      -3.127   0.644  24.100  0.00  0.00    +0.115 A 
ATOM     11  C   UNL     1      -1.334  -0.602  24.455  0.00  0.00    +0.069 A 
ATOM     13  C   UNL     1      -1.073   0.432  23.560  0.00  0.00    +0.089 A 
ATOM     14  C   UNL     1      -3.411  -1.275  25.693  0.00  0.00    +0.150 C 
ATOM     15  C   UNL     1      -0.375  -1.533  24.853  0.00  0.00    +0.028 A 
ATOM     17  C   UNL     1       0.218   0.558  23.019  0.00  0.00    +0.030 A 
ATOM     18  C   UNL     1       0.905  -1.392  24.303  0.00  0.00    +0.002 A 
ATOM     19  C   UNL     1       1.198  -0.366  23.403  0.00  0.00    +0.002 A 
ENDBRANCH   4   8
BRANCH   1   9
ATOM      9  C   UNL     1      -6.016   4.215  25.557  0.00  0.00    +0.085 C 
BRANCH   9  10
ATOM     10  C   UNL     1      -4.678   4.944  25.441  0.00  0.00    +0.020 C 
BRANCH  10  12
ATOM     12  C   UNL     1      -3.720   4.520  26.556  0.00  0.00    +0.036 C 
BRANCH  12  16
ATOM     16  C   UNL     1      -2.350   4.193  26.022  0.00  0.00    -0.047 A 
ATOM     20  C   UNL     1      -1.690   3.041  26.450  0.00  0.00    +0.003 A 
ATOM     21  C   UNL     1      -1.740   5.043  25.098  0.00  0.00    +0.003 A 
ATOM     22  C   UNL     1      -0.421   2.739  25.954  0.00  0.00    +0.000 A 
ATOM     23  C   UNL     1      -0.472   4.740  24.603  0.00  0.00    +0.000 A 
ATOM     24  C   UNL     1       0.187   3.588  25.031  0.00  0.00    +0.000 A 
ENDBRANCH  12  16
ENDBRANCH  10  12
ENDBRANCH   9  10
ENDBRANCH   1   9
TORSDOF 5
ENDMDL
