MODEL 1
REMARK VINA RESULT:      -0.8      0.000      0.000
REMARK  Name = 7049369
REMARK  11 active torsions:
REMARK  status: ('A' for Active; 'I' for Inactive)
REMARK    1  A    between atoms: O_2  and  C_11
REMARK    2  A    between atoms: O_3  and  C_12
REMARK    3  A    between atoms: N_7  and  C_13
REMARK    4  A    between atoms: N_8  and  C_17
REMARK    5  A    between atoms: N_9  and  C_25
REMARK    6  A    between atoms: C_15  and  C_18
REMARK    7  A    between atoms: C_17  and  C_19
REMARK    8  A    between atoms: C_17  and  C_24
REMARK    9  A    between atoms: C_19  and  C_20
REMARK   10  A    between atoms: C_20  and  C_21
REMARK   11  A    between atoms: C_20  and  C_22
REMARK                            x       y       z     vdW  Elec       q    Type
REMARK                         _______ _______ _______ _____ _____    ______ ____
ROOT
ATOM     11  C   UNL     1      -2.602  -2.419  24.827  0.00  0.00    +0.167 C 
ATOM     12  C   UNL     1      -4.081  -2.108  24.573  0.00  0.00    +0.149 C 
ATOM     13  C   UNL     1      -1.688  -1.655  23.849  0.00  0.00    +0.129 C 
ATOM     14  C   UNL     1      -4.375  -0.600  24.637  0.00  0.00    +0.074 C 
ATOM     15  C   UNL     1      -3.293   0.245  24.030  0.00  0.00    +0.015 C 
ATOM     16  C   UNL     1      -2.087  -0.217  23.663  0.00  0.00    +0.006 C 
ENDROOT
BRANCH  13   7
ATOM      5  O   UNL     1       0.534  -0.393  22.555  0.00  0.00    -0.252 OA
ATOM      7  N   UNL     1      -0.307  -1.707  24.262  0.00  0.00    -0.290 N 
ATOM      9  N   UNL     1       1.950  -1.286  24.201  0.00  0.00    -0.268 N 
ATOM     23  C   UNL     1       0.724  -1.058  23.571  0.00  0.00    +0.304 C 
ATOM     31  H   UNL     1      -0.060  -2.282  25.062  0.00  0.00    +0.151 HD
ATOM     35  H   UNL     1       1.937  -1.862  25.038  0.00  0.00    +0.156 HD
BRANCH   9  25
ATOM      1 BR   UNL     1       1.964   1.721  23.220  0.00  0.00    -0.048 Br
ATOM     25  C   UNL     1       3.225  -0.807  23.817  0.00  0.00    +0.049 A 
ATOM     26  C   UNL     1       3.409   0.497  23.359  0.00  0.00    +0.039 A 
ATOM     27  C   UNL     1       4.312  -1.676  23.905  0.00  0.00    +0.024 A 
ATOM     28  C   UNL     1       4.681   0.934  22.990  0.00  0.00    +0.017 A 
ATOM     29  C   UNL     1       5.585  -1.240  23.535  0.00  0.00    +0.002 A 
ATOM     30  C   UNL     1       5.769   0.065  23.078  0.00  0.00    +0.001 A 
ENDBRANCH   9  25
ENDBRANCH  13   7
BRANCH  15  18
ATOM      4  O   UNL     1      -3.413   2.160  22.688  0.00  0.00    -0.271 OA
ATOM      8  N   UNL     1      -4.009   2.320  24.938  0.00  0.00    -0.300 N 
ATOM     18  C   UNL     1      -3.573   1.666  23.799  0.00  0.00    +0.241 C 
ATOM     32  H   UNL     1      -4.167   1.785  25.787  0.00  0.00    +0.150 HD
BRANCH   8  17
ATOM     17  C   UNL     1      -4.343   3.720  24.958  0.00  0.00    +0.159 C 
BRANCH  17  24
ATOM      6  O   UNL     1      -6.313   4.890  25.769  0.00  0.00    -0.274 OA
ATOM     10  N   UNL     1      -6.051   2.674  26.314  0.00  0.00    -0.328 N 
ATOM     24  C   UNL     1      -5.654   3.854  25.722  0.00  0.00    +0.231 C 
ATOM     36  H   UNL     1      -6.916   2.623  26.843  0.00  0.00    +0.145 HD
ATOM     37  H   UNL     1      -5.507   1.820  26.247  0.00  0.00    +0.145 HD
ENDBRANCH  17  24
BRANCH  17  19
ATOM     19  C   UNL     1      -3.252   4.569  25.622  0.00  0.00    +0.034 C 
BRANCH  19  20
ATOM     20  C   UNL     1      -1.828   4.336  25.074  0.00  0.00    -0.015 C 
ATOM     21  C   UNL     1      -1.078   3.361  25.987  0.00  0.00    +0.007 C 
ATOM     22  C   UNL     1      -1.034   5.636  24.946  0.00  0.00    +0.007 C 
ENDBRANCH  19  20
ENDBRANCH  17  19
ENDBRANCH   8  17
ENDBRANCH  15  18
BRANCH  11   2
ATOM      2  O   UNL     1      -2.280  -2.053  26.171  0.00  0.00    -0.387 OA
ATOM     33  H   UNL     1      -2.978  -1.455  26.486  0.00  0.00    +0.210 HD
ENDBRANCH  11   2
BRANCH  12   3
ATOM      3  O   UNL     1      -4.483  -2.631  23.309  0.00  0.00    -0.389 OA
ATOM     34  H   UNL     1      -5.377  -3.001  23.413  0.00  0.00    +0.210 HD
ENDBRANCH  12   3
TORSDOF 9
ENDMDL
MODEL 2
REMARK VINA RESULT:       0.1      1.194      1.501
REMARK  Name = 7049369
REMARK  11 active torsions:
REMARK  status: ('A' for Active; 'I' for Inactive)
REMARK    1  A    between atoms: O_2  and  C_11
REMARK    2  A    between atoms: O_3  and  C_12
REMARK    3  A    between atoms: N_7  and  C_13
REMARK    4  A    between atoms: N_8  and  C_17
REMARK    5  A    between atoms: N_9  and  C_25
REMARK    6  A    between atoms: C_15  and  C_18
REMARK    7  A    between atoms: C_17  and  C_19
REMARK    8  A    between atoms: C_17  and  C_24
REMARK    9  A    between atoms: C_19  and  C_20
REMARK   10  A    between atoms: C_20  and  C_21
REMARK   11  A    between atoms: C_20  and  C_22
REMARK                            x       y       z     vdW  Elec       q    Type
REMARK                         _______ _______ _______ _____ _____    ______ ____
ROOT
ATOM     11  C   UNL     1      -1.935  -2.244  24.957  0.00  0.00    +0.167 C 
ATOM     12  C   UNL     1      -3.361  -1.894  25.394  0.00  0.00    +0.149 C 
ATOM     13  C   UNL     1      -1.622  -1.694  23.553  0.00  0.00    +0.129 C 
ATOM     14  C   UNL     1      -3.627  -0.379  25.343  0.00  0.00    +0.074 C 
ATOM     15  C   UNL     1      -2.991   0.299  24.164  0.00  0.00    +0.015 C 
ATOM     16  C   UNL     1      -2.097  -0.281  23.348  0.00  0.00    +0.006 C 
ENDROOT
BRANCH  13   7
ATOM      5  O   UNL     1       0.302   0.397  23.919  0.00  0.00    -0.252 OA
ATOM      7  N   UNL     1      -0.211  -1.758  23.258  0.00  0.00    -0.290 N 
ATOM      9  N   UNL     1       1.964  -1.040  23.092  0.00  0.00    -0.268 N 
ATOM     23  C   UNL     1       0.665  -0.687  23.467  0.00  0.00    +0.304 C 
ATOM     31  H   UNL     1       0.158  -2.603  22.831  0.00  0.00    +0.151 HD
ATOM     35  H   UNL     1       2.099  -1.983  22.735  0.00  0.00    +0.156 HD
BRANCH   9  25
ATOM      1 BR   UNL     1       4.514  -2.553  24.190  0.00  0.00    -0.048 Br
ATOM     25  C   UNL     1       3.131  -0.243  23.149  0.00  0.00    +0.049 A 
ATOM     26  C   UNL     1       4.345  -0.754  23.609  0.00  0.00    +0.039 A 
ATOM     27  C   UNL     1       3.047   1.085  22.731  0.00  0.00    +0.024 A 
ATOM     28  C   UNL     1       5.474   0.062  23.650  0.00  0.00    +0.017 A 
ATOM     29  C   UNL     1       4.178   1.902  22.772  0.00  0.00    +0.002 A 
ATOM     30  C   UNL     1       5.392   1.390  23.232  0.00  0.00    +0.001 A 
ENDBRANCH   9  25
ENDBRANCH  13   7
BRANCH  15  18
ATOM      4  O   UNL     1      -3.243   2.139  22.738  0.00  0.00    -0.271 OA
ATOM      8  N   UNL     1      -3.896   2.342  24.969  0.00  0.00    -0.300 N 
ATOM     18  C   UNL     1      -3.383   1.680  23.867  0.00  0.00    +0.241 C 
ATOM     32  H   UNL     1      -4.027   1.832  25.838  0.00  0.00    +0.150 HD
BRANCH   8  17
ATOM     17  C   UNL     1      -4.346   3.708  24.922  0.00  0.00    +0.159 C 
BRANCH  17  24
ATOM      6  O   UNL     1      -6.335   4.788  25.809  0.00  0.00    -0.274 OA
ATOM     10  N   UNL     1      -5.964   2.580  26.320  0.00  0.00    -0.328 N 
ATOM     24  C   UNL     1      -5.635   3.781  25.729  0.00  0.00    +0.231 C 
ATOM     36  H   UNL     1      -6.809   2.487  26.876  0.00  0.00    +0.145 HD
ATOM     37  H   UNL     1      -5.389   1.749  26.226  0.00  0.00    +0.145 HD
ENDBRANCH  17  24
BRANCH  17  19
ATOM     19  C   UNL     1      -3.307   4.683  25.491  0.00  0.00    +0.034 C 
BRANCH  19  20
ATOM     20  C   UNL     1      -1.849   4.385  25.085  0.00  0.00    -0.015 C 
ATOM     21  C   UNL     1      -1.198   3.476  26.132  0.00  0.00    +0.007 C 
ATOM     22  C   UNL     1      -1.018   5.658  24.921  0.00  0.00    +0.007 C 
ENDBRANCH  19  20
ENDBRANCH  17  19
ENDBRANCH   8  17
ENDBRANCH  15  18
BRANCH  11   2
ATOM      2  O   UNL     1      -1.016  -1.693  25.904  0.00  0.00    -0.387 OA
ATOM     33  H   UNL     1      -0.836  -2.378  26.569  0.00  0.00    +0.210 HD
ENDBRANCH  11   2
BRANCH  12   3
ATOM      3  O   UNL     1      -4.307  -2.583  24.579  0.00  0.00    -0.389 OA
ATOM     34  H   UNL     1      -5.175  -2.516  25.014  0.00  0.00    +0.210 HD
ENDBRANCH  12   3
TORSDOF 9
ENDMDL
MODEL 3
REMARK VINA RESULT:       2.3      2.126      5.070
REMARK  Name = 7049369
REMARK  11 active torsions:
REMARK  status: ('A' for Active; 'I' for Inactive)
REMARK    1  A    between atoms: O_2  and  C_11
REMARK    2  A    between atoms: O_3  and  C_12
REMARK    3  A    between atoms: N_7  and  C_13
REMARK    4  A    between atoms: N_8  and  C_17
REMARK    5  A    between atoms: N_9  and  C_25
REMARK    6  A    between atoms: C_15  and  C_18
REMARK    7  A    between atoms: C_17  and  C_19
REMARK    8  A    between atoms: C_17  and  C_24
REMARK    9  A    between atoms: C_19  and  C_20
REMARK   10  A    between atoms: C_20  and  C_21
REMARK   11  A    between atoms: C_20  and  C_22
REMARK                            x       y       z     vdW  Elec       q    Type
REMARK                         _______ _______ _______ _____ _____    ______ ____
ROOT
ATOM     11  C   UNL     1      -2.173   4.702  25.101  0.00  0.00    +0.167 C 
ATOM     12  C   UNL     1      -3.557   4.711  25.759  0.00  0.00    +0.149 C 
ATOM     13  C   UNL     1      -1.386   3.426  25.458  0.00  0.00    +0.129 C 
ATOM     14  C   UNL     1      -4.378   3.461  25.400  0.00  0.00    +0.074 C 
ATOM     15  C   UNL     1      -3.558   2.204  25.345  0.00  0.00    +0.015 C 
ATOM     16  C   UNL     1      -2.216   2.174  25.379  0.00  0.00    +0.006 C 
ENDROOT
BRANCH  13   7
ATOM      5  O   UNL     1       0.228   1.074  25.198  0.00  0.00    -0.252 OA
ATOM      7  N   UNL     1      -0.221   3.268  24.622  0.00  0.00    -0.290 N 
ATOM      9  N   UNL     1       1.584   2.221  23.663  0.00  0.00    -0.268 N 
ATOM     23  C   UNL     1       0.515   2.079  24.551  0.00  0.00    +0.304 C 
ATOM     31  H   UNL     1       0.112   4.071  24.096  0.00  0.00    +0.151 HD
ATOM     35  H   UNL     1       1.683   3.123  23.203  0.00  0.00    +0.156 HD
BRANCH   9  25
ATOM      1 BR   UNL     1       0.396  -0.405  22.363  0.00  0.00    -0.048 Br
ATOM     25  C   UNL     1       2.557   1.256  23.314  0.00  0.00    +0.049 A 
ATOM     26  C   UNL     1       2.204   0.039  22.730  0.00  0.00    +0.039 A 
ATOM     27  C   UNL     1       3.897   1.544  23.568  0.00  0.00    +0.024 A 
ATOM     28  C   UNL     1       3.192  -0.889  22.400  0.00  0.00    +0.017 A 
ATOM     29  C   UNL     1       4.886   0.616  23.239  0.00  0.00    +0.002 A 
ATOM     30  C   UNL     1       4.533  -0.600  22.654  0.00  0.00    +0.001 A 
ENDBRANCH   9  25
ENDBRANCH  13   7
BRANCH  15  18
ATOM      4  O   UNL     1      -5.486   0.885  25.200  0.00  0.00    -0.271 OA
ATOM      8  N   UNL     1      -3.405  -0.165  25.292  0.00  0.00    -0.300 N 
ATOM     18  C   UNL     1      -4.262   0.921  25.270  0.00  0.00    +0.241 C 
ATOM     32  H   UNL     1      -2.401  -0.005  25.283  0.00  0.00    +0.150 HD
BRANCH   8  17
ATOM     17  C   UNL     1      -3.864  -1.527  25.232  0.00  0.00    +0.159 C 
BRANCH  17  24
ATOM      6  O   UNL     1      -5.066  -2.726  23.492  0.00  0.00    -0.274 OA
ATOM     10  N   UNL     1      -4.007  -0.763  22.942  0.00  0.00    -0.328 N 
ATOM     24  C   UNL     1      -4.370  -1.766  23.816  0.00  0.00    +0.231 C 
ATOM     36  H   UNL     1      -4.292  -0.792  21.969  0.00  0.00    +0.145 HD
ATOM     37  H   UNL     1      -3.451   0.036  23.229  0.00  0.00    +0.145 HD
ENDBRANCH  17  24
BRANCH  17  19
ATOM     19  C   UNL     1      -2.757  -2.531  25.577  0.00  0.00    +0.034 C 
BRANCH  19  20
ATOM     20  C   UNL     1      -1.449  -2.349  24.780  0.00  0.00    -0.015 C 
ATOM     21  C   UNL     1      -1.378  -3.391  23.660  0.00  0.00    +0.007 C 
ATOM     22  C   UNL     1      -0.207  -2.461  25.667  0.00  0.00    +0.007 C 
ENDBRANCH  19  20
ENDBRANCH  17  19
ENDBRANCH   8  17
ENDBRANCH  15  18
BRANCH  11   2
ATOM      2  O   UNL     1      -2.338   4.782  23.683  0.00  0.00    -0.387 OA
ATOM     33  H   UNL     1      -1.472   4.611  23.278  0.00  0.00    +0.210 HD
ENDBRANCH  11   2
BRANCH  12   3
ATOM      3  O   UNL     1      -3.427   4.821  27.175  0.00  0.00    -0.389 OA
ATOM     34  H   UNL     1      -3.543   5.757  27.410  0.00  0.00    +0.210 HD
ENDBRANCH  12   3
TORSDOF 9
ENDMDL
MODEL 4
REMARK VINA RESULT:       2.9      1.665      2.697
REMARK  Name = 7049369
REMARK  11 active torsions:
REMARK  status: ('A' for Active; 'I' for Inactive)
REMARK    1  A    between atoms: O_2  and  C_11
REMARK    2  A    between atoms: O_3  and  C_12
REMARK    3  A    between atoms: N_7  and  C_13
REMARK    4  A    between atoms: N_8  and  C_17
REMARK    5  A    between atoms: N_9  and  C_25
REMARK    6  A    between atoms: C_15  and  C_18
REMARK    7  A    between atoms: C_17  and  C_19
REMARK    8  A    between atoms: C_17  and  C_24
REMARK    9  A    between atoms: C_19  and  C_20
REMARK   10  A    between atoms: C_20  and  C_21
REMARK   11  A    between atoms: C_20  and  C_22
REMARK                            x       y       z     vdW  Elec       q    Type
REMARK                         _______ _______ _______ _____ _____    ______ ____
ROOT
ATOM     11  C   UNL     1      -2.204  -2.307  24.687  0.00  0.00    +0.167 C 
ATOM     12  C   UNL     1      -3.644  -1.902  25.021  0.00  0.00    +0.149 C 
ATOM     13  C   UNL     1      -1.660  -1.517  23.482  0.00  0.00    +0.129 C 
ATOM     14  C   UNL     1      -3.778  -0.390  25.271  0.00  0.00    +0.074 C 
ATOM     15  C   UNL     1      -2.934   0.444  24.350  0.00  0.00    +0.015 C 
ATOM     16  C   UNL     1      -1.987  -0.049  23.536  0.00  0.00    +0.006 C 
ENDROOT
BRANCH  13   7
ATOM      5  O   UNL     1       0.304   0.568  23.559  0.00  0.00    -0.252 OA
ATOM      7  N   UNL     1      -0.232  -1.671  23.346  0.00  0.00    -0.290 N 
ATOM      9  N   UNL     1       1.975  -1.047  23.235  0.00  0.00    -0.268 N 
ATOM     23  C   UNL     1       0.663  -0.596  23.396  0.00  0.00    +0.304 C 
ATOM     31  H   UNL     1       0.141  -2.596  23.154  0.00  0.00    +0.151 HD
ATOM     35  H   UNL     1       2.105  -2.048  23.111  0.00  0.00    +0.156 HD
BRANCH   9  25
ATOM      1 BR   UNL     1       4.536  -2.607  24.241  0.00  0.00    -0.048 Br
ATOM     25  C   UNL     1       3.163  -0.278  23.226  0.00  0.00    +0.049 A 
ATOM     26  C   UNL     1       4.384  -0.813  23.639  0.00  0.00    +0.039 A 
ATOM     27  C   UNL     1       3.093   1.044  22.791  0.00  0.00    +0.024 A 
ATOM     28  C   UNL     1       5.534  -0.025  23.616  0.00  0.00    +0.017 A 
ATOM     29  C   UNL     1       4.243   1.834  22.768  0.00  0.00    +0.002 A 
ATOM     30  C   UNL     1       5.464   1.299  23.180  0.00  0.00    +0.001 A 
ENDBRANCH   9  25
ENDBRANCH  13   7
BRANCH  15  18
ATOM      4  O   UNL     1      -3.696   2.414  23.340  0.00  0.00    -0.271 OA
ATOM      8  N   UNL     1      -2.739   2.532  25.465  0.00  0.00    -0.300 N 
ATOM     18  C   UNL     1      -3.170   1.890  24.316  0.00  0.00    +0.241 C 
ATOM     32  H   UNL     1      -2.379   1.978  26.237  0.00  0.00    +0.150 HD
BRANCH   8  17
ATOM     17  C   UNL     1      -2.861   3.952  25.662  0.00  0.00    +0.159 C 
BRANCH  17  24
ATOM      6  O   UNL     1      -1.371   5.794  25.119  0.00  0.00    -0.274 OA
ATOM     10  N   UNL     1      -0.586   3.647  24.901  0.00  0.00    -0.328 N 
ATOM     24  C   UNL     1      -1.557   4.582  25.191  0.00  0.00    +0.231 C 
ATOM     36  H   UNL     1       0.336   3.934  24.589  0.00  0.00    +0.145 HD
ATOM     37  H   UNL     1      -0.747   2.649  24.986  0.00  0.00    +0.145 HD
ENDBRANCH  17  24
BRANCH  17  19
ATOM     19  C   UNL     1      -4.047   4.547  24.892  0.00  0.00    +0.034 C 
BRANCH  19  20
ATOM     20  C   UNL     1      -5.422   3.954  25.263  0.00  0.00    -0.015 C 
ATOM     21  C   UNL     1      -6.409   5.086  25.561  0.00  0.00    +0.007 C 
ATOM     22  C   UNL     1      -5.343   3.010  26.464  0.00  0.00    +0.007 C 
ENDBRANCH  19  20
ENDBRANCH  17  19
ENDBRANCH   8  17
ENDBRANCH  15  18
BRANCH  11   2
ATOM      2  O   UNL     1      -1.382  -2.064  25.831  0.00  0.00    -0.387 OA
ATOM     33  H   UNL     1      -0.692  -2.748  25.846  0.00  0.00    +0.210 HD
ENDBRANCH  11   2
BRANCH  12   3
ATOM      3  O   UNL     1      -4.523  -2.303  23.971  0.00  0.00    -0.389 OA
ATOM     34  H   UNL     1      -5.380  -1.869  24.123  0.00  0.00    +0.210 HD
ENDBRANCH  12   3
TORSDOF 9
ENDMDL
MODEL 5
REMARK VINA RESULT:       2.9      1.680      2.497
REMARK  Name = 7049369
REMARK  11 active torsions:
REMARK  status: ('A' for Active; 'I' for Inactive)
REMARK    1  A    between atoms: O_2  and  C_11
REMARK    2  A    between atoms: O_3  and  C_12
REMARK    3  A    between atoms: N_7  and  C_13
REMARK    4  A    between atoms: N_8  and  C_17
REMARK    5  A    between atoms: N_9  and  C_25
REMARK    6  A    between atoms: C_15  and  C_18
REMARK    7  A    between atoms: C_17  and  C_19
REMARK    8  A    between atoms: C_17  and  C_24
REMARK    9  A    between atoms: C_19  and  C_20
REMARK   10  A    between atoms: C_20  and  C_21
REMARK   11  A    between atoms: C_20  and  C_22
REMARK                            x       y       z     vdW  Elec       q    Type
REMARK                         _______ _______ _______ _____ _____    ______ ____
ROOT
ATOM     11  C   UNL     1      -1.826  -2.340  24.249  0.00  0.00    +0.167 C 
ATOM     12  C   UNL     1      -3.154  -2.024  24.946  0.00  0.00    +0.149 C 
ATOM     13  C   UNL     1      -1.381  -1.187  23.329  0.00  0.00    +0.129 C 
ATOM     14  C   UNL     1      -3.095  -0.704  25.735  0.00  0.00    +0.074 C 
ATOM     15  C   UNL     1      -2.311   0.372  25.040  0.00  0.00    +0.015 C 
ATOM     16  C   UNL     1      -1.547   0.171  23.955  0.00  0.00    +0.006 C 
ENDROOT
BRANCH  13   7
ATOM      5  O   UNL     1       0.940  -0.099  24.607  0.00  0.00    -0.252 OA
ATOM      7  N   UNL     1      -0.011  -1.342  22.905  0.00  0.00    -0.290 N 
ATOM      9  N   UNL     1       2.271  -1.093  22.949  0.00  0.00    -0.268 N 
ATOM     23  C   UNL     1       1.071  -0.775  23.589  0.00  0.00    +0.304 C 
ATOM     31  H   UNL     1       0.176  -1.842  22.041  0.00  0.00    +0.151 HD
ATOM     35  H   UNL     1       2.208  -1.667  22.112  0.00  0.00    +0.156 HD
BRANCH   9  25
ATOM      1 BR   UNL     1       2.925   1.963  22.463  0.00  0.00    -0.048 Br
ATOM     25  C   UNL     1       3.582  -0.714  23.323  0.00  0.00    +0.049 A 
ATOM     26  C   UNL     1       4.035   0.597  23.175  0.00  0.00    +0.039 A 
ATOM     27  C   UNL     1       4.428  -1.689  23.851  0.00  0.00    +0.024 A 
ATOM     28  C   UNL     1       5.333   0.933  23.556  0.00  0.00    +0.017 A 
ATOM     29  C   UNL     1       5.728  -1.353  24.232  0.00  0.00    +0.002 A 
ATOM     30  C   UNL     1       6.180  -0.041  24.084  0.00  0.00    +0.001 A 
ENDBRANCH   9  25
ENDBRANCH  13   7
BRANCH  15  18
ATOM      4  O   UNL     1      -1.442   2.254  26.127  0.00  0.00    -0.271 OA
ATOM      8  N   UNL     1      -3.637   2.318  25.343  0.00  0.00    -0.300 N 
ATOM     18  C   UNL     1      -2.400   1.739  25.562  0.00  0.00    +0.241 C 
ATOM     32  H   UNL     1      -4.333   1.814  24.799  0.00  0.00    +0.150 HD
BRANCH   8  17
ATOM     17  C   UNL     1      -3.964   3.654  25.768  0.00  0.00    +0.159 C 
BRANCH  17  24
ATOM      6  O   UNL     1      -2.203   5.244  25.240  0.00  0.00    -0.274 OA
ATOM     10  N   UNL     1      -3.679   4.651  23.583  0.00  0.00    -0.328 N 
ATOM     24  C   UNL     1      -3.188   4.610  24.871  0.00  0.00    +0.231 C 
ATOM     36  H   UNL     1      -3.244   5.238  22.879  0.00  0.00    +0.145 HD
ATOM     37  H   UNL     1      -4.480   4.103  23.287  0.00  0.00    +0.145 HD
ENDBRANCH  17  24
BRANCH  17  19
ATOM     19  C   UNL     1      -5.467   3.943  25.679  0.00  0.00    +0.034 C 
BRANCH  19  20
ATOM     20  C   UNL     1      -6.363   2.689  25.597  0.00  0.00    -0.015 C 
ATOM     21  C   UNL     1      -6.319   1.936  26.929  0.00  0.00    +0.007 C 
ATOM     22  C   UNL     1      -5.949   1.752  24.461  0.00  0.00    +0.007 C 
ENDBRANCH  19  20
ENDBRANCH  17  19
ENDBRANCH   8  17
ENDBRANCH  15  18
BRANCH  11   2
ATOM      2  O   UNL     1      -0.827  -2.569  25.247  0.00  0.00    -0.387 OA
ATOM     33  H   UNL     1      -0.036  -2.907  24.795  0.00  0.00    +0.210 HD
ENDBRANCH  11   2
BRANCH  12   3
ATOM      3  O   UNL     1      -4.210  -1.973  23.989  0.00  0.00    -0.389 OA
ATOM     34  H   UNL     1      -4.416  -1.037  23.826  0.00  0.00    +0.210 HD
ENDBRANCH  12   3
TORSDOF 9
ENDMDL
