MODEL 1
REMARK VINA RESULT:      -5.5      0.000      0.000
REMARK  Name = 26743552
REMARK  4 active torsions:
REMARK  status: ('A' for Active; 'I' for Inactive)
REMARK    1  A    between atoms: O_1  and  C_12
REMARK    2  A    between atoms: N_3  and  C_6
REMARK    3  A    between atoms: C_7  and  C_16
REMARK    4  A    between atoms: C_17  and  C_18
REMARK                            x       y       z     vdW  Elec       q    Type
REMARK                         _______ _______ _______ _____ _____    ______ ____
ROOT
ATOM      3  N   UNL     1      -4.138   1.159  25.552  0.00  0.00    -0.286 NA
ATOM      7  C   UNL     1      -3.608   1.864  24.367  0.00  0.00    +0.149 C 
ATOM      8  C   UNL     1      -5.392   1.821  25.901  0.00  0.00    +0.116 C 
ATOM     11  C   UNL     1      -4.163   3.296  24.480  0.00  0.00    +0.061 C 
ATOM     12  C   UNL     1      -5.030   3.285  25.734  0.00  0.00    +0.130 C 
ENDROOT
BRANCH   3   6
ATOM      6  C   UNL     1      -4.316  -0.277  25.337  0.00  0.00    +0.058 C 
ATOM      9  C   UNL     1      -4.373  -0.575  23.834  0.00  0.00    +0.019 C 
ATOM     10  C   UNL     1      -3.176  -1.048  26.009  0.00  0.00    +0.019 C 
ATOM     13  C   UNL     1      -4.482  -2.075  23.568  0.00  0.00    +0.002 C 
ATOM     14  C   UNL     1      -3.287  -2.549  25.742  0.00  0.00    +0.002 C 
ATOM     15  C   UNL     1      -3.355  -2.850  24.247  0.00  0.00    +0.000 C 
ENDBRANCH   3   6
BRANCH   7  16
ATOM      2  O   UNL     1      -1.426   2.590  25.197  0.00  0.00    -0.336 OA
ATOM      4  N   UNL     1      -1.321   1.157  23.480  0.00  0.00    -0.190 NA
ATOM      5  N   UNL     1      -0.065   2.393  24.938  0.00  0.00    -0.056 NA
ATOM     16  C   UNL     1      -2.096   1.826  24.295  0.00  0.00    +0.245 A 
ATOM     17  C   UNL     1      -0.084   1.536  23.913  0.00  0.00    +0.202 A 
BRANCH  17  18
ATOM     18  C   UNL     1       1.114   1.040  23.299  0.00  0.00    +0.022 A 
ATOM     19  C   UNL     1       2.336   1.666  23.548  0.00  0.00    +0.012 A 
ATOM     20  C   UNL     1       1.057  -0.067  22.452  0.00  0.00    +0.012 A 
ATOM     21  C   UNL     1       3.500   1.184  22.951  0.00  0.00    +0.001 A 
ATOM     22  C   UNL     1       2.223  -0.549  21.855  0.00  0.00    +0.001 A 
ATOM     23  C   UNL     1       3.444   0.077  22.104  0.00  0.00    +0.000 A 
ENDBRANCH  17  18
ENDBRANCH   7  16
BRANCH  12   1
ATOM      1  O   UNL     1      -6.178   4.093  25.558  0.00  0.00    -0.390 OA
ATOM     24  H   UNL     1      -6.444   4.417  26.436  0.00  0.00    +0.210 HD
ENDBRANCH  12   1
TORSDOF 4
ENDMDL
MODEL 2
REMARK VINA RESULT:      -4.9      1.978      2.735
REMARK  Name = 26743552
REMARK  4 active torsions:
REMARK  status: ('A' for Active; 'I' for Inactive)
REMARK    1  A    between atoms: O_1  and  C_12
REMARK    2  A    between atoms: N_3  and  C_6
REMARK    3  A    between atoms: C_7  and  C_16
REMARK    4  A    between atoms: C_17  and  C_18
REMARK                            x       y       z     vdW  Elec       q    Type
REMARK                         _______ _______ _______ _____ _____    ______ ____
ROOT
ATOM      3  N   UNL     1      -1.729   1.792  25.285  0.00  0.00    -0.286 NA
ATOM      7  C   UNL     1      -1.212   2.096  23.935  0.00  0.00    +0.149 C 
ATOM      8  C   UNL     1      -2.304   3.034  25.797  0.00  0.00    +0.116 C 
ATOM     11  C   UNL     1      -0.868   3.596  23.974  0.00  0.00    +0.061 C 
ATOM     12  C   UNL     1      -1.269   4.057  25.370  0.00  0.00    +0.130 C 
ENDROOT
BRANCH   3   6
ATOM      6  C   UNL     1      -2.693   0.693  25.299  0.00  0.00    +0.058 C 
ATOM      9  C   UNL     1      -3.417   0.618  23.950  0.00  0.00    +0.019 C 
ATOM     10  C   UNL     1      -1.977  -0.623  25.616  0.00  0.00    +0.019 C 
ATOM     13  C   UNL     1      -4.379  -0.568  23.900  0.00  0.00    +0.002 C 
ATOM     14  C   UNL     1      -2.941  -1.808  25.565  0.00  0.00    +0.002 C 
ATOM     15  C   UNL     1      -3.672  -1.881  24.228  0.00  0.00    +0.000 C 
ENDBRANCH   3   6
BRANCH   7  16
ATOM      2  O   UNL     1      -0.277   0.197  22.712  0.00  0.00    -0.336 OA
ATOM      4  N   UNL     1       1.225   1.333  23.926  0.00  0.00    -0.190 NA
ATOM      5  N   UNL     1       0.951  -0.445  22.512  0.00  0.00    -0.056 NA
ATOM     16  C   UNL     1      -0.027   1.233  23.557  0.00  0.00    +0.245 A 
ATOM     17  C   UNL     1       1.786   0.282  23.260  0.00  0.00    +0.202 A 
BRANCH  17  18
ATOM     18  C   UNL     1       3.186  -0.012  23.363  0.00  0.00    +0.022 A 
ATOM     19  C   UNL     1       4.129   0.971  23.067  0.00  0.00    +0.012 A 
ATOM     20  C   UNL     1       3.605  -1.284  23.758  0.00  0.00    +0.012 A 
ATOM     21  C   UNL     1       5.491   0.685  23.166  0.00  0.00    +0.001 A 
ATOM     22  C   UNL     1       4.967  -1.570  23.856  0.00  0.00    +0.001 A 
ATOM     23  C   UNL     1       5.909  -0.585  23.560  0.00  0.00    +0.000 A 
ENDBRANCH  17  18
ENDBRANCH   7  16
BRANCH  12   1
ATOM      1  O   UNL     1      -1.807   5.365  25.332  0.00  0.00    -0.390 OA
ATOM     24  H   UNL     1      -2.751   5.285  25.109  0.00  0.00    +0.210 HD
ENDBRANCH  12   1
TORSDOF 4
ENDMDL
MODEL 3
REMARK VINA RESULT:      -4.0      2.347      4.280
REMARK  Name = 26743552
REMARK  4 active torsions:
REMARK  status: ('A' for Active; 'I' for Inactive)
REMARK    1  A    between atoms: O_1  and  C_12
REMARK    2  A    between atoms: N_3  and  C_6
REMARK    3  A    between atoms: C_7  and  C_16
REMARK    4  A    between atoms: C_17  and  C_18
REMARK                            x       y       z     vdW  Elec       q    Type
REMARK                         _______ _______ _______ _____ _____    ______ ____
ROOT
ATOM      3  N   UNL     1      -2.671   0.478  24.226  0.00  0.00    -0.286 NA
ATOM      7  C   UNL     1      -1.719  -0.597  24.571  0.00  0.00    +0.149 C 
ATOM      8  C   UNL     1      -4.007  -0.105  24.326  0.00  0.00    +0.116 C 
ATOM     11  C   UNL     1      -2.439  -1.901  24.183  0.00  0.00    +0.061 C 
ATOM     12  C   UNL     1      -3.806  -1.459  23.674  0.00  0.00    +0.130 C 
ENDROOT
BRANCH   3   6
ATOM      6  C   UNL     1      -2.526   1.668  25.064  0.00  0.00    +0.058 C 
ATOM      9  C   UNL     1      -1.295   2.468  24.624  0.00  0.00    +0.019 C 
ATOM     10  C   UNL     1      -3.797   2.519  24.984  0.00  0.00    +0.019 C 
ATOM     13  C   UNL     1      -1.154   3.759  25.428  0.00  0.00    +0.002 C 
ATOM     14  C   UNL     1      -3.653   3.810  25.789  0.00  0.00    +0.002 C 
ATOM     15  C   UNL     1      -2.423   4.606  25.361  0.00  0.00    +0.000 C 
ENDBRANCH   3   6
BRANCH   7  16
ATOM      2  O   UNL     1      -0.420  -0.179  22.543  0.00  0.00    -0.336 OA
ATOM      4  N   UNL     1       0.826  -0.510  24.374  0.00  0.00    -0.190 NA
ATOM      5  N   UNL     1       0.914  -0.073  22.131  0.00  0.00    -0.056 NA
ATOM     16  C   UNL     1      -0.383  -0.437  23.876  0.00  0.00    +0.245 A 
ATOM     17  C   UNL     1       1.588  -0.280  23.266  0.00  0.00    +0.202 A 
BRANCH  17  18
ATOM     18  C   UNL     1       3.021  -0.264  23.327  0.00  0.00    +0.022 A 
ATOM     19  C   UNL     1       3.710  -1.373  23.818  0.00  0.00    +0.012 A 
ATOM     20  C   UNL     1       3.725   0.862  22.897  0.00  0.00    +0.012 A 
ATOM     21  C   UNL     1       5.104  -1.357  23.879  0.00  0.00    +0.001 A 
ATOM     22  C   UNL     1       5.119   0.877  22.958  0.00  0.00    +0.001 A 
ATOM     23  C   UNL     1       5.808  -0.232  23.449  0.00  0.00    +0.000 A 
ENDBRANCH  17  18
ENDBRANCH   7  16
BRANCH  12   1
ATOM      1  O   UNL     1      -4.807  -2.381  24.059  0.00  0.00    -0.390 OA
ATOM     24  H   UNL     1      -4.396  -3.262  24.092  0.00  0.00    +0.210 HD
ENDBRANCH  12   1
TORSDOF 4
ENDMDL
MODEL 4
REMARK VINA RESULT:      -3.0      2.918      3.794
REMARK  Name = 26743552
REMARK  4 active torsions:
REMARK  status: ('A' for Active; 'I' for Inactive)
REMARK    1  A    between atoms: O_1  and  C_12
REMARK    2  A    between atoms: N_3  and  C_6
REMARK    3  A    between atoms: C_7  and  C_16
REMARK    4  A    between atoms: C_17  and  C_18
REMARK                            x       y       z     vdW  Elec       q    Type
REMARK                         _______ _______ _______ _____ _____    ______ ____
ROOT
ATOM      3  N   UNL     1      -3.751   1.193  25.249  0.00  0.00    -0.286 NA
ATOM      7  C   UNL     1      -3.013   2.367  24.739  0.00  0.00    +0.149 C 
ATOM      8  C   UNL     1      -5.170   1.533  25.177  0.00  0.00    +0.116 C 
ATOM     11  C   UNL     1      -3.927   3.568  25.039  0.00  0.00    +0.061 C 
ATOM     12  C   UNL     1      -5.174   2.966  25.676  0.00  0.00    +0.130 C 
ENDROOT
BRANCH   3   6
ATOM      6  C   UNL     1      -3.444  -0.040  24.527  0.00  0.00    +0.058 C 
ATOM      9  C   UNL     1      -2.405  -0.855  25.306  0.00  0.00    +0.019 C 
ATOM     10  C   UNL     1      -4.726  -0.848  24.307  0.00  0.00    +0.019 C 
ATOM     13  C   UNL     1      -2.114  -2.188  24.620  0.00  0.00    +0.002 C 
ATOM     14  C   UNL     1      -4.433  -2.182  23.620  0.00  0.00    +0.002 C 
ATOM     15  C   UNL     1      -3.391  -2.991  24.386  0.00  0.00    +0.000 C 
ENDBRANCH   3   6
BRANCH   7  16
ATOM      2  O   UNL     1      -0.609   2.744  24.505  0.00  0.00    -0.336 OA
ATOM      4  N   UNL     1      -1.285   2.431  26.618  0.00  0.00    -0.190 NA
ATOM      5  N   UNL     1       0.541   2.833  25.300  0.00  0.00    -0.056 NA
ATOM     16  C   UNL     1      -1.639   2.506  25.360  0.00  0.00    +0.245 A 
ATOM     17  C   UNL     1       0.061   2.638  26.531  0.00  0.00    +0.202 A 
BRANCH  17  18
ATOM     18  C   UNL     1       0.899   2.644  27.696  0.00  0.00    +0.022 A 
ATOM     19  C   UNL     1       0.372   2.280  28.935  0.00  0.00    +0.012 A 
ATOM     20  C   UNL     1       2.240   3.016  27.590  0.00  0.00    +0.012 A 
ATOM     21  C   UNL     1       1.186   2.287  30.068  0.00  0.00    +0.001 A 
ATOM     22  C   UNL     1       3.053   3.023  28.723  0.00  0.00    +0.001 A 
ATOM     23  C   UNL     1       2.525   2.658  29.962  0.00  0.00    +0.000 A 
ENDBRANCH  17  18
ENDBRANCH   7  16
BRANCH  12   1
ATOM      1  O   UNL     1      -6.334   3.662  25.265  0.00  0.00    -0.390 OA
ATOM     24  H   UNL     1      -6.508   3.419  24.340  0.00  0.00    +0.210 HD
ENDBRANCH  12   1
TORSDOF 4
ENDMDL
MODEL 5
REMARK VINA RESULT:      -2.9      1.949      3.844
REMARK  Name = 26743552
REMARK  4 active torsions:
REMARK  status: ('A' for Active; 'I' for Inactive)
REMARK    1  A    between atoms: O_1  and  C_12
REMARK    2  A    between atoms: N_3  and  C_6
REMARK    3  A    between atoms: C_7  and  C_16
REMARK    4  A    between atoms: C_17  and  C_18
REMARK                            x       y       z     vdW  Elec       q    Type
REMARK                         _______ _______ _______ _____ _____    ______ ____
ROOT
ATOM      3  N   UNL     1      -3.370  -0.266  23.779  0.00  0.00    -0.286 NA
ATOM      7  C   UNL     1      -2.350  -0.464  24.829  0.00  0.00    +0.149 C 
ATOM      8  C   UNL     1      -4.294  -1.392  23.884  0.00  0.00    +0.116 C 
ATOM     11  C   UNL     1      -2.291  -1.987  25.039  0.00  0.00    +0.061 C 
ATOM     12  C   UNL     1      -3.346  -2.556  24.097  0.00  0.00    +0.130 C 
ENDROOT
BRANCH   3   6
ATOM      6  C   UNL     1      -4.057   1.021  23.879  0.00  0.00    +0.058 C 
ATOM      9  C   UNL     1      -4.391   1.321  25.344  0.00  0.00    +0.019 C 
ATOM     10  C   UNL     1      -3.185   2.125  23.274  0.00  0.00    +0.019 C 
ATOM     13  C   UNL     1      -5.043   2.695  25.496  0.00  0.00    +0.002 C 
ATOM     14  C   UNL     1      -3.838   3.498  23.427  0.00  0.00    +0.002 C 
ATOM     15  C   UNL     1      -4.182   3.797  24.884  0.00  0.00    +0.000 C 
ENDBRANCH   3   6
BRANCH   7  16
ATOM      2  O   UNL     1      -0.915   1.484  24.477  0.00  0.00    -0.336 OA
ATOM      4  N   UNL     1       0.100  -0.478  24.108  0.00  0.00    -0.190 NA
ATOM      5  N   UNL     1       0.399   1.790  24.102  0.00  0.00    -0.056 NA
ATOM     16  C   UNL     1      -1.007   0.128  24.455  0.00  0.00    +0.245 A 
ATOM     17  C   UNL     1       0.934   0.582  23.901  0.00  0.00    +0.202 A 
BRANCH  17  18
ATOM     18  C   UNL     1       2.297   0.399  23.494  0.00  0.00    +0.022 A 
ATOM     19  C   UNL     1       2.993   1.449  22.894  0.00  0.00    +0.012 A 
ATOM     20  C   UNL     1       2.928  -0.829  23.697  0.00  0.00    +0.012 A 
ATOM     21  C   UNL     1       4.318   1.272  22.498  0.00  0.00    +0.001 A 
ATOM     22  C   UNL     1       4.254  -1.006  23.300  0.00  0.00    +0.001 A 
ATOM     23  C   UNL     1       4.948   0.045  22.701  0.00  0.00    +0.000 A 
ENDBRANCH  17  18
ENDBRANCH   7  16
BRANCH  12   1
ATOM      1  O   UNL     1      -3.999  -3.665  24.686  0.00  0.00    -0.390 OA
ATOM     24  H   UNL     1      -3.354  -4.390  24.737  0.00  0.00    +0.210 HD
ENDBRANCH  12   1
TORSDOF 4
ENDMDL
