MODEL 1
REMARK VINA RESULT:      -6.2      0.000      0.000
REMARK  Name = 75537039
REMARK  3 active torsions:
REMARK  status: ('A' for Active; 'I' for Inactive)
REMARK    1  A    between atoms: N_3  and  C_11
REMARK    2  A    between atoms: C_11  and  C_12
REMARK    3  A    between atoms: C_13  and  C_16
REMARK                            x       y       z     vdW  Elec       q    Type
REMARK                         _______ _______ _______ _____ _____    ______ ____
ROOT
ATOM      1  O   UNL     1      -2.067   6.052  25.553  0.00  0.00    -0.253 OA
ATOM      2  N   UNL     1      -2.676   3.928  24.741  0.00  0.00    -0.279 N 
ATOM      3  N   UNL     1      -3.889   1.393  24.657  0.00  0.00    -0.295 NA
ATOM      4  N   UNL     1      -0.529   4.570  24.581  0.00  0.00    -0.297 N 
ATOM      5  C   UNL     1      -2.031   2.867  23.996  0.00  0.00    +0.109 C 
ATOM      6  C   UNL     1      -2.419   1.505  24.571  0.00  0.00    +0.109 C 
ATOM      7  C   UNL     1      -4.096   3.846  25.011  0.00  0.00    +0.125 C 
ATOM      8  C   UNL     1      -0.547   3.208  24.096  0.00  0.00    +0.129 C 
ATOM      9  C   UNL     1      -4.448   2.448  25.526  0.00  0.00    +0.104 C 
ATOM     10  C   UNL     1      -1.801   4.983  25.022  0.00  0.00    +0.303 C 
ATOM     19  H   UNL     1       0.310   5.134  24.674  0.00  0.00    +0.150 HD
ENDROOT
BRANCH   3  11
ATOM     11  C   UNL     1      -4.272   0.071  25.149  0.00  0.00    +0.120 C 
BRANCH  11  12
ATOM     12  C   UNL     1      -3.130  -0.907  25.078  0.00  0.00    -0.030 A 
ATOM     13  C   UNL     1      -3.247  -2.097  24.359  0.00  0.00    -0.046 A 
ATOM     14  C   UNL     1      -1.941  -0.610  25.744  0.00  0.00    +0.005 A 
ATOM     15  C   UNL     1      -2.176  -2.988  24.305  0.00  0.00    +0.003 A 
ATOM     16  C   UNL     1      -4.510  -2.436  23.637  0.00  0.00    +0.044 C 
ATOM     17  C   UNL     1      -0.870  -1.502  25.691  0.00  0.00    +0.000 A 
ATOM     18  C   UNL     1      -0.987  -2.691  24.972  0.00  0.00    +0.000 A 
ENDBRANCH  11  12
ENDBRANCH   3  11
TORSDOF 2
ENDMDL
MODEL 2
REMARK VINA RESULT:      -5.8      2.821      5.876
REMARK  Name = 75537039
REMARK  3 active torsions:
REMARK  status: ('A' for Active; 'I' for Inactive)
REMARK    1  A    between atoms: N_3  and  C_11
REMARK    2  A    between atoms: C_11  and  C_12
REMARK    3  A    between atoms: C_13  and  C_16
REMARK                            x       y       z     vdW  Elec       q    Type
REMARK                         _______ _______ _______ _____ _____    ______ ____
ROOT
ATOM      1  O   UNL     1       0.185  -2.378  25.746  0.00  0.00    -0.253 OA
ATOM      2  N   UNL     1      -1.045  -0.977  24.310  0.00  0.00    -0.279 N 
ATOM      3  N   UNL     1      -1.935   1.379  23.060  0.00  0.00    -0.295 NA
ATOM      4  N   UNL     1      -2.136  -2.569  25.460  0.00  0.00    -0.297 N 
ATOM      5  C   UNL     1      -2.407  -0.914  23.821  0.00  0.00    +0.109 C 
ATOM      6  C   UNL     1      -2.895   0.534  23.799  0.00  0.00    +0.109 C 
ATOM      7  C   UNL     1      -0.049  -0.085  23.755  0.00  0.00    +0.125 C 
ATOM      8  C   UNL     1      -3.171  -1.836  24.767  0.00  0.00    +0.129 C 
ATOM      9  C   UNL     1      -0.602   1.341  23.695  0.00  0.00    +0.104 C 
ATOM     10  C   UNL     1      -0.862  -2.016  25.229  0.00  0.00    +0.303 C 
ATOM     19  H   UNL     1      -2.309  -3.335  26.104  0.00  0.00    +0.150 HD
ENDROOT
BRANCH   3  11
ATOM     11  C   UNL     1      -2.422   2.756  22.981  0.00  0.00    +0.120 C 
BRANCH  11  12
ATOM     12  C   UNL     1      -3.243   3.130  24.187  0.00  0.00    -0.030 A 
ATOM     13  C   UNL     1      -2.701   3.910  25.210  0.00  0.00    -0.046 A 
ATOM     14  C   UNL     1      -4.561   2.685  24.274  0.00  0.00    +0.005 A 
ATOM     15  C   UNL     1      -3.479   4.245  26.317  0.00  0.00    +0.003 A 
ATOM     16  C   UNL     1      -1.291   4.397  25.139  0.00  0.00    +0.044 C 
ATOM     17  C   UNL     1      -5.339   3.020  25.382  0.00  0.00    +0.000 A 
ATOM     18  C   UNL     1      -4.798   3.800  26.404  0.00  0.00    +0.000 A 
ENDBRANCH  11  12
ENDBRANCH   3  11
TORSDOF 2
ENDMDL
MODEL 3
REMARK VINA RESULT:      -5.5      2.754      5.013
REMARK  Name = 75537039
REMARK  3 active torsions:
REMARK  status: ('A' for Active; 'I' for Inactive)
REMARK    1  A    between atoms: N_3  and  C_11
REMARK    2  A    between atoms: C_11  and  C_12
REMARK    3  A    between atoms: C_13  and  C_16
REMARK                            x       y       z     vdW  Elec       q    Type
REMARK                         _______ _______ _______ _____ _____    ______ ____
ROOT
ATOM      1  O   UNL     1       1.531  -0.573  22.685  0.00  0.00    -0.253 OA
ATOM      2  N   UNL     1      -0.263  -0.186  24.158  0.00  0.00    -0.279 N 
ATOM      3  N   UNL     1      -2.903  -0.100  25.122  0.00  0.00    -0.295 NA
ATOM      4  N   UNL     1       1.299   1.409  23.920  0.00  0.00    -0.297 N 
ATOM      5  C   UNL     1      -0.622   0.825  25.131  0.00  0.00    +0.109 C 
ATOM      6  C   UNL     1      -2.113   1.145  25.036  0.00  0.00    +0.109 C 
ATOM      7  C   UNL     1      -1.063  -1.389  24.056  0.00  0.00    +0.125 C 
ATOM      8  C   UNL     1       0.308   1.989  24.798  0.00  0.00    +0.129 C 
ATOM      9  C   UNL     1      -2.550  -1.025  24.026  0.00  0.00    +0.104 C 
ATOM     10  C   UNL     1       0.927   0.121  23.491  0.00  0.00    +0.303 C 
ATOM     19  H   UNL     1       2.123   1.899  23.583  0.00  0.00    +0.150 HD
ENDROOT
BRANCH   3  11
ATOM     11  C   UNL     1      -4.334   0.201  25.094  0.00  0.00    +0.120 C 
BRANCH  11  12
ATOM     12  C   UNL     1      -4.594   1.681  25.003  0.00  0.00    -0.030 A 
ATOM     13  C   UNL     1      -5.569   2.288  25.795  0.00  0.00    -0.046 A 
ATOM     14  C   UNL     1      -3.846   2.446  24.110  0.00  0.00    +0.005 A 
ATOM     15  C   UNL     1      -5.794   3.661  25.694  0.00  0.00    +0.003 A 
ATOM     16  C   UNL     1      -6.384   1.488  26.758  0.00  0.00    +0.044 C 
ATOM     17  C   UNL     1      -4.071   3.819  24.009  0.00  0.00    +0.000 A 
ATOM     18  C   UNL     1      -5.044   4.427  24.801  0.00  0.00    +0.000 A 
ENDBRANCH  11  12
ENDBRANCH   3  11
TORSDOF 2
ENDMDL
MODEL 4
REMARK VINA RESULT:      -5.4      2.968      5.577
REMARK  Name = 75537039
REMARK  3 active torsions:
REMARK  status: ('A' for Active; 'I' for Inactive)
REMARK    1  A    between atoms: N_3  and  C_11
REMARK    2  A    between atoms: C_11  and  C_12
REMARK    3  A    between atoms: C_13  and  C_16
REMARK                            x       y       z     vdW  Elec       q    Type
REMARK                         _______ _______ _______ _____ _____    ______ ____
ROOT
ATOM      1  O   UNL     1      -1.708  -3.553  23.552  0.00  0.00    -0.253 OA
ATOM      2  N   UNL     1      -2.781  -1.788  24.678  0.00  0.00    -0.279 N 
ATOM      3  N   UNL     1      -4.397   0.478  25.083  0.00  0.00    -0.295 NA
ATOM      4  N   UNL     1      -0.611  -2.176  25.103  0.00  0.00    -0.297 N 
ATOM      5  C   UNL     1      -2.448  -0.871  25.748  0.00  0.00    +0.109 C 
ATOM      6  C   UNL     1      -2.961   0.532  25.423  0.00  0.00    +0.109 C 
ATOM      7  C   UNL     1      -4.135  -1.819  24.165  0.00  0.00    +0.125 C 
ATOM      8  C   UNL     1      -0.931  -0.989  25.863  0.00  0.00    +0.129 C 
ATOM      9  C   UNL     1      -4.629  -0.392  23.912  0.00  0.00    +0.104 C 
ATOM     10  C   UNL     1      -1.710  -2.623  24.346  0.00  0.00    +0.303 C 
ATOM     19  H   UNL     1       0.315  -2.591  25.051  0.00  0.00    +0.150 HD
ENDROOT
BRANCH   3  11
ATOM     11  C   UNL     1      -4.913   1.822  24.829  0.00  0.00    +0.120 C 
BRANCH  11  12
ATOM     12  C   UNL     1      -3.842   2.870  24.978  0.00  0.00    -0.030 A 
ATOM     13  C   UNL     1      -2.934   3.121  23.948  0.00  0.00    -0.046 A 
ATOM     14  C   UNL     1      -3.764   3.595  26.166  0.00  0.00    +0.005 A 
ATOM     15  C   UNL     1      -1.951   4.096  24.106  0.00  0.00    +0.003 A 
ATOM     16  C   UNL     1      -2.998   2.357  22.666  0.00  0.00    +0.044 C 
ATOM     17  C   UNL     1      -2.779   4.570  26.325  0.00  0.00    +0.000 A 
ATOM     18  C   UNL     1      -1.873   4.821  25.296  0.00  0.00    +0.000 A 
ENDBRANCH  11  12
ENDBRANCH   3  11
TORSDOF 2
ENDMDL
MODEL 5
REMARK VINA RESULT:      -5.0      1.830      2.848
REMARK  Name = 75537039
REMARK  3 active torsions:
REMARK  status: ('A' for Active; 'I' for Inactive)
REMARK    1  A    between atoms: N_3  and  C_11
REMARK    2  A    between atoms: C_11  and  C_12
REMARK    3  A    between atoms: C_13  and  C_16
REMARK                            x       y       z     vdW  Elec       q    Type
REMARK                         _______ _______ _______ _____ _____    ______ ____
ROOT
ATOM      1  O   UNL     1      -5.858   4.392  25.408  0.00  0.00    -0.253 OA
ATOM      2  N   UNL     1      -3.765   3.514  24.785  0.00  0.00    -0.279 N 
ATOM      3  N   UNL     1      -1.874   1.728  23.716  0.00  0.00    -0.295 NA
ATOM      4  N   UNL     1      -3.992   4.409  26.832  0.00  0.00    -0.297 N 
ATOM      5  C   UNL     1      -2.431   3.486  25.346  0.00  0.00    +0.109 C 
ATOM      6  C   UNL     1      -1.798   2.111  25.140  0.00  0.00    +0.109 C 
ATOM      7  C   UNL     1      -3.980   3.022  23.440  0.00  0.00    +0.125 C 
ATOM      8  C   UNL     1      -2.646   3.883  26.804  0.00  0.00    +0.129 C 
ATOM      9  C   UNL     1      -3.278   1.673  23.260  0.00  0.00    +0.104 C 
ATOM     10  C   UNL     1      -4.684   4.137  25.636  0.00  0.00    +0.303 C 
ATOM     19  H   UNL     1      -4.420   4.846  27.643  0.00  0.00    +0.150 HD
ENDROOT
BRANCH   3  11
ATOM     11  C   UNL     1      -1.217   0.440  23.498  0.00  0.00    +0.120 C 
BRANCH  11  12
ATOM     12  C   UNL     1      -2.087  -0.712  23.924  0.00  0.00    -0.030 A 
ATOM     13  C   UNL     1      -1.589  -1.721  24.750  0.00  0.00    -0.046 A 
ATOM     14  C   UNL     1      -3.408  -0.764  23.481  0.00  0.00    +0.005 A 
ATOM     15  C   UNL     1      -2.412  -2.779  25.133  0.00  0.00    +0.003 A 
ATOM     16  C   UNL     1      -0.178  -1.687  25.237  0.00  0.00    +0.044 C 
ATOM     17  C   UNL     1      -4.232  -1.823  23.863  0.00  0.00    +0.000 A 
ATOM     18  C   UNL     1      -3.734  -2.831  24.689  0.00  0.00    +0.000 A 
ENDBRANCH  11  12
ENDBRANCH   3  11
TORSDOF 2
ENDMDL
MODEL 6
REMARK VINA RESULT:      -4.9      1.421      2.882
REMARK  Name = 75537039
REMARK  3 active torsions:
REMARK  status: ('A' for Active; 'I' for Inactive)
REMARK    1  A    between atoms: N_3  and  C_11
REMARK    2  A    between atoms: C_11  and  C_12
REMARK    3  A    between atoms: C_13  and  C_16
REMARK                            x       y       z     vdW  Elec       q    Type
REMARK                         _______ _______ _______ _____ _____    ______ ____
ROOT
ATOM      1  O   UNL     1      -1.190   6.052  25.003  0.00  0.00    -0.253 OA
ATOM      2  N   UNL     1      -1.195   3.721  25.329  0.00  0.00    -0.279 N 
ATOM      3  N   UNL     1      -0.658   1.000  24.869  0.00  0.00    -0.295 NA
ATOM      4  N   UNL     1      -3.121   4.849  25.577  0.00  0.00    -0.297 N 
ATOM      5  C   UNL     1      -2.141   2.731  25.799  0.00  0.00    +0.109 C 
ATOM      6  C   UNL     1      -2.057   1.469  24.940  0.00  0.00    +0.109 C 
ATOM      7  C   UNL     1       0.178   3.332  25.083  0.00  0.00    +0.125 C 
ATOM      8  C   UNL     1      -3.481   3.459  25.742  0.00  0.00    +0.129 C 
ATOM      9  C   UNL     1       0.214   2.033  24.274  0.00  0.00    +0.104 C 
ATOM     10  C   UNL     1      -1.755   5.002  25.272  0.00  0.00    +0.303 C 
ATOM     19  H   UNL     1      -3.784   5.618  25.592  0.00  0.00    +0.150 HD
ENDROOT
BRANCH   3  11
ATOM     11  C   UNL     1      -0.575  -0.241  24.099  0.00  0.00    +0.120 C 
BRANCH  11  12
ATOM     12  C   UNL     1      -1.851  -1.036  24.179  0.00  0.00    -0.030 A 
ATOM     13  C   UNL     1      -1.873  -2.302  24.766  0.00  0.00    -0.046 A 
ATOM     14  C   UNL     1      -3.022  -0.492  23.654  0.00  0.00    +0.005 A 
ATOM     15  C   UNL     1      -3.065  -3.021  24.829  0.00  0.00    +0.003 A 
ATOM     16  C   UNL     1      -0.630  -2.906  25.334  0.00  0.00    +0.044 C 
ATOM     17  C   UNL     1      -4.216  -1.211  23.717  0.00  0.00    +0.000 A 
ATOM     18  C   UNL     1      -4.237  -2.476  24.305  0.00  0.00    +0.000 A 
ENDBRANCH  11  12
ENDBRANCH   3  11
TORSDOF 2
ENDMDL
MODEL 7
REMARK VINA RESULT:      -4.7      2.490      3.692
REMARK  Name = 75537039
REMARK  3 active torsions:
REMARK  status: ('A' for Active; 'I' for Inactive)
REMARK    1  A    between atoms: N_3  and  C_11
REMARK    2  A    between atoms: C_11  and  C_12
REMARK    3  A    between atoms: C_13  and  C_16
REMARK                            x       y       z     vdW  Elec       q    Type
REMARK                         _______ _______ _______ _____ _____    ______ ____
ROOT
ATOM      1  O   UNL     1      -6.758   1.994  24.596  0.00  0.00    -0.253 OA
ATOM      2  N   UNL     1      -4.529   2.732  24.433  0.00  0.00    -0.279 N 
ATOM      3  N   UNL     1      -1.754   2.641  23.990  0.00  0.00    -0.295 NA
ATOM      4  N   UNL     1      -5.743   3.354  26.217  0.00  0.00    -0.297 N 
ATOM      5  C   UNL     1      -3.673   3.648  25.156  0.00  0.00    +0.109 C 
ATOM      6  C   UNL     1      -2.272   3.057  25.309  0.00  0.00    +0.109 C 
ATOM      7  C   UNL     1      -4.059   2.147  23.195  0.00  0.00    +0.125 C 
ATOM      8  C   UNL     1      -4.420   3.878  26.467  0.00  0.00    +0.129 C 
ATOM      9  C   UNL     1      -2.631   1.623  23.376  0.00  0.00    +0.104 C 
ATOM     10  C   UNL     1      -5.794   2.616  25.019  0.00  0.00    +0.303 C 
ATOM     19  H   UNL     1      -6.522   3.432  26.864  0.00  0.00    +0.150 HD
ENDROOT
BRANCH   3  11
ATOM     11  C   UNL     1      -0.390   2.129  24.116  0.00  0.00    +0.120 C 
BRANCH  11  12
ATOM     12  C   UNL     1      -0.370   0.688  24.553  0.00  0.00    -0.030 A 
ATOM     13  C   UNL     1       0.347  -0.270  23.836  0.00  0.00    -0.046 A 
ATOM     14  C   UNL     1      -1.083   0.316  25.692  0.00  0.00    +0.005 A 
ATOM     15  C   UNL     1       0.352  -1.598  24.259  0.00  0.00    +0.003 A 
ATOM     16  C   UNL     1       1.117   0.105  22.612  0.00  0.00    +0.044 C 
ATOM     17  C   UNL     1      -1.078  -1.013  26.115  0.00  0.00    +0.000 A 
ATOM     18  C   UNL     1      -0.361  -1.970  25.399  0.00  0.00    +0.000 A 
ENDBRANCH  11  12
ENDBRANCH   3  11
TORSDOF 2
ENDMDL
MODEL 8
REMARK VINA RESULT:      -3.7      1.787      3.041
REMARK  Name = 75537039
REMARK  3 active torsions:
REMARK  status: ('A' for Active; 'I' for Inactive)
REMARK    1  A    between atoms: N_3  and  C_11
REMARK    2  A    between atoms: C_11  and  C_12
REMARK    3  A    between atoms: C_13  and  C_16
REMARK                            x       y       z     vdW  Elec       q    Type
REMARK                         _______ _______ _______ _____ _____    ______ ____
ROOT
ATOM      1  O   UNL     1      -0.099   5.012  23.299  0.00  0.00    -0.253 OA
ATOM      2  N   UNL     1      -0.185   3.084  24.646  0.00  0.00    -0.279 N 
ATOM      3  N   UNL     1      -0.348   0.363  25.336  0.00  0.00    -0.295 NA
ATOM      4  N   UNL     1      -1.445   4.853  25.215  0.00  0.00    -0.297 N 
ATOM      5  C   UNL     1      -0.780   2.716  25.914  0.00  0.00    +0.109 C 
ATOM      6  C   UNL     1      -1.368   1.308  25.835  0.00  0.00    +0.109 C 
ATOM      7  C   UNL     1       0.721   2.162  23.993  0.00  0.00    +0.125 C 
ATOM      8  C   UNL     1      -1.798   3.825  26.167  0.00  0.00    +0.129 C 
ATOM      9  C   UNL     1       0.120   0.754  23.991  0.00  0.00    +0.104 C 
ATOM     10  C   UNL     1      -0.515   4.388  24.265  0.00  0.00    +0.303 C 
ATOM     19  H   UNL     1      -1.875   5.773  25.179  0.00  0.00    +0.150 HD
ENDROOT
BRANCH   3  11
ATOM     11  C   UNL     1      -0.881  -0.999  25.314  0.00  0.00    +0.120 C 
BRANCH  11  12
ATOM     12  C   UNL     1      -2.325  -1.028  24.887  0.00  0.00    -0.030 A 
ATOM     13  C   UNL     1      -2.897  -2.192  24.373  0.00  0.00    -0.046 A 
ATOM     14  C   UNL     1      -3.092   0.130  25.011  0.00  0.00    +0.005 A 
ATOM     15  C   UNL     1      -4.236  -2.198  23.984  0.00  0.00    +0.003 A 
ATOM     16  C   UNL     1      -2.095  -3.444  24.231  0.00  0.00    +0.044 C 
ATOM     17  C   UNL     1      -4.431   0.124  24.621  0.00  0.00    +0.000 A 
ATOM     18  C   UNL     1      -5.004  -1.039  24.108  0.00  0.00    +0.000 A 
ENDBRANCH  11  12
ENDBRANCH   3  11
TORSDOF 2
ENDMDL
MODEL 9
REMARK VINA RESULT:      -3.6      2.666      4.410
REMARK  Name = 75537039
REMARK  3 active torsions:
REMARK  status: ('A' for Active; 'I' for Inactive)
REMARK    1  A    between atoms: N_3  and  C_11
REMARK    2  A    between atoms: C_11  and  C_12
REMARK    3  A    between atoms: C_13  and  C_16
REMARK                            x       y       z     vdW  Elec       q    Type
REMARK                         _______ _______ _______ _____ _____    ______ ____
ROOT
ATOM      1  O   UNL     1      -7.296   1.807  25.557  0.00  0.00    -0.253 OA
ATOM      2  N   UNL     1      -5.020   1.641  24.978  0.00  0.00    -0.279 N 
ATOM      3  N   UNL     1      -2.406   0.614  24.856  0.00  0.00    -0.295 NA
ATOM      4  N   UNL     1      -5.820   3.630  25.648  0.00  0.00    -0.297 N 
ATOM      5  C   UNL     1      -3.914   2.558  24.802  0.00  0.00    +0.109 C 
ATOM      6  C   UNL     1      -2.636   1.968  25.397  0.00  0.00    +0.109 C 
ATOM      7  C   UNL     1      -4.854   0.249  24.615  0.00  0.00    +0.125 C 
ATOM      8  C   UNL     1      -4.402   3.841  25.469  0.00  0.00    +0.129 C 
ATOM      9  C   UNL     1      -3.534  -0.282  25.180  0.00  0.00    +0.104 C 
ATOM     10  C   UNL     1      -6.183   2.291  25.407  0.00  0.00    +0.303 C 
ATOM     19  H   UNL     1      -6.466   4.336  25.988  0.00  0.00    +0.150 HD
ENDROOT
BRANCH   3  11
ATOM     11  C   UNL     1      -1.153   0.064  25.373  0.00  0.00    +0.120 C 
BRANCH  11  12
ATOM     12  C   UNL     1      -0.016   0.254  24.406  0.00  0.00    -0.030 A 
ATOM     13  C   UNL     1       0.740   1.428  24.408  0.00  0.00    -0.046 A 
ATOM     14  C   UNL     1       0.279  -0.761  23.497  0.00  0.00    +0.005 A 
ATOM     15  C   UNL     1       1.789   1.584  23.504  0.00  0.00    +0.003 A 
ATOM     16  C   UNL     1       0.442   2.530  25.372  0.00  0.00    +0.044 C 
ATOM     17  C   UNL     1       1.329  -0.605  22.592  0.00  0.00    +0.000 A 
ATOM     18  C   UNL     1       2.084   0.567  22.595  0.00  0.00    +0.000 A 
ENDBRANCH  11  12
ENDBRANCH   3  11
TORSDOF 2
ENDMDL
MODEL 10
REMARK VINA RESULT:      -3.6      1.913      3.000
REMARK  Name = 75537039
REMARK  3 active torsions:
REMARK  status: ('A' for Active; 'I' for Inactive)
REMARK    1  A    between atoms: N_3  and  C_11
REMARK    2  A    between atoms: C_11  and  C_12
REMARK    3  A    between atoms: C_13  and  C_16
REMARK                            x       y       z     vdW  Elec       q    Type
REMARK                         _______ _______ _______ _____ _____    ______ ____
ROOT
ATOM      1  O   UNL     1      -6.257   5.476  25.313  0.00  0.00    -0.253 OA
ATOM      2  N   UNL     1      -4.855   3.587  25.235  0.00  0.00    -0.279 N 
ATOM      3  N   UNL     1      -3.128   1.635  24.180  0.00  0.00    -0.295 NA
ATOM      4  N   UNL     1      -6.823   3.427  26.306  0.00  0.00    -0.297 N 
ATOM      5  C   UNL     1      -4.841   2.267  25.830  0.00  0.00    +0.109 C 
ATOM      6  C   UNL     1      -4.404   1.226  24.801  0.00  0.00    +0.109 C 
ATOM      7  C   UNL     1      -3.708   4.035  24.474  0.00  0.00    +0.125 C 
ATOM      8  C   UNL     1      -6.265   2.095  26.355  0.00  0.00    +0.129 C 
ATOM      9  C   UNL     1      -3.267   2.939  23.501  0.00  0.00    +0.104 C 
ATOM     10  C   UNL     1      -6.000   4.311  25.583  0.00  0.00    +0.303 C 
ATOM     19  H   UNL     1      -7.736   3.679  26.673  0.00  0.00    +0.150 HD
ENDROOT
BRANCH   3  11
ATOM     11  C   UNL     1      -2.670   0.616  23.237  0.00  0.00    +0.120 C 
BRANCH  11  12
ATOM     12  C   UNL     1      -2.052  -0.563  23.941  0.00  0.00    -0.030 A 
ATOM     13  C   UNL     1      -2.793  -1.719  24.191  0.00  0.00    -0.046 A 
ATOM     14  C   UNL     1      -0.720  -0.488  24.347  0.00  0.00    +0.005 A 
ATOM     15  C   UNL     1      -2.201  -2.799  24.845  0.00  0.00    +0.003 A 
ATOM     16  C   UNL     1      -4.221  -1.822  23.767  0.00  0.00    +0.044 C 
ATOM     17  C   UNL     1      -0.129  -1.568  25.001  0.00  0.00    +0.000 A 
ATOM     18  C   UNL     1      -0.868  -2.724  25.250  0.00  0.00    +0.000 A 
ENDBRANCH  11  12
ENDBRANCH   3  11
TORSDOF 2
ENDMDL
