MODEL 1
REMARK VINA RESULT:       0.2      0.000      0.000
REMARK  Name = 25389393
REMARK  10 active torsions:
REMARK  status: ('A' for Active; 'I' for Inactive)
REMARK    1  A    between atoms: S_1  and  N_7
REMARK    2  A    between atoms: S_1  and  C_24
REMARK    3  A    between atoms: O_4  and  C_34
REMARK    4  A    between atoms: O_4  and  C_35
REMARK    5  A    between atoms: N_6  and  C_15
REMARK    6  A    between atoms: N_7  and  C_16
REMARK    7  A    between atoms: C_9  and  C_15
REMARK    8  A    between atoms: C_10  and  C_16
REMARK    9  A    between atoms: C_19  and  C_22
REMARK   10  A    between atoms: C_22  and  C_23
REMARK                            x       y       z     vdW  Elec       q    Type
REMARK                         _______ _______ _______ _____ _____    ______ ____
ROOT
ATOM      5  N   UNL     1      -3.628   4.781  24.033  0.00  0.00    -0.298 NA
ATOM      8  C   UNL     1      -1.678   4.415  25.715  0.00  0.00    -0.003 C 
ATOM      9  C   UNL     1      -1.733   3.271  24.677  0.00  0.00    +0.020 C 
ATOM     10  C   UNL     1      -4.136   4.868  25.429  0.00  0.00    +0.072 C 
ATOM     11  C   UNL     1      -3.030   4.505  26.446  0.00  0.00    +0.024 C 
ATOM     12  C   UNL     1      -2.990   3.463  23.800  0.00  0.00    +0.089 C 
ATOM     13  C   UNL     1      -1.496   5.726  24.927  0.00  0.00    +0.019 C 
ATOM     14  C   UNL     1      -2.597   5.832  23.857  0.00  0.00    +0.085 C 
ENDROOT
BRANCH   9  15
ATOM     15  C   UNL     1      -1.694   1.881  25.310  0.00  0.00    +0.089 C 
BRANCH  15   6
ATOM      6  N   UNL     1      -0.633   1.094  24.683  0.00  0.00    -0.302 NA
ATOM     17  C   UNL     1       0.532   1.940  24.394  0.00  0.00    +0.084 C 
ATOM     18  C   UNL     1      -1.129   0.440  23.464  0.00  0.00    +0.084 C 
ATOM     19  C   UNL     1       1.217   0.383  22.522  0.00  0.00    -0.004 C 
ATOM     20  C   UNL     1       1.672   1.121  23.786  0.00  0.00    +0.019 C 
ATOM     21  C   UNL     1      -0.046  -0.431  22.825  0.00  0.00    +0.019 C 
BRANCH  19  22
ATOM     22  C   UNL     1       2.328  -0.510  21.978  0.00  0.00    +0.038 C 
BRANCH  22  23
ATOM     23  C   UNL     1       3.591  -0.379  22.784  0.00  0.00    -0.047 A 
ATOM     25  C   UNL     1       4.320   0.810  22.749  0.00  0.00    +0.003 A 
ATOM     26  C   UNL     1       4.033  -1.445  23.567  0.00  0.00    +0.003 A 
ATOM     29  C   UNL     1       5.491   0.933  23.497  0.00  0.00    +0.000 A 
ATOM     30  C   UNL     1       5.204  -1.322  24.315  0.00  0.00    +0.000 A 
ATOM     31  C   UNL     1       5.933  -0.134  24.281  0.00  0.00    +0.000 A 
ENDBRANCH  22  23
ENDBRANCH  19  22
ENDBRANCH  15   6
ENDBRANCH   9  15
BRANCH  10  16
ATOM     16  C   UNL     1      -5.400   4.031  25.644  0.00  0.00    +0.124 C 
BRANCH  16   7
ATOM      7  N   UNL     1      -5.016   2.667  26.040  0.00  0.00    -0.188 NA
ATOM     36  H   UNL     1      -4.009   2.464  26.076  0.00  0.00    +0.148 HD
BRANCH   7   1
ATOM      1  S   UNL     1      -6.046   1.354  25.698  0.00  0.00    +0.058 S 
ATOM      2  O   UNL     1      -6.798   1.637  24.491  0.00  0.00    -0.153 OA
ATOM      3  O   UNL     1      -6.735   0.962  26.912  0.00  0.00    -0.153 OA
BRANCH   1  24
ATOM     24  C   UNL     1      -4.885   0.073  25.328  0.00  0.00    +0.105 A 
ATOM     27  C   UNL     1      -4.019  -0.391  26.318  0.00  0.00    +0.032 A 
ATOM     28  C   UNL     1      -4.835  -0.474  24.045  0.00  0.00    +0.032 A 
ATOM     32  C   UNL     1      -3.103  -1.402  26.026  0.00  0.00    +0.047 A 
ATOM     33  C   UNL     1      -3.920  -1.484  23.753  0.00  0.00    +0.047 A 
ATOM     34  C   UNL     1      -3.053  -1.948  24.743  0.00  0.00    +0.120 A 
BRANCH  34   4
ATOM      4  O   UNL     1      -2.158  -2.934  24.457  0.00  0.00    -0.495 OA
ATOM     35  C   UNL     1      -0.854  -2.809  25.024  0.00  0.00    +0.277 C 
ENDBRANCH  34   4
ENDBRANCH   1  24
ENDBRANCH   7   1
ENDBRANCH  16   7
ENDBRANCH  10  16
TORSDOF 9
ENDMDL
MODEL 2
REMARK VINA RESULT:       3.4      2.965      7.583
REMARK  Name = 25389393
REMARK  10 active torsions:
REMARK  status: ('A' for Active; 'I' for Inactive)
REMARK    1  A    between atoms: S_1  and  N_7
REMARK    2  A    between atoms: S_1  and  C_24
REMARK    3  A    between atoms: O_4  and  C_34
REMARK    4  A    between atoms: O_4  and  C_35
REMARK    5  A    between atoms: N_6  and  C_15
REMARK    6  A    between atoms: N_7  and  C_16
REMARK    7  A    between atoms: C_9  and  C_15
REMARK    8  A    between atoms: C_10  and  C_16
REMARK    9  A    between atoms: C_19  and  C_22
REMARK   10  A    between atoms: C_22  and  C_23
REMARK                            x       y       z     vdW  Elec       q    Type
REMARK                         _______ _______ _______ _____ _____    ______ ____
ROOT
ATOM      5  N   UNL     1      -1.313  -2.601  24.738  0.00  0.00    -0.298 NA
ATOM      8  C   UNL     1      -3.629  -2.123  25.823  0.00  0.00    -0.003 C 
ATOM      9  C   UNL     1      -3.773  -2.376  24.305  0.00  0.00    +0.020 C 
ATOM     10  C   UNL     1      -1.257  -1.339  25.524  0.00  0.00    +0.072 C 
ATOM     11  C   UNL     1      -2.656  -0.953  26.055  0.00  0.00    +0.024 C 
ATOM     12  C   UNL     1      -2.361  -2.509  23.692  0.00  0.00    +0.089 C 
ATOM     13  C   UNL     1      -2.980  -3.383  26.426  0.00  0.00    +0.019 C 
ATOM     14  C   UNL     1      -1.681  -3.699  25.664  0.00  0.00    +0.085 C 
ENDROOT
BRANCH   9  15
ATOM     15  C   UNL     1      -4.599  -1.306  23.592  0.00  0.00    +0.089 C 
BRANCH  15   6
ATOM      6  N   UNL     1      -4.264   0.008  24.141  0.00  0.00    -0.302 NA
ATOM     17  C   UNL     1      -5.436   0.603  24.797  0.00  0.00    +0.084 C 
ATOM     18  C   UNL     1      -3.742   0.887  23.087  0.00  0.00    +0.084 C 
ATOM     19  C   UNL     1      -4.507   2.919  24.383  0.00  0.00    -0.004 C 
ATOM     20  C   UNL     1      -5.089   1.956  25.423  0.00  0.00    +0.019 C 
ATOM     21  C   UNL     1      -3.337   2.249  23.655  0.00  0.00    +0.019 C 
BRANCH  19  22
ATOM     22  C   UNL     1      -4.070   4.229  25.033  0.00  0.00    +0.038 C 
BRANCH  22  23
ATOM     23  C   UNL     1      -2.574   4.313  25.162  0.00  0.00    -0.047 A 
ATOM     25  C   UNL     1      -1.869   3.284  25.787  0.00  0.00    +0.003 A 
ATOM     26  C   UNL     1      -1.891   5.420  24.657  0.00  0.00    +0.003 A 
ATOM     29  C   UNL     1      -0.481   3.361  25.906  0.00  0.00    +0.000 A 
ATOM     30  C   UNL     1      -0.504   5.497  24.777  0.00  0.00    +0.000 A 
ATOM     31  C   UNL     1       0.202   4.468  25.400  0.00  0.00    +0.000 A 
ENDBRANCH  22  23
ENDBRANCH  19  22
ENDBRANCH  15   6
ENDBRANCH   9  15
BRANCH  10  16
ATOM     16  C   UNL     1      -0.611  -0.193  24.742  0.00  0.00    +0.124 C 
BRANCH  16   7
ATOM      7  N   UNL     1       0.508  -0.720  23.946  0.00  0.00    -0.188 NA
ATOM     36  H   UNL     1       1.105  -1.423  24.399  0.00  0.00    +0.148 HD
BRANCH   7   1
ATOM      1  S   UNL     1       1.246   0.251  22.756  0.00  0.00    +0.058 S 
ATOM      2  O   UNL     1       0.918   1.642  23.002  0.00  0.00    -0.153 OA
ATOM      3  O   UNL     1       1.008  -0.334  21.451  0.00  0.00    -0.153 OA
BRANCH   1  24
ATOM     24  C   UNL     1       2.961   0.025  23.118  0.00  0.00    +0.105 A 
ATOM     27  C   UNL     1       3.420  -1.211  23.575  0.00  0.00    +0.032 A 
ATOM     28  C   UNL     1       3.855   1.081  22.948  0.00  0.00    +0.032 A 
ATOM     32  C   UNL     1       4.773  -1.390  23.860  0.00  0.00    +0.047 A 
ATOM     33  C   UNL     1       5.208   0.903  23.234  0.00  0.00    +0.047 A 
ATOM     34  C   UNL     1       5.667  -0.333  23.690  0.00  0.00    +0.120 A 
BRANCH  34   4
ATOM      4  O   UNL     1       6.989  -0.507  23.970  0.00  0.00    -0.495 OA
ATOM     35  C   UNL     1       7.886  -0.547  22.862  0.00  0.00    +0.277 C 
ENDBRANCH  34   4
ENDBRANCH   1  24
ENDBRANCH   7   1
ENDBRANCH  16   7
ENDBRANCH  10  16
TORSDOF 9
ENDMDL
