MODEL 1
REMARK VINA RESULT:       1.2      0.000      0.000
REMARK  Name = 26743596
REMARK  6 active torsions:
REMARK  status: ('A' for Active; 'I' for Inactive)
REMARK    1  A    between atoms: O_1  and  C_9
REMARK    2  A    between atoms: N_3  and  C_11
REMARK    3  A    between atoms: C_7  and  C_12
REMARK    4  A    between atoms: C_11  and  C_13
REMARK    5  A    between atoms: C_16  and  C_20
REMARK    6  A    between atoms: C_19  and  C_21
REMARK                            x       y       z     vdW  Elec       q    Type
REMARK                         _______ _______ _______ _____ _____    ______ ____
ROOT
ATOM      3  N   UNL     1      -3.957   4.023  25.615  0.00  0.00    -0.285 NA
ATOM      7  C   UNL     1      -4.897   3.007  26.130  0.00  0.00    +0.149 C 
ATOM      8  C   UNL     1      -6.296   3.596  25.867  0.00  0.00    +0.061 C 
ATOM      9  C   UNL     1      -6.037   4.962  25.245  0.00  0.00    +0.130 C 
ATOM     10  C   UNL     1      -4.640   5.311  25.721  0.00  0.00    +0.116 C 
ENDROOT
BRANCH   7  12
ATOM      2  O   UNL     1      -5.745   1.170  24.758  0.00  0.00    -0.336 OA
ATOM      4  N   UNL     1      -3.661   0.856  25.520  0.00  0.00    -0.190 NA
ATOM      5  N   UNL     1      -5.334  -0.077  24.269  0.00  0.00    -0.056 NA
ATOM     12  C   UNL     1      -4.702   1.651  25.483  0.00  0.00    +0.245 A 
ATOM     16  C   UNL     1      -4.097  -0.190  24.761  0.00  0.00    +0.202 A 
BRANCH  16  20
ATOM     20  C   UNL     1      -3.270  -1.336  24.511  0.00  0.00    +0.022 A 
ATOM     22  C   UNL     1      -1.884  -1.237  24.646  0.00  0.00    +0.012 A 
ATOM     23  C   UNL     1      -3.849  -2.546  24.134  0.00  0.00    +0.012 A 
ATOM     25  C   UNL     1      -1.079  -2.349  24.402  0.00  0.00    +0.001 A 
ATOM     26  C   UNL     1      -3.044  -3.659  23.890  0.00  0.00    +0.001 A 
ATOM     27  C   UNL     1      -1.659  -3.561  24.025  0.00  0.00    +0.000 A 
ENDBRANCH  16  20
ENDBRANCH   7  12
BRANCH   9   1
ATOM      1  O   UNL     1      -6.994   5.904  25.690  0.00  0.00    -0.390 OA
ATOM     31  H   UNL     1      -7.490   6.208  24.911  0.00  0.00    +0.210 HD
ENDBRANCH   9   1
BRANCH   3  11
ATOM     11  C   UNL     1      -2.676   4.023  26.309  0.00  0.00    +0.120 C 
BRANCH  11  13
ATOM     13  C   UNL     1      -1.622   3.268  25.543  0.00  0.00    -0.033 A 
ATOM     14  C   UNL     1      -0.519   2.739  26.211  0.00  0.00    +0.005 A 
ATOM     15  C   UNL     1      -1.750   3.100  24.164  0.00  0.00    +0.005 A 
ATOM     17  C   UNL     1       0.457   2.039  25.501  0.00  0.00    +0.010 A 
ATOM     18  C   UNL     1      -0.774   2.401  23.454  0.00  0.00    +0.010 A 
ATOM     19  C   UNL     1       0.329   1.870  24.122  0.00  0.00    +0.000 A 
BRANCH  19  21
ATOM      6  N   UNL     1       2.594   1.640  23.498  0.00  0.00    -0.255 NA
ATOM     21  C   UNL     1       1.342   1.145  23.386  0.00  0.00    +0.071 A 
ATOM     24  C   UNL     1       1.013   0.030  22.632  0.00  0.00    +0.028 A 
ATOM     28  C   UNL     1       2.037  -0.619  21.949  0.00  0.00    +0.004 A 
ATOM     29  C   UNL     1       3.563   0.983  22.821  0.00  0.00    +0.111 A 
ATOM     30  C   UNL     1       3.339  -0.139  22.041  0.00  0.00    +0.020 A 
ENDBRANCH  19  21
ENDBRANCH  11  13
ENDBRANCH   3  11
TORSDOF 6
ENDMDL
MODEL 2
REMARK VINA RESULT:       2.1      2.387      4.686
REMARK  Name = 26743596
REMARK  6 active torsions:
REMARK  status: ('A' for Active; 'I' for Inactive)
REMARK    1  A    between atoms: O_1  and  C_9
REMARK    2  A    between atoms: N_3  and  C_11
REMARK    3  A    between atoms: C_7  and  C_12
REMARK    4  A    between atoms: C_11  and  C_13
REMARK    5  A    between atoms: C_16  and  C_20
REMARK    6  A    between atoms: C_19  and  C_21
REMARK                            x       y       z     vdW  Elec       q    Type
REMARK                         _______ _______ _______ _____ _____    ______ ____
ROOT
ATOM      3  N   UNL     1      -3.850   1.490  25.025  0.00  0.00    -0.285 NA
ATOM      7  C   UNL     1      -3.203   2.795  24.779  0.00  0.00    +0.149 C 
ATOM      8  C   UNL     1      -4.177   3.835  25.365  0.00  0.00    +0.061 C 
ATOM      9  C   UNL     1      -5.360   3.021  25.875  0.00  0.00    +0.130 C 
ATOM     10  C   UNL     1      -5.289   1.743  25.063  0.00  0.00    +0.116 C 
ENDROOT
BRANCH   7  12
ATOM      2  O   UNL     1      -0.818   3.282  24.558  0.00  0.00    -0.336 OA
ATOM      4  N   UNL     1      -1.431   2.628  26.611  0.00  0.00    -0.190 NA
ATOM      5  N   UNL     1       0.349   3.285  25.333  0.00  0.00    -0.056 NA
ATOM     12  C   UNL     1      -1.818   2.884  25.386  0.00  0.00    +0.245 A 
ATOM     16  C   UNL     1      -0.094   2.889  26.529  0.00  0.00    +0.202 A 
BRANCH  16  20
ATOM     20  C   UNL     1       0.772   2.744  27.664  0.00  0.00    +0.022 A 
ATOM     22  C   UNL     1       0.247   2.358  28.897  0.00  0.00    +0.012 A 
ATOM     23  C   UNL     1       2.138   2.991  27.535  0.00  0.00    +0.012 A 
ATOM     25  C   UNL     1       1.088   2.218  30.001  0.00  0.00    +0.001 A 
ATOM     26  C   UNL     1       2.980   2.851  28.638  0.00  0.00    +0.001 A 
ATOM     27  C   UNL     1       2.455   2.464  29.871  0.00  0.00    +0.000 A 
ENDBRANCH  16  20
ENDBRANCH   7  12
BRANCH   9   1
ATOM      1  O   UNL     1      -6.575   3.714  25.659  0.00  0.00    -0.390 OA
ATOM     31  H   UNL     1      -6.597   4.464  26.278  0.00  0.00    +0.210 HD
ENDBRANCH   9   1
BRANCH   3  11
ATOM     11  C   UNL     1      -3.495   0.479  24.037  0.00  0.00    +0.120 C 
BRANCH  11  13
ATOM     13  C   UNL     1      -2.004   0.358  23.869  0.00  0.00    -0.033 A 
ATOM     14  C   UNL     1      -1.260  -0.397  24.775  0.00  0.00    +0.005 A 
ATOM     15  C   UNL     1      -1.368   1.001  22.808  0.00  0.00    +0.005 A 
ATOM     17  C   UNL     1       0.122  -0.510  24.620  0.00  0.00    +0.010 A 
ATOM     18  C   UNL     1       0.014   0.888  22.652  0.00  0.00    +0.010 A 
ATOM     19  C   UNL     1       0.759   0.133  23.557  0.00  0.00    +0.000 A 
BRANCH  19  21
ATOM      6  N   UNL     1       2.710  -1.180  23.752  0.00  0.00    -0.255 NA
ATOM     21  C   UNL     1       2.192   0.016  23.396  0.00  0.00    +0.071 A 
ATOM     24  C   UNL     1       2.943   1.074  22.910  0.00  0.00    +0.028 A 
ATOM     28  C   UNL     1       4.316   0.892  22.781  0.00  0.00    +0.004 A 
ATOM     29  C   UNL     1       4.048  -1.321  23.612  0.00  0.00    +0.111 A 
ATOM     30  C   UNL     1       4.886  -0.325  23.136  0.00  0.00    +0.020 A 
ENDBRANCH  19  21
ENDBRANCH  11  13
ENDBRANCH   3  11
TORSDOF 6
ENDMDL
MODEL 3
REMARK VINA RESULT:       2.8      2.842      6.642
REMARK  Name = 26743596
REMARK  6 active torsions:
REMARK  status: ('A' for Active; 'I' for Inactive)
REMARK    1  A    between atoms: O_1  and  C_9
REMARK    2  A    between atoms: N_3  and  C_11
REMARK    3  A    between atoms: C_7  and  C_12
REMARK    4  A    between atoms: C_11  and  C_13
REMARK    5  A    between atoms: C_16  and  C_20
REMARK    6  A    between atoms: C_19  and  C_21
REMARK                            x       y       z     vdW  Elec       q    Type
REMARK                         _______ _______ _______ _____ _____    ______ ____
ROOT
ATOM      3  N   UNL     1       2.426   1.294  23.620  0.00  0.00    -0.285 NA
ATOM      7  C   UNL     1       1.982   0.081  22.904  0.00  0.00    +0.149 C 
ATOM      8  C   UNL     1       3.226  -0.827  22.859  0.00  0.00    +0.061 C 
ATOM      9  C   UNL     1       4.327  -0.019  23.534  0.00  0.00    +0.130 C 
ATOM     10  C   UNL     1       3.862   1.416  23.377  0.00  0.00    +0.116 C 
ENDROOT
BRANCH   7  12
ATOM      2  O   UNL     1       0.968  -0.996  24.850  0.00  0.00    -0.336 OA
ATOM      4  N   UNL     1      -0.396  -0.834  23.080  0.00  0.00    -0.190 NA
ATOM      5  N   UNL     1      -0.247  -1.575  25.240  0.00  0.00    -0.056 NA
ATOM     12  C   UNL     1       0.794  -0.586  23.567  0.00  0.00    +0.245 A 
ATOM     16  C   UNL     1      -0.999  -1.440  24.144  0.00  0.00    +0.202 A 
BRANCH  16  20
ATOM     20  C   UNL     1      -2.356  -1.901  24.078  0.00  0.00    +0.022 A 
ATOM     22  C   UNL     1      -3.366  -1.036  23.656  0.00  0.00    +0.012 A 
ATOM     23  C   UNL     1      -2.667  -3.212  24.436  0.00  0.00    +0.012 A 
ATOM     25  C   UNL     1      -4.686  -1.482  23.593  0.00  0.00    +0.001 A 
ATOM     26  C   UNL     1      -3.986  -3.660  24.373  0.00  0.00    +0.001 A 
ATOM     27  C   UNL     1      -4.996  -2.794  23.951  0.00  0.00    +0.000 A 
ENDBRANCH  16  20
ENDBRANCH   7  12
BRANCH   9   1
ATOM      1  O   UNL     1       5.572  -0.240  22.897  0.00  0.00    -0.390 OA
ATOM     31  H   UNL     1       5.714   0.491  22.272  0.00  0.00    +0.210 HD
ENDBRANCH   9   1
BRANCH   3  11
ATOM     11  C   UNL     1       1.698   2.493  23.223  0.00  0.00    +0.120 C 
BRANCH  11  13
ATOM     13  C   UNL     1       0.278   2.478  23.722  0.00  0.00    -0.033 A 
ATOM     14  C   UNL     1       0.019   2.528  25.092  0.00  0.00    +0.005 A 
ATOM     15  C   UNL     1      -0.779   2.413  22.815  0.00  0.00    +0.005 A 
ATOM     17  C   UNL     1      -1.297   2.514  25.554  0.00  0.00    +0.010 A 
ATOM     18  C   UNL     1      -2.095   2.400  23.277  0.00  0.00    +0.010 A 
ATOM     19  C   UNL     1      -2.354   2.450  24.646  0.00  0.00    +0.000 A 
BRANCH  19  21
ATOM      6  N   UNL     1      -4.242   3.652  25.396  0.00  0.00    -0.255 NA
ATOM     21  C   UNL     1      -3.719   2.436  25.126  0.00  0.00    +0.071 A 
ATOM     24  C   UNL     1      -4.407   1.244  25.285  0.00  0.00    +0.028 A 
ATOM     28  C   UNL     1      -5.716   1.304  25.750  0.00  0.00    +0.004 A 
ATOM     29  C   UNL     1      -5.517   3.672  25.846  0.00  0.00    +0.111 A 
ATOM     30  C   UNL     1      -6.289   2.538  26.038  0.00  0.00    +0.020 A 
ENDBRANCH  19  21
ENDBRANCH  11  13
ENDBRANCH   3  11
TORSDOF 6
ENDMDL
