MODEL 1
REMARK VINA RESULT:       1.0      0.000      0.000
REMARK  Name = 45360777
REMARK  10 active torsions:
REMARK  status: ('A' for Active; 'I' for Inactive)
REMARK    1  A    between atoms: O_3  and  C_24
REMARK    2  A    between atoms: N_6  and  C_11
REMARK    3  A    between atoms: N_6  and  C_18
REMARK    4  A    between atoms: N_8  and  C_30
REMARK    5  A    between atoms: N_8  and  C_31
REMARK    6  A    between atoms: N_8  and  C_32
REMARK    7  A    between atoms: C_10  and  C_15
REMARK    8  A    between atoms: C_15  and  C_17
REMARK    9  A    between atoms: C_17  and  C_19
REMARK   10  A    between atoms: C_18  and  C_25
REMARK                            x       y       z     vdW  Elec       q    Type
REMARK                         _______ _______ _______ _____ _____    ______ ____
ROOT
ATOM      1  O   UNL     1      -3.268   4.221  27.826  0.00  0.00    -0.274 OA
ATOM      4  N   UNL     1      -2.576   3.460  24.324  0.00  0.00    -0.286 NA
ATOM      5  N   UNL     1      -1.492   3.150  26.893  0.00  0.00    -0.313 N 
ATOM      9  C   UNL     1      -3.212   4.193  25.426  0.00  0.00    +0.145 C 
ATOM     10  C   UNL     1      -1.135   3.287  24.469  0.00  0.00    +0.075 C 
ATOM     11  C   UNL     1      -4.784   2.862  24.140  0.00  0.00    +0.070 C 
ATOM     12  C   UNL     1      -4.703   3.839  25.314  0.00  0.00    +0.048 C 
ATOM     13  C   UNL     1      -3.383   2.268  24.074  0.00  0.00    +0.104 C 
ATOM     14  C   UNL     1      -0.806   2.562  25.765  0.00  0.00    +0.123 C 
ATOM     16  C   UNL     1      -2.677   3.839  26.811  0.00  0.00    +0.230 C 
ATOM     33  H   UNL     1      -1.135   2.938  27.820  0.00  0.00    +0.149 HD
ENDROOT
BRANCH  11   6
ATOM      6  N   UNL     1      -5.829   1.864  24.299  0.00  0.00    -0.308 NA
ATOM     34  H   UNL     1      -6.726   2.337  24.418  0.00  0.00    +0.123 HD
BRANCH   6  18
ATOM     18  C   UNL     1      -5.578   1.024  25.463  0.00  0.00    +0.116 C 
BRANCH  18  25
ATOM     25  C   UNL     1      -4.483   0.023  25.206  0.00  0.00    -0.033 A 
ATOM     26  C   UNL     1      -3.337   0.024  26.001  0.00  0.00    +0.007 A 
ATOM     27  C   UNL     1      -4.615  -0.906  24.174  0.00  0.00    +0.007 A 
ATOM     28  C   UNL     1      -2.322  -0.903  25.764  0.00  0.00    +0.023 A 
ATOM     29  C   UNL     1      -3.601  -1.833  23.937  0.00  0.00    +0.023 A 
ATOM     30  C   UNL     1      -2.454  -1.832  24.731  0.00  0.00    +0.029 A 
BRANCH  30   8
ATOM      8  N   UNL     1      -1.429  -2.770  24.491  0.00  0.00    -0.336 N 
ATOM     31  C   UNL     1      -0.220  -2.756  25.291  0.00  0.00    +0.129 C 
ATOM     32  C   UNL     1      -1.566  -3.754  23.436  0.00  0.00    +0.129 C 
ENDBRANCH  30   8
ENDBRANCH  18  25
ENDBRANCH   6  18
ENDBRANCH  11   6
BRANCH  10  15
ATOM     15  C   UNL     1      -0.497   2.586  23.270  0.00  0.00    +0.029 C 
BRANCH  15  17
ATOM     17  C   UNL     1       0.966   2.238  23.510  0.00  0.00    +0.097 C 
BRANCH  17  19
ATOM      2  O   UNL     1       0.261  -0.023  23.567  0.00  0.00    -0.276 OA
ATOM      7  N   UNL     1       2.492   0.355  23.037  0.00  0.00    -0.301 N 
ATOM     19  C   UNL     1       1.199   0.755  23.375  0.00  0.00    +0.216 C 
ATOM     20  C   UNL     1       2.786  -1.066  22.843  0.00  0.00    +0.110 C 
ATOM     21  C   UNL     1       3.627   1.257  22.803  0.00  0.00    +0.110 C 
ATOM     22  C   UNL     1       3.962  -1.503  23.710  0.00  0.00    +0.050 C 
ATOM     23  C   UNL     1       4.819   0.862  23.669  0.00  0.00    +0.050 C 
ATOM     24  C   UNL     1       5.182  -0.610  23.477  0.00  0.00    +0.118 C 
BRANCH  24   3
ATOM      3  O   UNL     1       6.212  -0.952  24.396  0.00  0.00    -0.392 OA
ATOM     35  H   UNL     1       7.009  -1.162  23.879  0.00  0.00    +0.210 HD
ENDBRANCH  24   3
ENDBRANCH  17  19
ENDBRANCH  15  17
ENDBRANCH  10  15
TORSDOF 8
ENDMDL
MODEL 2
REMARK VINA RESULT:       2.4      2.183      6.555
REMARK  Name = 45360777
REMARK  10 active torsions:
REMARK  status: ('A' for Active; 'I' for Inactive)
REMARK    1  A    between atoms: O_3  and  C_24
REMARK    2  A    between atoms: N_6  and  C_11
REMARK    3  A    between atoms: N_6  and  C_18
REMARK    4  A    between atoms: N_8  and  C_30
REMARK    5  A    between atoms: N_8  and  C_31
REMARK    6  A    between atoms: N_8  and  C_32
REMARK    7  A    between atoms: C_10  and  C_15
REMARK    8  A    between atoms: C_15  and  C_17
REMARK    9  A    between atoms: C_17  and  C_19
REMARK   10  A    between atoms: C_18  and  C_25
REMARK                            x       y       z     vdW  Elec       q    Type
REMARK                         _______ _______ _______ _____ _____    ______ ____
ROOT
ATOM      1  O   UNL     1       0.699   2.966  26.602  0.00  0.00    -0.274 OA
ATOM      4  N   UNL     1      -2.206   2.078  24.577  0.00  0.00    -0.286 NA
ATOM      5  N   UNL     1      -0.928   4.294  25.728  0.00  0.00    -0.313 N 
ATOM      9  C   UNL     1      -1.118   1.821  25.530  0.00  0.00    +0.145 C 
ATOM     10  C   UNL     1      -2.986   3.276  24.865  0.00  0.00    +0.075 C 
ATOM     11  C   UNL     1      -0.815   0.673  23.411  0.00  0.00    +0.070 C 
ATOM     12  C   UNL     1      -0.180   0.853  24.791  0.00  0.00    +0.048 C 
ATOM     13  C   UNL     1      -1.647   1.936  23.235  0.00  0.00    +0.104 C 
ATOM     14  C   UNL     1      -2.093   4.507  24.902  0.00  0.00    +0.123 C 
ATOM     16  C   UNL     1      -0.362   3.068  25.978  0.00  0.00    +0.230 C 
ATOM     33  H   UNL     1      -0.425   5.116  26.049  0.00  0.00    +0.149 HD
ENDROOT
BRANCH  11   6
ATOM      6  N   UNL     1       0.163   0.471  22.354  0.00  0.00    -0.308 NA
ATOM     34  H   UNL     1      -0.323   0.405  21.459  0.00  0.00    +0.123 HD
BRANCH   6  18
ATOM     18  C   UNL     1       0.923  -0.754  22.572  0.00  0.00    +0.116 C 
BRANCH  18  25
ATOM     25  C   UNL     1       2.377  -0.471  22.837  0.00  0.00    -0.033 A 
ATOM     26  C   UNL     1       3.162  -1.413  23.502  0.00  0.00    +0.007 A 
ATOM     27  C   UNL     1       2.943   0.734  22.416  0.00  0.00    +0.007 A 
ATOM     28  C   UNL     1       4.510  -1.153  23.747  0.00  0.00    +0.023 A 
ATOM     29  C   UNL     1       4.290   0.995  22.661  0.00  0.00    +0.023 A 
ATOM     30  C   UNL     1       5.074   0.053  23.327  0.00  0.00    +0.029 A 
BRANCH  30   8
ATOM      8  N   UNL     1       6.437   0.317  23.575  0.00  0.00    -0.336 N 
ATOM     31  C   UNL     1       6.829   1.465  24.368  0.00  0.00    +0.129 C 
ATOM     32  C   UNL     1       7.463  -0.551  23.033  0.00  0.00    +0.129 C 
ENDBRANCH  30   8
ENDBRANCH  18  25
ENDBRANCH   6  18
ENDBRANCH  11   6
BRANCH  10  15
ATOM     15  C   UNL     1      -4.153   3.472  23.898  0.00  0.00    +0.029 C 
BRANCH  15  17
ATOM     17  C   UNL     1      -5.241   2.422  24.077  0.00  0.00    +0.097 C 
BRANCH  17  19
ATOM      2  O   UNL     1      -5.080   2.132  26.423  0.00  0.00    -0.276 OA
ATOM      7  N   UNL     1      -4.686   0.251  25.116  0.00  0.00    -0.301 N 
ATOM     19  C   UNL     1      -4.998   1.596  25.315  0.00  0.00    +0.216 C 
ATOM     20  C   UNL     1      -4.482  -0.626  26.271  0.00  0.00    +0.110 C 
ATOM     21  C   UNL     1      -4.580  -0.412  23.810  0.00  0.00    +0.110 C 
ATOM     22  C   UNL     1      -3.139  -1.343  26.179  0.00  0.00    +0.050 C 
ATOM     23  C   UNL     1      -3.240  -1.128  23.675  0.00  0.00    +0.050 C 
ATOM     24  C   UNL     1      -2.996  -2.079  24.845  0.00  0.00    +0.118 C 
BRANCH  24   3
ATOM      3  O   UNL     1      -1.685  -2.619  24.732  0.00  0.00    -0.392 OA
ATOM     35  H   UNL     1      -1.525  -3.168  25.519  0.00  0.00    +0.210 HD
ENDBRANCH  24   3
ENDBRANCH  17  19
ENDBRANCH  15  17
ENDBRANCH  10  15
TORSDOF 8
ENDMDL
MODEL 3
REMARK VINA RESULT:       3.4      2.102      6.386
REMARK  Name = 45360777
REMARK  10 active torsions:
REMARK  status: ('A' for Active; 'I' for Inactive)
REMARK    1  A    between atoms: O_3  and  C_24
REMARK    2  A    between atoms: N_6  and  C_11
REMARK    3  A    between atoms: N_6  and  C_18
REMARK    4  A    between atoms: N_8  and  C_30
REMARK    5  A    between atoms: N_8  and  C_31
REMARK    6  A    between atoms: N_8  and  C_32
REMARK    7  A    between atoms: C_10  and  C_15
REMARK    8  A    between atoms: C_15  and  C_17
REMARK    9  A    between atoms: C_17  and  C_19
REMARK   10  A    between atoms: C_18  and  C_25
REMARK                            x       y       z     vdW  Elec       q    Type
REMARK                         _______ _______ _______ _____ _____    ______ ____
ROOT
ATOM      1  O   UNL     1      -3.226  -2.458  25.890  0.00  0.00    -0.274 OA
ATOM      4  N   UNL     1      -3.961   0.458  23.822  0.00  0.00    -0.286 NA
ATOM      5  N   UNL     1      -4.315  -0.534  26.422  0.00  0.00    -0.313 N 
ATOM      9  C   UNL     1      -3.631  -0.952  24.066  0.00  0.00    +0.145 C 
ATOM     10  C   UNL     1      -5.064   0.967  24.631  0.00  0.00    +0.075 C 
ATOM     11  C   UNL     1      -1.820   0.278  23.014  0.00  0.00    +0.070 C 
ATOM     12  C   UNL     1      -2.210  -1.117  23.505  0.00  0.00    +0.048 C 
ATOM     13  C   UNL     1      -2.705   1.205  23.837  0.00  0.00    +0.104 C 
ATOM     14  C   UNL     1      -4.765   0.804  26.113  0.00  0.00    +0.123 C 
ATOM     16  C   UNL     1      -3.685  -1.369  25.532  0.00  0.00    +0.230 C 
ATOM     33  H   UNL     1      -4.362  -0.832  27.392  0.00  0.00    +0.149 HD
ENDROOT
BRANCH  11   6
ATOM      6  N   UNL     1      -0.400   0.557  23.154  0.00  0.00    -0.308 NA
ATOM     34  H   UNL     1      -0.168   1.383  22.602  0.00  0.00    +0.123 HD
BRANCH   6  18
ATOM     18  C   UNL     1       0.402  -0.567  22.687  0.00  0.00    +0.116 C 
BRANCH  18  25
ATOM     25  C   UNL     1       1.872  -0.337  22.911  0.00  0.00    -0.033 A 
ATOM     26  C   UNL     1       2.667  -1.359  23.433  0.00  0.00    +0.007 A 
ATOM     27  C   UNL     1       2.443   0.897  22.598  0.00  0.00    +0.007 A 
ATOM     28  C   UNL     1       4.029  -1.147  23.641  0.00  0.00    +0.023 A 
ATOM     29  C   UNL     1       3.804   1.110  22.806  0.00  0.00    +0.023 A 
ATOM     30  C   UNL     1       4.599   0.088  23.327  0.00  0.00    +0.029 A 
BRANCH  30   8
ATOM      8  N   UNL     1       5.976   0.302  23.538  0.00  0.00    -0.336 N 
ATOM     31  C   UNL     1       6.430   1.415  24.349  0.00  0.00    +0.129 C 
ATOM     32  C   UNL     1       6.957  -0.581  22.939  0.00  0.00    +0.129 C 
ENDBRANCH  30   8
ENDBRANCH  18  25
ENDBRANCH   6  18
ENDBRANCH  11   6
BRANCH  10  15
ATOM     15  C   UNL     1      -5.426   2.414  24.299  0.00  0.00    +0.029 C 
BRANCH  15  17
ATOM     17  C   UNL     1      -4.928   3.395  25.352  0.00  0.00    +0.097 C 
BRANCH  17  19
ATOM      2  O   UNL     1      -3.979   4.995  23.886  0.00  0.00    -0.276 OA
ATOM      7  N   UNL     1      -2.546   4.042  25.448  0.00  0.00    -0.301 N 
ATOM     19  C   UNL     1      -3.782   4.220  24.825  0.00  0.00    +0.216 C 
ATOM     20  C   UNL     1      -1.395   4.840  25.022  0.00  0.00    +0.110 C 
ATOM     21  C   UNL     1      -2.283   3.126  26.565  0.00  0.00    +0.110 C 
ATOM     22  C   UNL     1      -0.212   3.946  24.670  0.00  0.00    +0.050 C 
ATOM     23  C   UNL     1      -1.114   2.201  26.242  0.00  0.00    +0.050 C 
ATOM     24  C   UNL     1       0.123   2.994  25.820  0.00  0.00    +0.118 C 
BRANCH  24   3
ATOM      3  O   UNL     1       1.135   2.082  25.411  0.00  0.00    -0.392 OA
ATOM     35  H   UNL     1       1.482   2.393  24.557  0.00  0.00    +0.210 HD
ENDBRANCH  24   3
ENDBRANCH  17  19
ENDBRANCH  15  17
ENDBRANCH  10  15
TORSDOF 8
ENDMDL
MODEL 4
REMARK VINA RESULT:       3.6      2.547      6.342
REMARK  Name = 45360777
REMARK  10 active torsions:
REMARK  status: ('A' for Active; 'I' for Inactive)
REMARK    1  A    between atoms: O_3  and  C_24
REMARK    2  A    between atoms: N_6  and  C_11
REMARK    3  A    between atoms: N_6  and  C_18
REMARK    4  A    between atoms: N_8  and  C_30
REMARK    5  A    between atoms: N_8  and  C_31
REMARK    6  A    between atoms: N_8  and  C_32
REMARK    7  A    between atoms: C_10  and  C_15
REMARK    8  A    between atoms: C_15  and  C_17
REMARK    9  A    between atoms: C_17  and  C_19
REMARK   10  A    between atoms: C_18  and  C_25
REMARK                            x       y       z     vdW  Elec       q    Type
REMARK                         _______ _______ _______ _____ _____    ______ ____
ROOT
ATOM      1  O   UNL     1       0.178   5.547  25.000  0.00  0.00    -0.274 OA
ATOM      4  N   UNL     1      -2.483   3.068  25.305  0.00  0.00    -0.286 NA
ATOM      5  N   UNL     1      -2.071   5.791  24.769  0.00  0.00    -0.313 N 
ATOM      9  C   UNL     1      -1.140   3.614  25.536  0.00  0.00    +0.145 C 
ATOM     10  C   UNL     1      -3.567   4.012  25.555  0.00  0.00    +0.075 C 
ATOM     11  C   UNL     1      -1.133   1.645  24.114  0.00  0.00    +0.070 C 
ATOM     12  C   UNL     1      -0.202   2.663  24.776  0.00  0.00    +0.048 C 
ATOM     13  C   UNL     1      -2.457   2.389  24.011  0.00  0.00    +0.104 C 
ATOM     14  C   UNL     1      -3.411   5.254  24.692  0.00  0.00    +0.123 C 
ATOM     16  C   UNL     1      -0.951   5.051  25.060  0.00  0.00    +0.230 C 
ATOM     33  H   UNL     1      -1.934   6.752  24.472  0.00  0.00    +0.149 HD
ENDROOT
BRANCH  11   6
ATOM      6  N   UNL     1      -0.636   1.165  22.834  0.00  0.00    -0.308 NA
ATOM     34  H   UNL     1      -1.414   1.110  22.176  0.00  0.00    +0.123 HD
BRANCH   6  18
ATOM     18  C   UNL     1      -0.034  -0.155  22.968  0.00  0.00    +0.116 C 
BRANCH  18  25
ATOM     25  C   UNL     1       1.465  -0.079  23.079  0.00  0.00    -0.033 A 
ATOM     26  C   UNL     1       2.125   1.118  22.800  0.00  0.00    +0.007 A 
ATOM     27  C   UNL     1       2.196  -1.204  23.460  0.00  0.00    +0.007 A 
ATOM     28  C   UNL     1       3.514   1.191  22.903  0.00  0.00    +0.023 A 
ATOM     29  C   UNL     1       3.584  -1.134  23.563  0.00  0.00    +0.023 A 
ATOM     30  C   UNL     1       4.244   0.064  23.284  0.00  0.00    +0.029 A 
BRANCH  30   8
ATOM      8  N   UNL     1       5.648   0.136  23.387  0.00  0.00    -0.336 N 
ATOM     31  C   UNL     1       6.488  -0.775  22.633  0.00  0.00    +0.129 C 
ATOM     32  C   UNL     1       6.271   1.116  24.254  0.00  0.00    +0.129 C 
ENDBRANCH  30   8
ENDBRANCH  18  25
ENDBRANCH   6  18
ENDBRANCH  11   6
BRANCH  10  15
ATOM     15  C   UNL     1      -4.951   3.389  25.375  0.00  0.00    +0.029 C 
BRANCH  15  17
ATOM     17  C   UNL     1      -5.025   1.969  25.918  0.00  0.00    +0.097 C 
BRANCH  17  19
ATOM      2  O   UNL     1      -6.288   1.097  24.113  0.00  0.00    -0.276 OA
ATOM      7  N   UNL     1      -4.330  -0.033  24.650  0.00  0.00    -0.301 N 
ATOM     19  C   UNL     1      -5.277   0.978  24.811  0.00  0.00    +0.216 C 
ATOM     20  C   UNL     1      -4.481  -1.007  23.567  0.00  0.00    +0.110 C 
ATOM     21  C   UNL     1      -3.120  -0.201  25.466  0.00  0.00    +0.110 C 
ATOM     22  C   UNL     1      -4.432  -2.433  24.106  0.00  0.00    +0.050 C 
ATOM     23  C   UNL     1      -3.045  -1.613  26.037  0.00  0.00    +0.050 C 
ATOM     24  C   UNL     1      -3.169  -2.666  24.937  0.00  0.00    +0.118 C 
BRANCH  24   3
ATOM      3  O   UNL     1      -3.219  -3.954  25.538  0.00  0.00    -0.392 OA
ATOM     35  H   UNL     1      -2.506  -4.488  25.148  0.00  0.00    +0.210 HD
ENDBRANCH  24   3
ENDBRANCH  17  19
ENDBRANCH  15  17
ENDBRANCH  10  15
TORSDOF 8
ENDMDL
MODEL 5
REMARK VINA RESULT:       3.7      2.020      4.540
REMARK  Name = 45360777
REMARK  10 active torsions:
REMARK  status: ('A' for Active; 'I' for Inactive)
REMARK    1  A    between atoms: O_3  and  C_24
REMARK    2  A    between atoms: N_6  and  C_11
REMARK    3  A    between atoms: N_6  and  C_18
REMARK    4  A    between atoms: N_8  and  C_30
REMARK    5  A    between atoms: N_8  and  C_31
REMARK    6  A    between atoms: N_8  and  C_32
REMARK    7  A    between atoms: C_10  and  C_15
REMARK    8  A    between atoms: C_15  and  C_17
REMARK    9  A    between atoms: C_17  and  C_19
REMARK   10  A    between atoms: C_18  and  C_25
REMARK                            x       y       z     vdW  Elec       q    Type
REMARK                         _______ _______ _______ _____ _____    ______ ____
ROOT
ATOM      1  O   UNL     1      -3.605  -3.674  25.247  0.00  0.00    -0.274 OA
ATOM      4  N   UNL     1      -2.452  -0.211  25.271  0.00  0.00    -0.286 NA
ATOM      5  N   UNL     1      -2.048  -2.650  23.944  0.00  0.00    -0.313 N 
ATOM      9  C   UNL     1      -3.069  -1.412  25.847  0.00  0.00    +0.145 C 
ATOM     10  C   UNL     1      -1.178  -0.452  24.600  0.00  0.00    +0.075 C 
ATOM     11  C   UNL     1      -4.652   0.397  25.505  0.00  0.00    +0.070 C 
ATOM     12  C   UNL     1      -4.543  -1.029  26.048  0.00  0.00    +0.048 C 
ATOM     13  C   UNL     1      -3.491   0.493  24.524  0.00  0.00    +0.104 C 
ATOM     14  C   UNL     1      -1.339  -1.476  23.488  0.00  0.00    +0.123 C 
ATOM     16  C   UNL     1      -2.950  -2.662  24.980  0.00  0.00    +0.230 C 
ATOM     33  H   UNL     1      -1.964  -3.494  23.386  0.00  0.00    +0.149 HD
ENDROOT
BRANCH  11   6
ATOM      6  N   UNL     1      -5.945   0.681  24.902  0.00  0.00    -0.308 NA
ATOM     34  H   UNL     1      -5.955   0.315  23.950  0.00  0.00    +0.123 HD
BRANCH   6  18
ATOM     18  C   UNL     1      -6.199   2.115  24.862  0.00  0.00    +0.116 C 
BRANCH  18  25
ATOM     25  C   UNL     1      -4.922   2.912  24.875  0.00  0.00    -0.033 A 
ATOM     26  C   UNL     1      -4.425   3.414  26.078  0.00  0.00    +0.007 A 
ATOM     27  C   UNL     1      -4.234   3.148  23.684  0.00  0.00    +0.007 A 
ATOM     28  C   UNL     1      -3.241   4.152  26.091  0.00  0.00    +0.023 A 
ATOM     29  C   UNL     1      -3.051   3.885  23.696  0.00  0.00    +0.023 A 
ATOM     30  C   UNL     1      -2.554   4.387  24.899  0.00  0.00    +0.029 A 
BRANCH  30   8
ATOM      8  N   UNL     1      -1.357   5.133  24.912  0.00  0.00    -0.336 N 
ATOM     31  C   UNL     1      -1.395   6.580  24.994  0.00  0.00    +0.129 C 
ATOM     32  C   UNL     1      -0.074   4.464  24.835  0.00  0.00    +0.129 C 
ENDBRANCH  30   8
ENDBRANCH  18  25
ENDBRANCH   6  18
ENDBRANCH  11   6
BRANCH  10  15
ATOM     15  C   UNL     1      -0.530   0.830  24.077  0.00  0.00    +0.029 C 
BRANCH  15  17
ATOM     17  C   UNL     1       0.588   0.553  23.083  0.00  0.00    +0.097 C 
BRANCH  17  19
ATOM      2  O   UNL     1       1.051  -1.396  24.348  0.00  0.00    -0.276 OA
ATOM      7  N   UNL     1       2.822  -0.499  23.139  0.00  0.00    -0.301 N 
ATOM     19  C   UNL     1       1.501  -0.538  23.583  0.00  0.00    +0.216 C 
ATOM     20  C   UNL     1       3.757  -1.550  23.545  0.00  0.00    +0.110 C 
ATOM     21  C   UNL     1       3.384   0.509  22.231  0.00  0.00    +0.110 C 
ATOM     22  C   UNL     1       5.011  -0.952  24.173  0.00  0.00    +0.050 C 
ATOM     23  C   UNL     1       4.633   1.144  22.835  0.00  0.00    +0.050 C 
ATOM     24  C   UNL     1       5.653   0.084  23.247  0.00  0.00    +0.118 C 
BRANCH  24   3
ATOM      3  O   UNL     1       6.734   0.722  23.915  0.00  0.00    -0.392 OA
ATOM     35  H   UNL     1       6.364   1.456  24.436  0.00  0.00    +0.210 HD
ENDBRANCH  24   3
ENDBRANCH  17  19
ENDBRANCH  15  17
ENDBRANCH  10  15
TORSDOF 8
ENDMDL
MODEL 6
REMARK VINA RESULT:       4.7      2.117      4.742
REMARK  Name = 45360777
REMARK  10 active torsions:
REMARK  status: ('A' for Active; 'I' for Inactive)
REMARK    1  A    between atoms: O_3  and  C_24
REMARK    2  A    between atoms: N_6  and  C_11
REMARK    3  A    between atoms: N_6  and  C_18
REMARK    4  A    between atoms: N_8  and  C_30
REMARK    5  A    between atoms: N_8  and  C_31
REMARK    6  A    between atoms: N_8  and  C_32
REMARK    7  A    between atoms: C_10  and  C_15
REMARK    8  A    between atoms: C_15  and  C_17
REMARK    9  A    between atoms: C_17  and  C_19
REMARK   10  A    between atoms: C_18  and  C_25
REMARK                            x       y       z     vdW  Elec       q    Type
REMARK                         _______ _______ _______ _____ _____    ______ ____
ROOT
ATOM      1  O   UNL     1      -6.563   1.677  27.556  0.00  0.00    -0.274 OA
ATOM      4  N   UNL     1      -5.066   1.514  24.231  0.00  0.00    -0.286 NA
ATOM      5  N   UNL     1      -5.629   3.325  26.298  0.00  0.00    -0.313 N 
ATOM      9  C   UNL     1      -5.929   1.054  25.326  0.00  0.00    +0.145 C 
ATOM     10  C   UNL     1      -5.201   2.932  23.914  0.00  0.00    +0.075 C 
ATOM     11  C   UNL     1      -4.050  -0.428  24.912  0.00  0.00    +0.070 C 
ATOM     12  C   UNL     1      -5.294  -0.267  25.788  0.00  0.00    +0.048 C 
ATOM     13  C   UNL     1      -3.724   0.999  24.493  0.00  0.00    +0.104 C 
ATOM     14  C   UNL     1      -4.905   3.788  25.136  0.00  0.00    +0.123 C 
ATOM     16  C   UNL     1      -6.047   2.032  26.491  0.00  0.00    +0.230 C 
ATOM     33  H   UNL     1      -5.731   3.972  27.074  0.00  0.00    +0.149 HD
ENDROOT
BRANCH  11   6
ATOM      6  N   UNL     1      -2.954  -1.096  25.596  0.00  0.00    -0.308 NA
ATOM     34  H   UNL     1      -2.261  -0.399  25.873  0.00  0.00    +0.123 HD
BRANCH   6  18
ATOM     18  C   UNL     1      -2.318  -2.078  24.727  0.00  0.00    +0.116 C 
BRANCH  18  25
ATOM     25  C   UNL     1      -0.924  -1.663  24.338  0.00  0.00    -0.033 A 
ATOM     26  C   UNL     1      -0.724  -0.851  23.221  0.00  0.00    +0.007 A 
ATOM     27  C   UNL     1       0.169  -2.088  25.095  0.00  0.00    +0.007 A 
ATOM     28  C   UNL     1       0.567  -0.465  22.860  0.00  0.00    +0.023 A 
ATOM     29  C   UNL     1       1.459  -1.704  24.735  0.00  0.00    +0.023 A 
ATOM     30  C   UNL     1       1.659  -0.892  23.618  0.00  0.00    +0.029 A 
BRANCH  30   8
ATOM      8  N   UNL     1       2.964  -0.503  23.253  0.00  0.00    -0.336 N 
ATOM     31  C   UNL     1       4.106  -1.306  23.643  0.00  0.00    +0.129 C 
ATOM     32  C   UNL     1       3.182   0.710  22.490  0.00  0.00    +0.129 C 
ENDBRANCH  30   8
ENDBRANCH  18  25
ENDBRANCH   6  18
ENDBRANCH  11   6
BRANCH  10  15
ATOM     15  C   UNL     1      -4.343   3.359  22.724  0.00  0.00    +0.029 C 
BRANCH  15  17
ATOM     17  C   UNL     1      -3.071   4.078  23.151  0.00  0.00    +0.097 C 
BRANCH  17  19
ATOM      2  O   UNL     1      -1.792   2.287  22.273  0.00  0.00    -0.276 OA
ATOM      7  N   UNL     1      -0.980   3.291  24.206  0.00  0.00    -0.301 N 
ATOM     19  C   UNL     1      -1.893   3.136  23.163  0.00  0.00    +0.216 C 
ATOM     20  C   UNL     1       0.213   2.444  24.260  0.00  0.00    +0.110 C 
ATOM     21  C   UNL     1      -1.077   4.290  25.277  0.00  0.00    +0.110 C 
ATOM     22  C   UNL     1       0.324   1.745  25.610  0.00  0.00    +0.050 C 
ATOM     23  C   UNL     1      -0.987   3.625  26.647  0.00  0.00    +0.050 C 
ATOM     24  C   UNL     1       0.262   2.751  26.761  0.00  0.00    +0.118 C 
BRANCH  24   3
ATOM      3  O   UNL     1       0.227   2.061  28.004  0.00  0.00    -0.392 OA
ATOM     35  H   UNL     1      -0.656   2.195  28.389  0.00  0.00    +0.210 HD
ENDBRANCH  24   3
ENDBRANCH  17  19
ENDBRANCH  15  17
ENDBRANCH  10  15
TORSDOF 8
ENDMDL
