MODEL 1
REMARK VINA RESULT:       1.2      0.000      0.000
REMARK  Name = 7134499
REMARK  14 active torsions:
REMARK  status: ('A' for Active; 'I' for Inactive)
REMARK    1  A    between atoms: O_1  and  C_20
REMARK    2  A    between atoms: O_2  and  C_22
REMARK    3  A    between atoms: O_3  and  C_23
REMARK    4  A    between atoms: O_5  and  C_27
REMARK    5  A    between atoms: N_9  and  C_18
REMARK    6  A    between atoms: N_10  and  C_28
REMARK    7  A    between atoms: C_12  and  C_17
REMARK    8  A    between atoms: C_12  and  C_19
REMARK    9  A    between atoms: C_17  and  C_25
REMARK   10  A    between atoms: C_19  and  C_27
REMARK   11  A    between atoms: C_20  and  C_26
REMARK   12  A    between atoms: C_28  and  C_29
REMARK   13  A    between atoms: C_28  and  C_30
REMARK   14  A    between atoms: C_29  and  C_31
REMARK                            x       y       z     vdW  Elec       q    Type
REMARK                         _______ _______ _______ _____ _____    ______ ____
ROOT
ATOM     18  C   UNL     1      -1.458  -0.871  25.336  0.00  0.00    +0.107 C 
ATOM     20  C   UNL     1      -3.917  -0.254  25.157  0.00  0.00    +0.146 C 
ATOM     21  C   UNL     1      -2.473   0.248  25.082  0.00  0.00    +0.069 C 
ATOM     22  C   UNL     1      -1.692  -2.075  24.413  0.00  0.00    +0.163 C 
ATOM     23  C   UNL     1      -3.140  -2.568  24.468  0.00  0.00    +0.148 C 
ATOM     24  C   UNL     1      -4.141  -1.438  24.219  0.00  0.00    +0.078 C 
ENDROOT
BRANCH  18   9
ATOM      4  O   UNL     1      -0.555   1.108  23.427  0.00  0.00    -0.276 OA
ATOM      9  N   UNL     1      -0.115  -0.359  25.174  0.00  0.00    -0.310 N 
ATOM     25  C   UNL     1       0.224   0.593  24.226  0.00  0.00    +0.214 C 
ATOM     37  H   UNL     1       0.616  -0.776  25.744  0.00  0.00    +0.149 HD
BRANCH  25  17
ATOM     17  C   UNL     1       1.699   0.941  24.290  0.00  0.00    +0.103 C 
BRANCH  17  12
ATOM     12  C   UNL     1       2.520   0.218  23.220  0.00  0.00    -0.011 C 
ATOM     13  C   UNL     1       1.644  -0.229  22.042  0.00  0.00    +0.008 C 
ATOM     14  C   UNL     1       3.509   1.167  22.529  0.00  0.00    +0.008 C 
ATOM     15  C   UNL     1       2.607  -0.379  20.866  0.00  0.00    +0.001 C 
ATOM     16  C   UNL     1       3.804   0.518  21.179  0.00  0.00    +0.001 C 
BRANCH  12  19
ATOM     19  C   UNL     1       3.247  -0.976  23.860  0.00  0.00    +0.127 C 
BRANCH  19  27
ATOM      7  O   UNL     1       5.172   0.420  24.399  0.00  0.00    -0.251 OA
ATOM     27  C   UNL     1       4.695  -0.665  24.106  0.00  0.00    +0.305 C 
BRANCH  27   5
ATOM      5  O   UNL     1       5.430  -1.796  23.952  0.00  0.00    -0.481 OA
ATOM     42  H   UNL     1       5.322  -2.409  24.711  0.00  0.00    +0.295 HD
ENDBRANCH  27   5
ENDBRANCH  19  27
ENDBRANCH  12  19
ENDBRANCH  17  12
ENDBRANCH  25  17
ENDBRANCH  18   9
BRANCH  20  26
ATOM      6  O   UNL     1      -6.032   0.624  24.478  0.00  0.00    -0.273 OA
ATOM     10  N   UNL     1      -4.301   2.103  24.965  0.00  0.00    -0.301 N 
ATOM     26  C   UNL     1      -4.878   0.852  24.834  0.00  0.00    +0.246 C 
ATOM     41  H   UNL     1      -3.361   2.180  25.339  0.00  0.00    +0.150 HD
BRANCH  10  28
ATOM     28  C   UNL     1      -5.009   3.333  24.690  0.00  0.00    +0.163 C 
BRANCH  28  30
ATOM      8  O   UNL     1      -6.136   2.774  26.770  0.00  0.00    -0.274 OA
ATOM     11  N   UNL     1      -6.526   4.832  25.827  0.00  0.00    -0.328 N 
ATOM     30  C   UNL     1      -5.948   3.581  25.862  0.00  0.00    +0.231 C 
ATOM     43  H   UNL     1      -6.342   5.499  25.084  0.00  0.00    +0.145 HD
ATOM     44  H   UNL     1      -7.164   5.132  26.559  0.00  0.00    +0.145 HD
ENDBRANCH  28  30
BRANCH  28  29
ATOM     29  C   UNL     1      -4.058   4.521  24.506  0.00  0.00    +0.067 C 
BRANCH  29  31
ATOM     31  C   UNL     1      -2.645   4.210  24.937  0.00  0.00    -0.045 A 
ATOM     32  C   UNL     1      -2.415   3.530  26.133  0.00  0.00    +0.004 A 
ATOM     33  C   UNL     1      -1.571   4.603  24.139  0.00  0.00    +0.004 A 
ATOM     34  C   UNL     1      -1.108   3.243  26.530  0.00  0.00    +0.000 A 
ATOM     35  C   UNL     1      -0.265   4.315  24.536  0.00  0.00    +0.000 A 
ATOM     36  C   UNL     1      -0.034   3.635  25.732  0.00  0.00    +0.000 A 
ENDBRANCH  29  31
ENDBRANCH  28  29
ENDBRANCH  10  28
ENDBRANCH  20  26
BRANCH  20   1
ATOM      1  O   UNL     1      -4.239  -0.645  26.486  0.00  0.00    -0.379 OA
ATOM     38  H   UNL     1      -3.411  -0.784  26.976  0.00  0.00    +0.211 HD
ENDBRANCH  20   1
BRANCH  22   2
ATOM      2  O   UNL     1      -0.852  -3.155  24.831  0.00  0.00    -0.387 OA
ATOM     39  H   UNL     1      -0.830  -3.160  25.803  0.00  0.00    +0.210 HD
ENDBRANCH  22   2
BRANCH  23   3
ATOM      3  O   UNL     1      -3.315  -3.568  23.465  0.00  0.00    -0.389 OA
ATOM     40  H   UNL     1      -4.218  -3.918  23.556  0.00  0.00    +0.210 HD
ENDBRANCH  23   3
TORSDOF 14
ENDMDL
MODEL 2
REMARK VINA RESULT:       1.8      1.315      1.917
REMARK  Name = 7134499
REMARK  14 active torsions:
REMARK  status: ('A' for Active; 'I' for Inactive)
REMARK    1  A    between atoms: O_1  and  C_20
REMARK    2  A    between atoms: O_2  and  C_22
REMARK    3  A    between atoms: O_3  and  C_23
REMARK    4  A    between atoms: O_5  and  C_27
REMARK    5  A    between atoms: N_9  and  C_18
REMARK    6  A    between atoms: N_10  and  C_28
REMARK    7  A    between atoms: C_12  and  C_17
REMARK    8  A    between atoms: C_12  and  C_19
REMARK    9  A    between atoms: C_17  and  C_25
REMARK   10  A    between atoms: C_19  and  C_27
REMARK   11  A    between atoms: C_20  and  C_26
REMARK   12  A    between atoms: C_28  and  C_29
REMARK   13  A    between atoms: C_28  and  C_30
REMARK   14  A    between atoms: C_29  and  C_31
REMARK                            x       y       z     vdW  Elec       q    Type
REMARK                         _______ _______ _______ _____ _____    ______ ____
ROOT
ATOM     18  C   UNL     1      -1.000  -0.671  25.198  0.00  0.00    +0.107 C 
ATOM     20  C   UNL     1      -3.520  -0.356  25.121  0.00  0.00    +0.146 C 
ATOM     21  C   UNL     1      -2.152   0.303  24.935  0.00  0.00    +0.069 C 
ATOM     22  C   UNL     1      -1.133  -1.953  24.365  0.00  0.00    +0.163 C 
ATOM     23  C   UNL     1      -2.509  -2.605  24.531  0.00  0.00    +0.148 C 
ATOM     24  C   UNL     1      -3.647  -1.618  24.271  0.00  0.00    +0.078 C 
ENDROOT
BRANCH  18   9
ATOM      4  O   UNL     1      -0.411   1.206  23.076  0.00  0.00    -0.276 OA
ATOM      9  N   UNL     1       0.264  -0.019  24.931  0.00  0.00    -0.310 N 
ATOM     25  C   UNL     1       0.451   0.869  23.885  0.00  0.00    +0.214 C 
ATOM     37  H   UNL     1       1.058  -0.287  25.505  0.00  0.00    +0.149 HD
BRANCH  25  17
ATOM     17  C   UNL     1       1.872   1.397  23.851  0.00  0.00    +0.103 C 
BRANCH  17  12
ATOM     12  C   UNL     1       2.854   0.401  23.231  0.00  0.00    -0.011 C 
ATOM     13  C   UNL     1       4.309   0.848  23.426  0.00  0.00    +0.008 C 
ATOM     14  C   UNL     1       2.841  -0.943  23.972  0.00  0.00    +0.008 C 
ATOM     15  C   UNL     1       5.137  -0.430  23.311  0.00  0.00    +0.001 C 
ATOM     16  C   UNL     1       4.193  -1.580  23.662  0.00  0.00    +0.001 C 
BRANCH  12  19
ATOM     19  C   UNL     1       2.520   0.221  21.740  0.00  0.00    +0.127 C 
BRANCH  19  27
ATOM      7  O   UNL     1       0.857  -1.440  22.390  0.00  0.00    -0.251 OA
ATOM     27  C   UNL     1       1.354  -0.704  21.551  0.00  0.00    +0.305 C 
BRANCH  27   5
ATOM      5  O   UNL     1       0.908  -0.609  20.272  0.00  0.00    -0.481 OA
ATOM     42  H   UNL     1       0.119  -0.029  20.201  0.00  0.00    +0.295 HD
ENDBRANCH  27   5
ENDBRANCH  19  27
ENDBRANCH  12  19
ENDBRANCH  17  12
ENDBRANCH  25  17
ENDBRANCH  18   9
BRANCH  20  26
ATOM      6  O   UNL     1      -5.729   0.223  24.421  0.00  0.00    -0.273 OA
ATOM     10  N   UNL     1      -4.222   1.926  24.920  0.00  0.00    -0.301 N 
ATOM     26  C   UNL     1      -4.621   0.607  24.787  0.00  0.00    +0.246 C 
ATOM     41  H   UNL     1      -3.305   2.132  25.303  0.00  0.00    +0.150 HD
BRANCH  10  28
ATOM     28  C   UNL     1      -5.089   3.047  24.636  0.00  0.00    +0.163 C 
BRANCH  28  30
ATOM      8  O   UNL     1      -6.181   2.398  26.708  0.00  0.00    -0.274 OA
ATOM     11  N   UNL     1      -6.424   4.559  25.968  0.00  0.00    -0.328 N 
ATOM     30  C   UNL     1      -5.957   3.266  25.867  0.00  0.00    +0.231 C 
ATOM     43  H   UNL     1      -6.211   5.272  25.278  0.00  0.00    +0.145 HD
ATOM     44  H   UNL     1      -7.004   4.843  26.751  0.00  0.00    +0.145 HD
ENDBRANCH  28  30
BRANCH  28  29
ATOM     29  C   UNL     1      -4.302   4.319  24.304  0.00  0.00    +0.067 C 
BRANCH  29  31
ATOM     31  C   UNL     1      -2.853   4.233  24.716  0.00  0.00    -0.045 A 
ATOM     32  C   UNL     1      -2.491   3.502  25.847  0.00  0.00    +0.004 A 
ATOM     33  C   UNL     1      -1.875   4.886  23.965  0.00  0.00    +0.004 A 
ATOM     34  C   UNL     1      -1.151   3.423  26.227  0.00  0.00    +0.000 A 
ATOM     35  C   UNL     1      -0.535   4.806  24.345  0.00  0.00    +0.000 A 
ATOM     36  C   UNL     1      -0.174   4.074  25.477  0.00  0.00    +0.000 A 
ENDBRANCH  29  31
ENDBRANCH  28  29
ENDBRANCH  10  28
ENDBRANCH  20  26
BRANCH  20   1
ATOM      1  O   UNL     1      -3.729  -0.693  26.488  0.00  0.00    -0.379 OA
ATOM     38  H   UNL     1      -3.260  -1.524  26.675  0.00  0.00    +0.211 HD
ENDBRANCH  20   1
BRANCH  22   2
ATOM      2  O   UNL     1      -0.151  -2.898  24.799  0.00  0.00    -0.387 OA
ATOM     39  H   UNL     1       0.517  -2.420  25.319  0.00  0.00    +0.210 HD
ENDBRANCH  22   2
BRANCH  23   3
ATOM      3  O   UNL     1      -2.612  -3.684  23.601  0.00  0.00    -0.389 OA
ATOM     40  H   UNL     1      -1.721  -3.851  23.248  0.00  0.00    +0.210 HD
ENDBRANCH  23   3
TORSDOF 14
ENDMDL
MODEL 3
REMARK VINA RESULT:       4.2      1.988      4.780
REMARK  Name = 7134499
REMARK  14 active torsions:
REMARK  status: ('A' for Active; 'I' for Inactive)
REMARK    1  A    between atoms: O_1  and  C_20
REMARK    2  A    between atoms: O_2  and  C_22
REMARK    3  A    between atoms: O_3  and  C_23
REMARK    4  A    between atoms: O_5  and  C_27
REMARK    5  A    between atoms: N_9  and  C_18
REMARK    6  A    between atoms: N_10  and  C_28
REMARK    7  A    between atoms: C_12  and  C_17
REMARK    8  A    between atoms: C_12  and  C_19
REMARK    9  A    between atoms: C_17  and  C_25
REMARK   10  A    between atoms: C_19  and  C_27
REMARK   11  A    between atoms: C_20  and  C_26
REMARK   12  A    between atoms: C_28  and  C_29
REMARK   13  A    between atoms: C_28  and  C_30
REMARK   14  A    between atoms: C_29  and  C_31
REMARK                            x       y       z     vdW  Elec       q    Type
REMARK                         _______ _______ _______ _____ _____    ______ ____
ROOT
ATOM     18  C   UNL     1      -1.262   3.449  23.748  0.00  0.00    +0.107 C 
ATOM     20  C   UNL     1      -3.656   2.826  24.328  0.00  0.00    +0.146 C 
ATOM     21  C   UNL     1      -2.265   2.310  23.957  0.00  0.00    +0.069 C 
ATOM     22  C   UNL     1      -1.215   4.399  24.953  0.00  0.00    +0.163 C 
ATOM     23  C   UNL     1      -2.609   4.901  25.342  0.00  0.00    +0.148 C 
ATOM     24  C   UNL     1      -3.598   3.752  25.540  0.00  0.00    +0.078 C 
ENDROOT
BRANCH  18   9
ATOM      4  O   UNL     1       0.421   1.954  25.567  0.00  0.00    -0.276 OA
ATOM      9  N   UNL     1       0.051   2.904  23.479  0.00  0.00    -0.310 N 
ATOM     25  C   UNL     1       0.785   2.198  24.419  0.00  0.00    +0.214 C 
ATOM     37  H   UNL     1       0.468   3.114  22.577  0.00  0.00    +0.149 HD
BRANCH  25  17
ATOM     17  C   UNL     1       2.119   1.746  23.858  0.00  0.00    +0.103 C 
BRANCH  17  12
ATOM     12  C   UNL     1       2.029   0.396  23.143  0.00  0.00    -0.011 C 
ATOM     13  C   UNL     1       0.579  -0.094  23.042  0.00  0.00    +0.008 C 
ATOM     14  C   UNL     1       2.421   0.513  21.663  0.00  0.00    +0.008 C 
ATOM     15  C   UNL     1       0.569  -1.068  21.866  0.00  0.00    +0.001 C 
ATOM     16  C   UNL     1       1.753  -0.679  20.981  0.00  0.00    +0.001 C 
BRANCH  12  19
ATOM     19  C   UNL     1       2.914  -0.625  23.876  0.00  0.00    +0.127 C 
BRANCH  19  27
ATOM      7  O   UNL     1       4.851   0.562  22.990  0.00  0.00    -0.251 OA
ATOM     27  C   UNL     1       4.371  -0.361  23.629  0.00  0.00    +0.305 C 
BRANCH  27   5
ATOM      5  O   UNL     1       5.111  -1.325  24.235  0.00  0.00    -0.481 OA
ATOM     42  H   UNL     1       5.825  -0.944  24.791  0.00  0.00    +0.295 HD
ENDBRANCH  27   5
ENDBRANCH  19  27
ENDBRANCH  12  19
ENDBRANCH  17  12
ENDBRANCH  25  17
ENDBRANCH  18   9
BRANCH  20  26
ATOM      6  O   UNL     1      -5.796   1.855  24.755  0.00  0.00    -0.273 OA
ATOM     10  N   UNL     1      -3.929   0.468  24.651  0.00  0.00    -0.301 N 
ATOM     26  C   UNL     1      -4.590   1.682  24.594  0.00  0.00    +0.246 C 
ATOM     41  H   UNL     1      -2.940   0.429  24.427  0.00  0.00    +0.150 HD
BRANCH  10  28
ATOM     28  C   UNL     1      -4.599  -0.785  24.916  0.00  0.00    +0.163 C 
BRANCH  28  30
ATOM      8  O   UNL     1      -5.116  -2.682  23.487  0.00  0.00    -0.274 OA
ATOM     11  N   UNL     1      -3.860  -0.965  22.622  0.00  0.00    -0.328 N 
ATOM     30  C   UNL     1      -4.555  -1.598  23.630  0.00  0.00    +0.231 C 
ATOM     43  H   UNL     1      -3.422  -0.057  22.746  0.00  0.00    +0.145 HD
ATOM     44  H   UNL     1      -3.767  -1.392  21.706  0.00  0.00    +0.145 HD
ENDBRANCH  28  30
BRANCH  28  29
ATOM     29  C   UNL     1      -3.942  -1.562  26.062  0.00  0.00    +0.067 C 
BRANCH  29  31
ATOM     31  C   UNL     1      -2.473  -1.819  25.827  0.00  0.00    -0.045 A 
ATOM     32  C   UNL     1      -1.517  -1.009  26.438  0.00  0.00    +0.004 A 
ATOM     33  C   UNL     1      -2.073  -2.868  24.999  0.00  0.00    +0.004 A 
ATOM     34  C   UNL     1      -0.160  -1.247  26.221  0.00  0.00    +0.000 A 
ATOM     35  C   UNL     1      -0.715  -3.106  24.782  0.00  0.00    +0.000 A 
ATOM     36  C   UNL     1       0.241  -2.295  25.393  0.00  0.00    +0.000 A 
ENDBRANCH  29  31
ENDBRANCH  28  29
ENDBRANCH  10  28
ENDBRANCH  20  26
BRANCH  20   1
ATOM      1  O   UNL     1      -4.235   3.528  23.234  0.00  0.00    -0.379 OA
ATOM     38  H   UNL     1      -4.034   4.474  23.333  0.00  0.00    +0.211 HD
ENDBRANCH  20   1
BRANCH  22   2
ATOM      2  O   UNL     1      -0.422   5.541  24.619  0.00  0.00    -0.387 OA
ATOM     39  H   UNL     1      -0.433   6.148  25.378  0.00  0.00    +0.210 HD
ENDBRANCH  22   2
BRANCH  23   3
ATOM      3  O   UNL     1      -2.500   5.633  26.563  0.00  0.00    -0.389 OA
ATOM     40  H   UNL     1      -2.962   6.480  26.438  0.00  0.00    +0.210 HD
ENDBRANCH  23   3
TORSDOF 14
ENDMDL
MODEL 4
REMARK VINA RESULT:       4.3      1.978      7.005
REMARK  Name = 7134499
REMARK  14 active torsions:
REMARK  status: ('A' for Active; 'I' for Inactive)
REMARK    1  A    between atoms: O_1  and  C_20
REMARK    2  A    between atoms: O_2  and  C_22
REMARK    3  A    between atoms: O_3  and  C_23
REMARK    4  A    between atoms: O_5  and  C_27
REMARK    5  A    between atoms: N_9  and  C_18
REMARK    6  A    between atoms: N_10  and  C_28
REMARK    7  A    between atoms: C_12  and  C_17
REMARK    8  A    between atoms: C_12  and  C_19
REMARK    9  A    between atoms: C_17  and  C_25
REMARK   10  A    between atoms: C_19  and  C_27
REMARK   11  A    between atoms: C_20  and  C_26
REMARK   12  A    between atoms: C_28  and  C_29
REMARK   13  A    between atoms: C_28  and  C_30
REMARK   14  A    between atoms: C_29  and  C_31
REMARK                            x       y       z     vdW  Elec       q    Type
REMARK                         _______ _______ _______ _____ _____    ______ ____
ROOT
ATOM     18  C   UNL     1      -3.353  -0.325  23.692  0.00  0.00    +0.107 C 
ATOM     20  C   UNL     1      -1.037  -1.353  23.877  0.00  0.00    +0.146 C 
ATOM     21  C   UNL     1      -1.852  -0.059  23.846  0.00  0.00    +0.069 C 
ATOM     22  C   UNL     1      -3.873  -1.302  24.756  0.00  0.00    +0.163 C 
ATOM     23  C   UNL     1      -3.046  -2.589  24.806  0.00  0.00    +0.148 C 
ATOM     24  C   UNL     1      -1.550  -2.306  24.953  0.00  0.00    +0.078 C 
ENDROOT
BRANCH  18   9
ATOM      4  O   UNL     1      -2.516   2.238  22.643  0.00  0.00    -0.276 OA
ATOM      9  N   UNL     1      -4.081   0.924  23.748  0.00  0.00    -0.310 N 
ATOM     25  C   UNL     1      -3.596   2.107  23.215  0.00  0.00    +0.214 C 
ATOM     37  H   UNL     1      -4.955   0.932  24.265  0.00  0.00    +0.149 HD
BRANCH  25  17
ATOM     17  C   UNL     1      -4.571   3.250  23.418  0.00  0.00    +0.103 C 
BRANCH  17  12
ATOM     12  C   UNL     1      -4.684   3.674  24.884  0.00  0.00    -0.011 C 
ATOM     13  C   UNL     1      -3.745   2.857  25.782  0.00  0.00    +0.008 C 
ATOM     14  C   UNL     1      -4.161   5.100  25.103  0.00  0.00    +0.008 C 
ATOM     15  C   UNL     1      -3.525   3.725  27.020  0.00  0.00    +0.001 C 
ATOM     16  C   UNL     1      -3.792   5.165  26.583  0.00  0.00    +0.001 C 
BRANCH  12  19
ATOM     19  C   UNL     1      -6.147   3.540  25.339  0.00  0.00    +0.127 C 
BRANCH  19  27
ATOM      7  O   UNL     1      -6.658   1.212  24.826  0.00  0.00    -0.251 OA
ATOM     27  C   UNL     1      -6.498   2.111  25.636  0.00  0.00    +0.305 C 
BRANCH  27   5
ATOM      5  O   UNL     1      -6.616   1.948  26.979  0.00  0.00    -0.481 OA
ATOM     42  H   UNL     1      -5.988   2.516  27.475  0.00  0.00    +0.295 HD
ENDBRANCH  27   5
ENDBRANCH  19  27
ENDBRANCH  12  19
ENDBRANCH  17  12
ENDBRANCH  25  17
ENDBRANCH  18   9
BRANCH  20  26
ATOM      6  O   UNL     1       1.103  -1.718  24.875  0.00  0.00    -0.273 OA
ATOM     10  N   UNL     1       0.849   0.033  23.361  0.00  0.00    -0.301 N 
ATOM     26  C   UNL     1       0.417  -1.055  24.100  0.00  0.00    +0.246 C 
ATOM     41  H   UNL     1       0.217   0.462  22.692  0.00  0.00    +0.150 HD
BRANCH  10  28
ATOM     28  C   UNL     1       2.202   0.538  23.414  0.00  0.00    +0.163 C 
BRANCH  28  30
ATOM      8  O   UNL     1       2.307  -0.337  21.149  0.00  0.00    -0.274 OA
ATOM     11  N   UNL     1       4.267   0.248  22.192  0.00  0.00    -0.328 N 
ATOM     30  C   UNL     1       2.899   0.085  22.139  0.00  0.00    +0.231 C 
ATOM     43  H   UNL     1       4.742   0.621  23.008  0.00  0.00    +0.145 HD
ATOM     44  H   UNL     1       4.852  -0.002  21.401  0.00  0.00    +0.145 HD
ENDBRANCH  28  30
BRANCH  28  29
ATOM     29  C   UNL     1       2.247   2.065  23.534  0.00  0.00    +0.067 C 
BRANCH  29  31
ATOM     31  C   UNL     1       1.082   2.624  24.315  0.00  0.00    -0.045 A 
ATOM     32  C   UNL     1       0.718   2.047  25.531  0.00  0.00    +0.004 A 
ATOM     33  C   UNL     1       0.371   3.717  23.821  0.00  0.00    +0.004 A 
ATOM     34  C   UNL     1      -0.358   2.564  26.253  0.00  0.00    +0.000 A 
ATOM     35  C   UNL     1      -0.704   4.235  24.543  0.00  0.00    +0.000 A 
ATOM     36  C   UNL     1      -1.069   3.657  25.760  0.00  0.00    +0.000 A 
ENDBRANCH  29  31
ENDBRANCH  28  29
ENDBRANCH  10  28
ENDBRANCH  20  26
BRANCH  20   1
ATOM      1  O   UNL     1      -1.090  -2.005  22.614  0.00  0.00    -0.379 OA
ATOM     38  H   UNL     1      -0.601  -1.467  21.968  0.00  0.00    +0.211 HD
ENDBRANCH  20   1
BRANCH  22   2
ATOM      2  O   UNL     1      -5.220  -1.664  24.440  0.00  0.00    -0.387 OA
ATOM     39  H   UNL     1      -5.411  -1.356  23.538  0.00  0.00    +0.210 HD
ENDBRANCH  22   2
BRANCH  23   3
ATOM      3  O   UNL     1      -3.482  -3.362  25.925  0.00  0.00    -0.389 OA
ATOM     40  H   UNL     1      -3.498  -2.773  26.698  0.00  0.00    +0.210 HD
ENDBRANCH  23   3
TORSDOF 14
ENDMDL
MODEL 5
REMARK VINA RESULT:       4.4      2.194      4.815
REMARK  Name = 7134499
REMARK  14 active torsions:
REMARK  status: ('A' for Active; 'I' for Inactive)
REMARK    1  A    between atoms: O_1  and  C_20
REMARK    2  A    between atoms: O_2  and  C_22
REMARK    3  A    between atoms: O_3  and  C_23
REMARK    4  A    between atoms: O_5  and  C_27
REMARK    5  A    between atoms: N_9  and  C_18
REMARK    6  A    between atoms: N_10  and  C_28
REMARK    7  A    between atoms: C_12  and  C_17
REMARK    8  A    between atoms: C_12  and  C_19
REMARK    9  A    between atoms: C_17  and  C_25
REMARK   10  A    between atoms: C_19  and  C_27
REMARK   11  A    between atoms: C_20  and  C_26
REMARK   12  A    between atoms: C_28  and  C_29
REMARK   13  A    between atoms: C_28  and  C_30
REMARK   14  A    between atoms: C_29  and  C_31
REMARK                            x       y       z     vdW  Elec       q    Type
REMARK                         _______ _______ _______ _____ _____    ______ ____
ROOT
ATOM     18  C   UNL     1      -0.651   3.655  23.513  0.00  0.00    +0.107 C 
ATOM     20  C   UNL     1      -2.947   3.713  24.601  0.00  0.00    +0.146 C 
ATOM     21  C   UNL     1      -1.708   2.869  24.295  0.00  0.00    +0.069 C 
ATOM     22  C   UNL     1      -0.285   4.972  24.211  0.00  0.00    +0.163 C 
ATOM     23  C   UNL     1      -1.524   5.811  24.540  0.00  0.00    +0.148 C 
ATOM     24  C   UNL     1      -2.571   5.009  25.314  0.00  0.00    +0.078 C 
ENDROOT
BRANCH  18   9
ATOM      4  O   UNL     1       0.688   2.021  25.490  0.00  0.00    -0.276 OA
ATOM      9  N   UNL     1       0.526   2.837  23.321  0.00  0.00    -0.310 N 
ATOM     25  C   UNL     1       1.099   2.085  24.334  0.00  0.00    +0.214 C 
ATOM     37  H   UNL     1       0.981   2.879  22.414  0.00  0.00    +0.149 HD
BRANCH  25  17
ATOM     17  C   UNL     1       2.318   1.328  23.843  0.00  0.00    +0.103 C 
BRANCH  17  12
ATOM     12  C   UNL     1       1.953   0.018  23.142  0.00  0.00    -0.011 C 
ATOM     13  C   UNL     1       0.539  -0.447  23.513  0.00  0.00    +0.008 C 
ATOM     14  C   UNL     1       1.829   0.205  21.623  0.00  0.00    +0.008 C 
ATOM     15  C   UNL     1       0.106  -1.359  22.367  0.00  0.00    +0.001 C 
ATOM     16  C   UNL     1       0.935  -0.940  21.154  0.00  0.00    +0.001 C 
BRANCH  12  19
ATOM     19  C   UNL     1       3.002  -1.052  23.488  0.00  0.00    +0.127 C 
BRANCH  19  27
ATOM      7  O   UNL     1       4.833   0.348  22.691  0.00  0.00    -0.251 OA
ATOM     27  C   UNL     1       4.390  -0.481  23.472  0.00  0.00    +0.305 C 
BRANCH  27   5
ATOM      5  O   UNL     1       5.114  -1.030  24.481  0.00  0.00    -0.481 OA
ATOM     42  H   UNL     1       5.218  -1.999  24.372  0.00  0.00    +0.295 HD
ENDBRANCH  27   5
ENDBRANCH  19  27
ENDBRANCH  12  19
ENDBRANCH  17  12
ENDBRANCH  25  17
ENDBRANCH  18   9
BRANCH  20  26
ATOM      6  O   UNL     1      -4.355   3.357  26.497  0.00  0.00    -0.273 OA
ATOM     10  N   UNL     1      -4.245   1.714  24.851  0.00  0.00    -0.301 N 
ATOM     26  C   UNL     1      -3.927   2.932  25.427  0.00  0.00    +0.246 C 
ATOM     41  H   UNL     1      -3.891   1.494  23.926  0.00  0.00    +0.150 HD
BRANCH  10  28
ATOM     28  C   UNL     1      -5.150   0.765  25.459  0.00  0.00    +0.163 C 
BRANCH  28  30
ATOM      8  O   UNL     1      -7.209   1.678  24.545  0.00  0.00    -0.274 OA
ATOM     11  N   UNL     1      -6.921   1.681  26.824  0.00  0.00    -0.328 N 
ATOM     30  C   UNL     1      -6.516   1.431  25.530  0.00  0.00    +0.231 C 
ATOM     43  H   UNL     1      -6.350   1.449  27.630  0.00  0.00    +0.145 HD
ATOM     44  H   UNL     1      -7.821   2.110  27.014  0.00  0.00    +0.145 HD
ENDBRANCH  28  30
BRANCH  28  29
ATOM     29  C   UNL     1      -5.234  -0.545  24.666  0.00  0.00    +0.067 C 
BRANCH  29  31
ATOM     31  C   UNL     1      -3.964  -1.357  24.744  0.00  0.00    -0.045 A 
ATOM     32  C   UNL     1      -3.822  -2.505  23.965  0.00  0.00    +0.004 A 
ATOM     33  C   UNL     1      -2.933  -0.958  25.595  0.00  0.00    +0.004 A 
ATOM     34  C   UNL     1      -2.648  -3.255  24.037  0.00  0.00    +0.000 A 
ATOM     35  C   UNL     1      -1.758  -1.708  25.666  0.00  0.00    +0.000 A 
ATOM     36  C   UNL     1      -1.617  -2.857  24.887  0.00  0.00    +0.000 A 
ENDBRANCH  29  31
ENDBRANCH  28  29
ENDBRANCH  10  28
ENDBRANCH  20  26
BRANCH  20   1
ATOM      1  O   UNL     1      -3.644   4.027  23.402  0.00  0.00    -0.379 OA
ATOM     38  H   UNL     1      -3.636   3.243  22.826  0.00  0.00    +0.211 HD
ENDBRANCH  20   1
BRANCH  22   2
ATOM      2  O   UNL     1       0.544   5.748  23.342  0.00  0.00    -0.387 OA
ATOM     39  H   UNL     1       0.061   5.888  22.510  0.00  0.00    +0.210 HD
ENDBRANCH  22   2
BRANCH  23   3
ATOM      3  O   UNL     1      -1.117   6.925  25.333  0.00  0.00    -0.389 OA
ATOM     40  H   UNL     1      -1.821   7.595  25.280  0.00  0.00    +0.210 HD
ENDBRANCH  23   3
TORSDOF 14
ENDMDL
MODEL 6
REMARK VINA RESULT:       4.5      1.773      4.464
REMARK  Name = 7134499
REMARK  14 active torsions:
REMARK  status: ('A' for Active; 'I' for Inactive)
REMARK    1  A    between atoms: O_1  and  C_20
REMARK    2  A    between atoms: O_2  and  C_22
REMARK    3  A    between atoms: O_3  and  C_23
REMARK    4  A    between atoms: O_5  and  C_27
REMARK    5  A    between atoms: N_9  and  C_18
REMARK    6  A    between atoms: N_10  and  C_28
REMARK    7  A    between atoms: C_12  and  C_17
REMARK    8  A    between atoms: C_12  and  C_19
REMARK    9  A    between atoms: C_17  and  C_25
REMARK   10  A    between atoms: C_19  and  C_27
REMARK   11  A    between atoms: C_20  and  C_26
REMARK   12  A    between atoms: C_28  and  C_29
REMARK   13  A    between atoms: C_28  and  C_30
REMARK   14  A    between atoms: C_29  and  C_31
REMARK                            x       y       z     vdW  Elec       q    Type
REMARK                         _______ _______ _______ _____ _____    ______ ____
ROOT
ATOM     18  C   UNL     1      -0.388   2.540  23.830  0.00  0.00    +0.107 C 
ATOM     20  C   UNL     1      -2.771   3.221  24.391  0.00  0.00    +0.146 C 
ATOM     21  C   UNL     1      -1.703   2.130  24.500  0.00  0.00    +0.069 C 
ATOM     22  C   UNL     1       0.122   3.891  24.349  0.00  0.00    +0.163 C 
ATOM     23  C   UNL     1      -0.950   4.981  24.262  0.00  0.00    +0.148 C 
ATOM     24  C   UNL     1      -2.258   4.554  24.930  0.00  0.00    +0.078 C 
ENDROOT
BRANCH  18   9
ATOM      4  O   UNL     1      -0.486  -0.196  22.893  0.00  0.00    -0.276 OA
ATOM      9  N   UNL     1       0.607   1.509  24.032  0.00  0.00    -0.310 N 
ATOM     25  C   UNL     1       0.470   0.219  23.543  0.00  0.00    +0.214 C 
ATOM     37  H   UNL     1       1.404   1.737  24.619  0.00  0.00    +0.149 HD
BRANCH  25  17
ATOM     17  C   UNL     1       1.665  -0.642  23.904  0.00  0.00    +0.103 C 
BRANCH  17  12
ATOM     12  C   UNL     1       2.926  -0.254  23.130  0.00  0.00    -0.011 C 
ATOM     13  C   UNL     1       2.692  -0.293  21.614  0.00  0.00    +0.008 C 
ATOM     14  C   UNL     1       3.293   1.221  23.349  0.00  0.00    +0.008 C 
ATOM     15  C   UNL     1       3.755   0.631  21.023  0.00  0.00    +0.001 C 
ATOM     16  C   UNL     1       4.141   1.603  22.137  0.00  0.00    +0.001 C 
BRANCH  12  19
ATOM     19  C   UNL     1       4.080  -1.183  23.541  0.00  0.00    +0.127 C 
BRANCH  19  27
ATOM      7  O   UNL     1       6.305  -0.313  23.052  0.00  0.00    -0.251 OA
ATOM     27  C   UNL     1       5.340  -0.409  23.795  0.00  0.00    +0.305 C 
BRANCH  27   5
ATOM      5  O   UNL     1       5.260   0.194  25.009  0.00  0.00    -0.481 OA
ATOM     42  H   UNL     1       6.111   0.608  25.270  0.00  0.00    +0.295 HD
ENDBRANCH  27   5
ENDBRANCH  19  27
ENDBRANCH  12  19
ENDBRANCH  17  12
ENDBRANCH  25  17
ENDBRANCH  18   9
BRANCH  20  26
ATOM      6  O   UNL     1      -4.738   3.635  25.680  0.00  0.00    -0.273 OA
ATOM     10  N   UNL     1      -4.221   1.444  25.086  0.00  0.00    -0.301 N 
ATOM     26  C   UNL     1      -4.019   2.813  25.118  0.00  0.00    +0.246 C 
ATOM     41  H   UNL     1      -3.603   0.863  24.527  0.00  0.00    +0.150 HD
BRANCH  10  28
ATOM     28  C   UNL     1      -5.339   0.795  25.732  0.00  0.00    +0.163 C 
BRANCH  28  30
ATOM      8  O   UNL     1      -7.098   1.790  24.382  0.00  0.00    -0.274 OA
ATOM     11  N   UNL     1      -7.049   2.245  26.633  0.00  0.00    -0.328 N 
ATOM     30  C   UNL     1      -6.565   1.661  25.482  0.00  0.00    +0.231 C 
ATOM     43  H   UNL     1      -6.614   2.110  27.539  0.00  0.00    +0.145 HD
ATOM     44  H   UNL     1      -7.873   2.838  26.609  0.00  0.00    +0.145 HD
ENDBRANCH  28  30
BRANCH  28  29
ATOM     29  C   UNL     1      -5.570  -0.625  25.202  0.00  0.00    +0.067 C 
BRANCH  29  31
ATOM     31  C   UNL     1      -4.283  -1.373  24.955  0.00  0.00    -0.045 A 
ATOM     32  C   UNL     1      -3.173  -1.138  25.767  0.00  0.00    +0.004 A 
ATOM     33  C   UNL     1      -4.203  -2.299  23.915  0.00  0.00    +0.004 A 
ATOM     34  C   UNL     1      -1.983  -1.830  25.538  0.00  0.00    +0.000 A 
ATOM     35  C   UNL     1      -3.013  -2.992  23.687  0.00  0.00    +0.000 A 
ATOM     36  C   UNL     1      -1.903  -2.756  24.500  0.00  0.00    +0.000 A 
ENDBRANCH  29  31
ENDBRANCH  28  29
ENDBRANCH  10  28
ENDBRANCH  20  26
BRANCH  20   1
ATOM      1  O   UNL     1      -3.173   3.390  23.036  0.00  0.00    -0.379 OA
ATOM     38  H   UNL     1      -2.378   3.531  22.495  0.00  0.00    +0.211 HD
ENDBRANCH  20   1
BRANCH  22   2
ATOM      2  O   UNL     1       1.232   4.311  23.550  0.00  0.00    -0.387 OA
ATOM     39  H   UNL     1       1.782   3.531  23.366  0.00  0.00    +0.210 HD
ENDBRANCH  22   2
BRANCH  23   3
ATOM      3  O   UNL     1      -0.459   6.151  24.916  0.00  0.00    -0.389 OA
ATOM     40  H   UNL     1      -0.861   6.181  25.802  0.00  0.00    +0.210 HD
ENDBRANCH  23   3
TORSDOF 14
ENDMDL
MODEL 7
REMARK VINA RESULT:       5.2      2.033      6.710
REMARK  Name = 7134499
REMARK  14 active torsions:
REMARK  status: ('A' for Active; 'I' for Inactive)
REMARK    1  A    between atoms: O_1  and  C_20
REMARK    2  A    between atoms: O_2  and  C_22
REMARK    3  A    between atoms: O_3  and  C_23
REMARK    4  A    between atoms: O_5  and  C_27
REMARK    5  A    between atoms: N_9  and  C_18
REMARK    6  A    between atoms: N_10  and  C_28
REMARK    7  A    between atoms: C_12  and  C_17
REMARK    8  A    between atoms: C_12  and  C_19
REMARK    9  A    between atoms: C_17  and  C_25
REMARK   10  A    between atoms: C_19  and  C_27
REMARK   11  A    between atoms: C_20  and  C_26
REMARK   12  A    between atoms: C_28  and  C_29
REMARK   13  A    between atoms: C_28  and  C_30
REMARK   14  A    between atoms: C_29  and  C_31
REMARK                            x       y       z     vdW  Elec       q    Type
REMARK                         _______ _______ _______ _____ _____    ______ ____
ROOT
ATOM     18  C   UNL     1      -3.518  -0.997  23.589  0.00  0.00    +0.107 C 
ATOM     20  C   UNL     1      -1.079  -1.644  23.890  0.00  0.00    +0.146 C 
ATOM     21  C   UNL     1      -2.091  -0.498  23.843  0.00  0.00    +0.069 C 
ATOM     22  C   UNL     1      -3.931  -2.083  24.593  0.00  0.00    +0.163 C 
ATOM     23  C   UNL     1      -2.909  -3.221  24.659  0.00  0.00    +0.148 C 
ATOM     24  C   UNL     1      -1.490  -2.706  24.907  0.00  0.00    +0.078 C 
ENDROOT
BRANCH  18   9
ATOM      4  O   UNL     1      -4.740   0.172  25.937  0.00  0.00    -0.276 OA
ATOM      9  N   UNL     1      -4.441   0.115  23.634  0.00  0.00    -0.310 N 
ATOM     25  C   UNL     1      -4.977   0.608  24.813  0.00  0.00    +0.214 C 
ATOM     37  H   UNL     1      -4.754   0.499  22.747  0.00  0.00    +0.149 HD
BRANCH  25  17
ATOM     17  C   UNL     1      -5.909   1.775  24.555  0.00  0.00    +0.103 C 
BRANCH  17  12
ATOM     12  C   UNL     1      -5.238   3.129  24.798  0.00  0.00    -0.011 C 
ATOM     13  C   UNL     1      -6.238   4.169  25.320  0.00  0.00    +0.008 C 
ATOM     14  C   UNL     1      -4.229   3.061  25.952  0.00  0.00    +0.008 C 
ATOM     15  C   UNL     1      -5.386   5.211  26.043  0.00  0.00    +0.001 C 
ATOM     16  C   UNL     1      -4.096   4.499  26.448  0.00  0.00    +0.001 C 
BRANCH  12  19
ATOM     19  C   UNL     1      -4.568   3.602  23.497  0.00  0.00    +0.127 C 
BRANCH  19  27
ATOM      7  O   UNL     1      -2.596   2.241  23.951  0.00  0.00    -0.251 OA
ATOM     27  C   UNL     1      -3.371   2.761  23.163  0.00  0.00    +0.305 C 
BRANCH  27   5
ATOM      5  O   UNL     1      -3.262   2.651  21.814  0.00  0.00    -0.481 OA
ATOM     42  H   UNL     1      -3.845   3.285  21.346  0.00  0.00    +0.295 HD
ENDBRANCH  27   5
ENDBRANCH  19  27
ENDBRANCH  12  19
ENDBRANCH  17  12
ENDBRANCH  25  17
ENDBRANCH  18   9
BRANCH  20  26
ATOM      6  O   UNL     1       1.025  -1.687  25.020  0.00  0.00    -0.273 OA
ATOM     10  N   UNL     1       0.589   0.035  23.515  0.00  0.00    -0.301 N 
ATOM     26  C   UNL     1       0.292  -1.124  24.210  0.00  0.00    +0.246 C 
ATOM     41  H   UNL     1      -0.061   0.373  22.812  0.00  0.00    +0.150 HD
BRANCH  10  28
ATOM     28  C   UNL     1       1.838   0.747  23.661  0.00  0.00    +0.163 C 
BRANCH  28  30
ATOM      8  O   UNL     1       2.471  -0.158  21.496  0.00  0.00    -0.274 OA
ATOM     11  N   UNL     1       4.102   0.126  23.088  0.00  0.00    -0.328 N 
ATOM     30  C   UNL     1       2.802   0.178  22.631  0.00  0.00    +0.231 C 
ATOM     43  H   UNL     1       4.367   0.429  24.019  0.00  0.00    +0.145 HD
ATOM     44  H   UNL     1       4.849  -0.221  22.494  0.00  0.00    +0.145 HD
ENDBRANCH  28  30
BRANCH  28  29
ATOM     29  C   UNL     1       1.672   2.257  23.460  0.00  0.00    +0.067 C 
BRANCH  29  31
ATOM     31  C   UNL     1       0.654   2.863  24.396  0.00  0.00    -0.045 A 
ATOM     32  C   UNL     1       0.063   4.087  24.087  0.00  0.00    +0.004 A 
ATOM     33  C   UNL     1       0.305   2.197  25.571  0.00  0.00    +0.004 A 
ATOM     34  C   UNL     1      -0.878   4.646  24.952  0.00  0.00    +0.000 A 
ATOM     35  C   UNL     1      -0.636   2.755  26.436  0.00  0.00    +0.000 A 
ATOM     36  C   UNL     1      -1.227   3.981  26.126  0.00  0.00    +0.000 A 
ENDBRANCH  29  31
ENDBRANCH  28  29
ENDBRANCH  10  28
ENDBRANCH  20  26
BRANCH  20   1
ATOM      1  O   UNL     1      -0.953  -2.250  22.609  0.00  0.00    -0.379 OA
ATOM     38  H   UNL     1      -0.090  -2.002  22.235  0.00  0.00    +0.211 HD
ENDBRANCH  20   1
BRANCH  22   2
ATOM      2  O   UNL     1      -5.180  -2.646  24.184  0.00  0.00    -0.387 OA
ATOM     39  H   UNL     1      -5.047  -3.598  24.035  0.00  0.00    +0.210 HD
ENDBRANCH  22   2
BRANCH  23   3
ATOM      3  O   UNL     1      -3.276  -4.094  25.728  0.00  0.00    -0.389 OA
ATOM     40  H   UNL     1      -2.675  -3.914  26.472  0.00  0.00    +0.210 HD
ENDBRANCH  23   3
TORSDOF 14
ENDMDL
