MODEL 1
REMARK VINA RESULT:      -3.6      0.000      0.000
REMARK  Name = 7114630
REMARK  12 active torsions:
REMARK  status: ('A' for Active; 'I' for Inactive)
REMARK    1  A    between atoms: O_4  and  C_21
REMARK    2  A    between atoms: O_4  and  C_27
REMARK    3  A    between atoms: O_6  and  C_23
REMARK    4  A    between atoms: O_6  and  C_30
REMARK    5  A    between atoms: N_9  and  C_12
REMARK    6  A    between atoms: N_10  and  C_19
REMARK    7  A    between atoms: C_13  and  C_17
REMARK    8  A    between atoms: C_18  and  C_21
REMARK    9  A    between atoms: C_19  and  C_22
REMARK   10  A    between atoms: C_19  and  C_24
REMARK   11  A    between atoms: C_20  and  C_23
REMARK   12  A    between atoms: C_22  and  C_25
REMARK                            x       y       z     vdW  Elec       q    Type
REMARK                         _______ _______ _______ _____ _____    ______ ____
ROOT
ATOM      3  O   UNL     1      -2.790   4.575  26.929  0.00  0.00    -0.273 OA
ATOM      8  N   UNL     1      -1.911   3.265  25.217  0.00  0.00    -0.288 N 
ATOM     12  C   UNL     1       0.289   1.624  24.223  0.00  0.00    +0.077 C 
ATOM     13  C   UNL     1      -1.948   2.798  23.821  0.00  0.00    +0.164 C 
ATOM     14  C   UNL     1      -0.564   2.459  23.263  0.00  0.00    +0.054 C 
ATOM     15  C   UNL     1       0.334   2.282  25.600  0.00  0.00    +0.041 C 
ATOM     16  C   UNL     1      -1.073   2.497  26.145  0.00  0.00    +0.110 C 
ATOM     18  C   UNL     1      -2.727   4.279  25.733  0.00  0.00    +0.242 C 
ENDROOT
BRANCH  13  17
ATOM      2  O   UNL     1      -2.821   0.781  22.886  0.00  0.00    -0.274 OA
ATOM     10  N   UNL     1      -3.780   1.629  24.830  0.00  0.00    -0.302 N 
ATOM     17  C   UNL     1      -2.878   1.622  23.779  0.00  0.00    +0.234 C 
ATOM     32  H   UNL     1      -3.731   2.366  25.526  0.00  0.00    +0.150 HD
BRANCH  10  19
ATOM     19  C   UNL     1      -4.798   0.619  25.005  0.00  0.00    +0.163 C 
BRANCH  19  24
ATOM      7  O   UNL     1      -6.217   1.559  26.740  0.00  0.00    -0.274 OA
ATOM     11  N   UNL     1      -6.910   1.705  24.555  0.00  0.00    -0.328 N 
ATOM     24  C   UNL     1      -6.035   1.320  25.549  0.00  0.00    +0.231 C 
ATOM     33  H   UNL     1      -7.769   2.196  24.779  0.00  0.00    +0.145 HD
ATOM     34  H   UNL     1      -6.746   1.504  23.573  0.00  0.00    +0.145 HD
ENDBRANCH  19  24
BRANCH  19  22
ATOM     22  C   UNL     1      -4.352  -0.496  25.958  0.00  0.00    +0.074 C 
BRANCH  22  25
ATOM      1  S   UNL     1      -3.203  -2.453  24.343  0.00  0.00    -0.102 S 
ATOM     25  C   UNL     1      -3.093  -1.185  25.488  0.00  0.00    -0.008 A 
ATOM     26  C   UNL     1      -1.790  -0.936  25.859  0.00  0.00    +0.011 A 
ATOM     28  C   UNL     1      -0.871  -1.798  25.195  0.00  0.00    +0.008 A 
ATOM     29  C   UNL     1      -1.506  -2.673  24.341  0.00  0.00    +0.045 A 
ENDBRANCH  22  25
ENDBRANCH  19  22
ENDBRANCH  10  19
ENDBRANCH  13  17
BRANCH  12   9
ATOM      5  O   UNL     1       1.196  -0.425  22.385  0.00  0.00    -0.273 OA
ATOM      9  N   UNL     1       1.622   1.446  23.701  0.00  0.00    -0.310 N 
ATOM     20  C   UNL     1       1.963   0.429  22.820  0.00  0.00    +0.239 C 
ATOM     31  H   UNL     1       2.327   2.134  23.950  0.00  0.00    +0.149 HD
BRANCH  20  23
ATOM     23  C   UNL     1       3.428   0.485  22.440  0.00  0.00    +0.255 C 
BRANCH  23   6
ATOM      6  O   UNL     1       4.216   0.867  23.548  0.00  0.00    -0.374 OA
ATOM     30  C   UNL     1       5.423   0.114  23.625  0.00  0.00    +0.194 C 
ENDBRANCH  23   6
ENDBRANCH  20  23
ENDBRANCH  12   9
BRANCH  18  21
ATOM     21  C   UNL     1      -3.563   5.050  24.741  0.00  0.00    +0.255 C 
BRANCH  21   4
ATOM      4  O   UNL     1      -4.778   4.355  24.616  0.00  0.00    -0.374 OA
ATOM     27  C   UNL     1      -5.795   4.895  25.459  0.00  0.00    +0.194 C 
ENDBRANCH  21   4
ENDBRANCH  18  21
TORSDOF 10
ENDMDL
MODEL 2
REMARK VINA RESULT:      -1.1      2.144      4.620
REMARK  Name = 7114630
REMARK  12 active torsions:
REMARK  status: ('A' for Active; 'I' for Inactive)
REMARK    1  A    between atoms: O_4  and  C_21
REMARK    2  A    between atoms: O_4  and  C_27
REMARK    3  A    between atoms: O_6  and  C_23
REMARK    4  A    between atoms: O_6  and  C_30
REMARK    5  A    between atoms: N_9  and  C_12
REMARK    6  A    between atoms: N_10  and  C_19
REMARK    7  A    between atoms: C_13  and  C_17
REMARK    8  A    between atoms: C_18  and  C_21
REMARK    9  A    between atoms: C_19  and  C_22
REMARK   10  A    between atoms: C_19  and  C_24
REMARK   11  A    between atoms: C_20  and  C_23
REMARK   12  A    between atoms: C_22  and  C_25
REMARK                            x       y       z     vdW  Elec       q    Type
REMARK                         _______ _______ _______ _____ _____    ______ ____
ROOT
ATOM      3  O   UNL     1      -2.449  -2.572  24.003  0.00  0.00    -0.273 OA
ATOM      8  N   UNL     1      -1.178  -0.638  24.262  0.00  0.00    -0.288 N 
ATOM     12  C   UNL     1       1.198   0.892  23.529  0.00  0.00    +0.077 C 
ATOM     13  C   UNL     1      -0.871   0.597  25.004  0.00  0.00    +0.164 C 
ATOM     14  C   UNL     1       0.607   0.986  24.938  0.00  0.00    +0.054 C 
ATOM     15  C   UNL     1       0.904  -0.479  22.923  0.00  0.00    +0.041 C 
ATOM     16  C   UNL     1      -0.593  -0.763  22.922  0.00  0.00    +0.110 C 
ATOM     18  C   UNL     1      -2.094  -1.608  24.686  0.00  0.00    +0.242 C 
ENDROOT
BRANCH  13  17
ATOM      2  O   UNL     1      -2.376   1.524  23.396  0.00  0.00    -0.274 OA
ATOM     10  N   UNL     1      -1.781   2.800  25.250  0.00  0.00    -0.302 N 
ATOM     17  C   UNL     1      -1.763   1.669  24.451  0.00  0.00    +0.234 C 
ATOM     32  H   UNL     1      -1.248   2.811  26.114  0.00  0.00    +0.150 HD
BRANCH  10  19
ATOM     19  C   UNL     1      -2.543   3.984  24.928  0.00  0.00    +0.163 C 
BRANCH  19  24
ATOM      7  O   UNL     1      -1.900   6.310  25.211  0.00  0.00    -0.274 OA
ATOM     11  N   UNL     1      -0.276   4.780  24.663  0.00  0.00    -0.328 N 
ATOM     24  C   UNL     1      -1.574   5.157  24.940  0.00  0.00    +0.231 C 
ATOM     33  H   UNL     1       0.473   5.464  24.653  0.00  0.00    +0.145 HD
ATOM     34  H   UNL     1      -0.019   3.822  24.443  0.00  0.00    +0.145 HD
ENDBRANCH  19  24
BRANCH  19  22
ATOM     22  C   UNL     1      -3.688   4.225  25.919  0.00  0.00    +0.074 C 
BRANCH  22  25
ATOM      1  S   UNL     1      -5.255   2.731  24.166  0.00  0.00    -0.102 S 
ATOM     25  C   UNL     1      -4.818   3.239  25.743  0.00  0.00    -0.008 A 
ATOM     26  C   UNL     1      -5.599   2.648  26.710  0.00  0.00    +0.011 A 
ATOM     28  C   UNL     1      -6.570   1.768  26.152  0.00  0.00    +0.008 A 
ATOM     29  C   UNL     1      -6.493   1.719  24.777  0.00  0.00    +0.045 A 
ENDBRANCH  22  25
ENDBRANCH  19  22
ENDBRANCH  10  19
ENDBRANCH  13  17
BRANCH  12   9
ATOM      5  O   UNL     1       3.155   0.084  21.551  0.00  0.00    -0.273 OA
ATOM      9  N   UNL     1       2.618   1.144  23.550  0.00  0.00    -0.310 N 
ATOM     20  C   UNL     1       3.481   0.716  22.552  0.00  0.00    +0.239 C 
ATOM     31  H   UNL     1       2.990   1.712  24.307  0.00  0.00    +0.149 HD
BRANCH  20  23
ATOM     23  C   UNL     1       4.912   1.121  22.835  0.00  0.00    +0.255 C 
BRANCH  23   6
ATOM      6  O   UNL     1       5.319   0.656  24.104  0.00  0.00    -0.374 OA
ATOM     30  C   UNL     1       5.452  -0.762  24.131  0.00  0.00    +0.194 C 
ENDBRANCH  23   6
ENDBRANCH  20  23
ENDBRANCH  12   9
BRANCH  18  21
ATOM     21  C   UNL     1      -2.661  -1.446  26.076  0.00  0.00    +0.255 C 
BRANCH  21   4
ATOM      4  O   UNL     1      -3.893  -0.785  25.931  0.00  0.00    -0.374 OA
ATOM     27  C   UNL     1      -4.429  -0.931  24.617  0.00  0.00    +0.194 C 
ENDBRANCH  21   4
ENDBRANCH  18  21
TORSDOF 10
ENDMDL
MODEL 3
REMARK VINA RESULT:       0.3      1.785      3.144
REMARK  Name = 7114630
REMARK  12 active torsions:
REMARK  status: ('A' for Active; 'I' for Inactive)
REMARK    1  A    between atoms: O_4  and  C_21
REMARK    2  A    between atoms: O_4  and  C_27
REMARK    3  A    between atoms: O_6  and  C_23
REMARK    4  A    between atoms: O_6  and  C_30
REMARK    5  A    between atoms: N_9  and  C_12
REMARK    6  A    between atoms: N_10  and  C_19
REMARK    7  A    between atoms: C_13  and  C_17
REMARK    8  A    between atoms: C_18  and  C_21
REMARK    9  A    between atoms: C_19  and  C_22
REMARK   10  A    between atoms: C_19  and  C_24
REMARK   11  A    between atoms: C_20  and  C_23
REMARK   12  A    between atoms: C_22  and  C_25
REMARK                            x       y       z     vdW  Elec       q    Type
REMARK                         _______ _______ _______ _____ _____    ______ ____
ROOT
ATOM      3  O   UNL     1      -2.546   4.066  26.985  0.00  0.00    -0.273 OA
ATOM      8  N   UNL     1      -1.577   2.852  25.250  0.00  0.00    -0.288 N 
ATOM     12  C   UNL     1       0.740   1.408  24.219  0.00  0.00    +0.077 C 
ATOM     13  C   UNL     1      -1.588   2.400  23.849  0.00  0.00    +0.164 C 
ATOM     14  C   UNL     1      -0.186   2.182  23.277  0.00  0.00    +0.054 C 
ATOM     15  C   UNL     1       0.743   2.051  25.604  0.00  0.00    +0.041 C 
ATOM     16  C   UNL     1      -0.671   2.145  26.162  0.00  0.00    +0.110 C 
ATOM     18  C   UNL     1      -2.468   3.790  25.785  0.00  0.00    +0.242 C 
ENDROOT
BRANCH  13  17
ATOM      2  O   UNL     1      -2.959   0.771  22.765  0.00  0.00    -0.274 OA
ATOM     10  N   UNL     1      -2.505   0.531  25.035  0.00  0.00    -0.302 N 
ATOM     17  C   UNL     1      -2.419   1.152  23.800  0.00  0.00    +0.234 C 
ATOM     32  H   UNL     1      -2.006   0.921  25.827  0.00  0.00    +0.150 HD
BRANCH  10  19
ATOM     19  C   UNL     1      -3.266  -0.676  25.262  0.00  0.00    +0.163 C 
BRANCH  19  24
ATOM      7  O   UNL     1      -1.361  -1.926  24.418  0.00  0.00    -0.274 OA
ATOM     11  N   UNL     1      -3.475  -2.663  23.902  0.00  0.00    -0.328 N 
ATOM     24  C   UNL     1      -2.580  -1.790  24.485  0.00  0.00    +0.231 C 
ATOM     33  H   UNL     1      -3.149  -3.461  23.366  0.00  0.00    +0.145 HD
ATOM     34  H   UNL     1      -4.481  -2.541  23.967  0.00  0.00    +0.145 HD
ENDBRANCH  19  24
BRANCH  19  22
ATOM     22  C   UNL     1      -4.727  -0.534  24.819  0.00  0.00    +0.074 C 
BRANCH  22  25
ATOM      1  S   UNL     1      -5.598   2.062  24.312  0.00  0.00    -0.102 S 
ATOM     25  C   UNL     1      -5.371   0.722  25.355  0.00  0.00    -0.008 A 
ATOM     26  C   UNL     1      -5.832   0.974  26.627  0.00  0.00    +0.011 A 
ATOM     28  C   UNL     1      -6.379   2.284  26.749  0.00  0.00    +0.008 A 
ATOM     29  C   UNL     1      -6.315   2.984  25.564  0.00  0.00    +0.045 A 
ENDBRANCH  22  25
ENDBRANCH  19  22
ENDBRANCH  10  19
ENDBRANCH  13  17
BRANCH  12   9
ATOM      5  O   UNL     1       1.729  -0.380  22.164  0.00  0.00    -0.273 OA
ATOM      9  N   UNL     1       2.079   1.345  23.684  0.00  0.00    -0.310 N 
ATOM     20  C   UNL     1       2.461   0.450  22.696  0.00  0.00    +0.239 C 
ATOM     31  H   UNL     1       2.756   2.029  24.013  0.00  0.00    +0.149 HD
BRANCH  20  23
ATOM     23  C   UNL     1       3.922   0.609  22.329  0.00  0.00    +0.255 C 
BRANCH  23   6
ATOM      6  O   UNL     1       4.699   0.859  23.480  0.00  0.00    -0.374 OA
ATOM     30  C   UNL     1       5.417  -0.299  23.897  0.00  0.00    +0.194 C 
ENDBRANCH  23   6
ENDBRANCH  20  23
ENDBRANCH  12   9
BRANCH  18  21
ATOM     21  C   UNL     1      -3.374   4.501  24.809  0.00  0.00    +0.255 C 
BRANCH  21   4
ATOM      4  O   UNL     1      -2.610   5.531  24.232  0.00  0.00    -0.374 OA
ATOM     27  C   UNL     1      -1.370   5.724  24.911  0.00  0.00    +0.194 C 
ENDBRANCH  21   4
ENDBRANCH  18  21
TORSDOF 10
ENDMDL
