MODEL 1
REMARK VINA RESULT:      -6.5      0.000      0.000
REMARK  Name = 26742967
REMARK  12 active torsions:
REMARK  status: ('A' for Active; 'I' for Inactive)
REMARK    1  A    between atoms: N_4  and  C_17
REMARK    2  A    between atoms: N_4  and  C_18
REMARK    3  A    between atoms: C_6  and  C_10
REMARK    4  A    between atoms: C_7  and  C_11
REMARK    5  A    between atoms: C_10  and  C_14
REMARK    6  A    between atoms: C_11  and  C_13
REMARK    7  A    between atoms: C_16  and  C_19
REMARK    8  A    between atoms: C_17  and  C_21
REMARK    9  A    between atoms: C_18  and  C_22
REMARK   10  A    between atoms: C_19  and  C_20
REMARK   11  A    between atoms: C_20  and  C_23
REMARK   12  A    between atoms: C_23  and  C_24
REMARK                            x       y       z     vdW  Elec       q    Type
REMARK                         _______ _______ _______ _____ _____    ______ ____
ROOT
ATOM      3  N   UNL     1      -2.088  -2.720  24.685  0.00  0.00    -0.316 NA
ATOM      6  C   UNL     1      -3.681  -0.328  24.017  0.00  0.00    +0.004 C 
ATOM      7  C   UNL     1      -2.138  -0.365  23.899  0.00  0.00    +0.012 C 
ATOM      8  C   UNL     1      -4.227  -1.761  23.908  0.00  0.00    +0.019 C 
ATOM      9  C   UNL     1      -1.519  -1.385  24.871  0.00  0.00    +0.085 C 
ATOM     12  C   UNL     1      -3.538  -2.725  24.872  0.00  0.00    +0.081 C 
ATOM     25  H   UNL     1      -1.661  -3.364  25.350  0.00  0.00    +0.122 HD
ENDROOT
BRANCH   6  10
ATOM     10  C   UNL     1      -4.193   0.355  25.291  0.00  0.00    +0.100 C 
BRANCH  10  14
ATOM      1  O   UNL     1      -6.120   1.605  24.610  0.00  0.00    -0.276 OA
ATOM      4  N   UNL     1      -4.236   2.827  25.190  0.00  0.00    -0.302 N 
ATOM     14  C   UNL     1      -4.950   1.639  24.996  0.00  0.00    +0.216 C 
BRANCH   4  17
ATOM     17  C   UNL     1      -4.823   4.139  24.949  0.00  0.00    +0.104 C 
ATOM     21  C   UNL     1      -6.080   4.344  25.769  0.00  0.00    +0.024 C 
ENDBRANCH   4  17
BRANCH   4  18
ATOM     18  C   UNL     1      -2.849   2.842  25.648  0.00  0.00    +0.104 C 
ATOM     22  C   UNL     1      -2.303   4.254  25.716  0.00  0.00    +0.024 C 
ENDBRANCH   4  18
ENDBRANCH  10  14
ENDBRANCH   6  10
BRANCH   7  11
ATOM     11  C   UNL     1      -1.491   1.009  24.077  0.00  0.00    +0.064 C 
BRANCH  11  13
ATOM      2  O   UNL     1       2.050   1.579  23.759  0.00  0.00    -0.359 OA
ATOM      5  N   UNL     1       0.788   1.912  24.238  0.00  0.00    -0.083 NA
ATOM     13  C   UNL     1      -0.025   0.968  23.756  0.00  0.00    +0.084 A 
ATOM     15  C   UNL     1       0.660   0.022  22.973  0.00  0.00    +0.071 A 
ATOM     16  C   UNL     1       1.960   0.451  23.008  0.00  0.00    +0.138 A 
BRANCH  16  19
ATOM     19  C   UNL     1       3.211  -0.045  22.420  0.00  0.00    +0.077 C 
BRANCH  19  20
ATOM     20  C   UNL     1       4.430   0.849  22.746  0.00  0.00    +0.007 C 
BRANCH  20  23
ATOM     23  C   UNL     1       5.484   0.121  23.580  0.00  0.00    -0.003 C 
ATOM     24  C   UNL     1       5.007  -1.259  24.002  0.00  0.00    +0.004 C 
ENDBRANCH  20  23
ENDBRANCH  19  20
ENDBRANCH  16  19
ENDBRANCH  11  13
ENDBRANCH   7  11
TORSDOF 9
ENDMDL
MODEL 2
REMARK VINA RESULT:      -4.8      1.528      4.321
REMARK  Name = 26742967
REMARK  12 active torsions:
REMARK  status: ('A' for Active; 'I' for Inactive)
REMARK    1  A    between atoms: N_4  and  C_17
REMARK    2  A    between atoms: N_4  and  C_18
REMARK    3  A    between atoms: C_6  and  C_10
REMARK    4  A    between atoms: C_7  and  C_11
REMARK    5  A    between atoms: C_10  and  C_14
REMARK    6  A    between atoms: C_11  and  C_13
REMARK    7  A    between atoms: C_16  and  C_19
REMARK    8  A    between atoms: C_17  and  C_21
REMARK    9  A    between atoms: C_18  and  C_22
REMARK   10  A    between atoms: C_19  and  C_20
REMARK   11  A    between atoms: C_20  and  C_23
REMARK   12  A    between atoms: C_23  and  C_24
REMARK                            x       y       z     vdW  Elec       q    Type
REMARK                         _______ _______ _______ _____ _____    ______ ____
ROOT
ATOM      3  N   UNL     1      -4.162   4.193  23.898  0.00  0.00    -0.316 NA
ATOM      6  C   UNL     1      -2.565   2.146  25.298  0.00  0.00    +0.004 C 
ATOM      7  C   UNL     1      -2.376   2.472  23.797  0.00  0.00    +0.012 C 
ATOM      8  C   UNL     1      -3.171   3.370  26.005  0.00  0.00    +0.019 C 
ATOM      9  C   UNL     1      -3.667   3.025  23.170  0.00  0.00    +0.085 C 
ATOM     12  C   UNL     1      -4.425   3.888  25.303  0.00  0.00    +0.081 C 
ATOM     25  H   UNL     1      -5.021   4.526  23.460  0.00  0.00    +0.122 HD
ENDROOT
BRANCH   6  10
ATOM     10  C   UNL     1      -3.405   0.891  25.563  0.00  0.00    +0.100 C 
BRANCH  10  14
ATOM      1  O   UNL     1      -1.515  -0.398  26.277  0.00  0.00    -0.276 OA
ATOM      4  N   UNL     1      -3.043  -1.465  24.898  0.00  0.00    -0.302 N 
ATOM     14  C   UNL     1      -2.559  -0.371  25.622  0.00  0.00    +0.216 C 
BRANCH   4  17
ATOM     17  C   UNL     1      -2.347  -2.744  24.855  0.00  0.00    +0.104 C 
ATOM     21  C   UNL     1      -0.985  -2.614  24.205  0.00  0.00    +0.024 C 
ENDBRANCH   4  17
BRANCH   4  18
ATOM     18  C   UNL     1      -4.284  -1.408  24.128  0.00  0.00    +0.104 C 
ATOM     22  C   UNL     1      -4.627  -2.757  23.528  0.00  0.00    +0.024 C 
ENDBRANCH   4  18
ENDBRANCH  10  14
ENDBRANCH   6  10
BRANCH   7  11
ATOM     11  C   UNL     1      -1.852   1.285  22.987  0.00  0.00    +0.064 C 
BRANCH  11  13
ATOM      2  O   UNL     1       1.627   1.526  23.881  0.00  0.00    -0.359 OA
ATOM      5  N   UNL     1       0.313   1.976  23.921  0.00  0.00    -0.083 NA
ATOM     13  C   UNL     1      -0.373   1.109  23.171  0.00  0.00    +0.084 A 
ATOM     15  C   UNL     1       0.449   0.100  22.637  0.00  0.00    +0.071 A 
ATOM     16  C   UNL     1       1.695   0.408  23.114  0.00  0.00    +0.138 A 
BRANCH  16  19
ATOM     19  C   UNL     1       3.021  -0.204  22.963  0.00  0.00    +0.077 C 
BRANCH  19  20
ATOM     20  C   UNL     1       4.150   0.836  22.778  0.00  0.00    +0.007 C 
BRANCH  20  23
ATOM     23  C   UNL     1       5.375   0.532  23.640  0.00  0.00    -0.003 C 
ATOM     24  C   UNL     1       5.344  -0.892  24.170  0.00  0.00    +0.004 C 
ENDBRANCH  20  23
ENDBRANCH  19  20
ENDBRANCH  16  19
ENDBRANCH  11  13
ENDBRANCH   7  11
TORSDOF 9
ENDMDL
MODEL 3
REMARK VINA RESULT:      -4.5      1.726      3.870
REMARK  Name = 26742967
REMARK  12 active torsions:
REMARK  status: ('A' for Active; 'I' for Inactive)
REMARK    1  A    between atoms: N_4  and  C_17
REMARK    2  A    between atoms: N_4  and  C_18
REMARK    3  A    between atoms: C_6  and  C_10
REMARK    4  A    between atoms: C_7  and  C_11
REMARK    5  A    between atoms: C_10  and  C_14
REMARK    6  A    between atoms: C_11  and  C_13
REMARK    7  A    between atoms: C_16  and  C_19
REMARK    8  A    between atoms: C_17  and  C_21
REMARK    9  A    between atoms: C_18  and  C_22
REMARK   10  A    between atoms: C_19  and  C_20
REMARK   11  A    between atoms: C_20  and  C_23
REMARK   12  A    between atoms: C_23  and  C_24
REMARK                            x       y       z     vdW  Elec       q    Type
REMARK                         _______ _______ _______ _____ _____    ______ ____
ROOT
ATOM      3  N   UNL     1       0.115   4.926  24.412  0.00  0.00    -0.316 NA
ATOM      6  C   UNL     1      -2.327   3.775  25.601  0.00  0.00    +0.004 C 
ATOM      7  C   UNL     1      -0.971   3.028  25.586  0.00  0.00    +0.012 C 
ATOM      8  C   UNL     1      -2.067   5.288  25.510  0.00  0.00    +0.019 C 
ATOM      9  C   UNL     1      -0.088   3.477  24.410  0.00  0.00    +0.085 C 
ATOM     12  C   UNL     1      -1.150   5.654  24.344  0.00  0.00    +0.081 C 
ATOM     25  H   UNL     1       0.696   5.187  23.615  0.00  0.00    +0.122 HD
ENDROOT
BRANCH   6  10
ATOM     10  C   UNL     1      -3.300   3.322  24.507  0.00  0.00    +0.100 C 
BRANCH  10  14
ATOM      1  O   UNL     1      -5.360   3.963  25.551  0.00  0.00    -0.276 OA
ATOM      4  N   UNL     1      -5.154   1.738  24.932  0.00  0.00    -0.302 N 
ATOM     14  C   UNL     1      -4.696   3.055  25.047  0.00  0.00    +0.216 C 
BRANCH   4  17
ATOM     17  C   UNL     1      -6.469   1.324  25.403  0.00  0.00    +0.104 C 
ATOM     21  C   UNL     1      -6.618   1.539  26.894  0.00  0.00    +0.024 C 
ENDBRANCH   4  17
BRANCH   4  18
ATOM     18  C   UNL     1      -4.348   0.678  24.330  0.00  0.00    +0.104 C 
ATOM     22  C   UNL     1      -4.066  -0.434  25.320  0.00  0.00    +0.024 C 
ENDBRANCH   4  18
ENDBRANCH  10  14
ENDBRANCH   6  10
BRANCH   7  11
ATOM     11  C   UNL     1      -1.126   1.507  25.592  0.00  0.00    +0.064 C 
BRANCH  11  13
ATOM      2  O   UNL     1       0.361  -0.554  23.042  0.00  0.00    -0.359 OA
ATOM      5  N   UNL     1      -0.671  -0.229  23.914  0.00  0.00    -0.083 NA
ATOM     13  C   UNL     1      -0.250   0.864  24.555  0.00  0.00    +0.084 A 
ATOM     15  C   UNL     1       1.027   1.272  24.133  0.00  0.00    +0.071 A 
ATOM     16  C   UNL     1       1.366   0.348  23.181  0.00  0.00    +0.138 A 
BRANCH  16  19
ATOM     19  C   UNL     1       2.544   0.153  22.327  0.00  0.00    +0.077 C 
BRANCH  19  20
ATOM     20  C   UNL     1       3.770   0.974  22.789  0.00  0.00    +0.007 C 
BRANCH  20  23
ATOM     23  C   UNL     1       5.038   0.127  22.894  0.00  0.00    -0.003 C 
ATOM     24  C   UNL     1       5.364  -0.212  24.340  0.00  0.00    +0.004 C 
ENDBRANCH  20  23
ENDBRANCH  19  20
ENDBRANCH  16  19
ENDBRANCH  11  13
ENDBRANCH   7  11
TORSDOF 9
ENDMDL
MODEL 4
REMARK VINA RESULT:      -4.5      1.633      3.903
REMARK  Name = 26742967
REMARK  12 active torsions:
REMARK  status: ('A' for Active; 'I' for Inactive)
REMARK    1  A    between atoms: N_4  and  C_17
REMARK    2  A    between atoms: N_4  and  C_18
REMARK    3  A    between atoms: C_6  and  C_10
REMARK    4  A    between atoms: C_7  and  C_11
REMARK    5  A    between atoms: C_10  and  C_14
REMARK    6  A    between atoms: C_11  and  C_13
REMARK    7  A    between atoms: C_16  and  C_19
REMARK    8  A    between atoms: C_17  and  C_21
REMARK    9  A    between atoms: C_18  and  C_22
REMARK   10  A    between atoms: C_19  and  C_20
REMARK   11  A    between atoms: C_20  and  C_23
REMARK   12  A    between atoms: C_23  and  C_24
REMARK                            x       y       z     vdW  Elec       q    Type
REMARK                         _______ _______ _______ _____ _____    ______ ____
ROOT
ATOM      3  N   UNL     1      -0.749   5.021  25.181  0.00  0.00    -0.316 NA
ATOM      6  C   UNL     1      -2.961   3.084  25.424  0.00  0.00    +0.004 C 
ATOM      7  C   UNL     1      -1.473   2.660  25.441  0.00  0.00    +0.012 C 
ATOM      8  C   UNL     1      -3.071   4.549  25.877  0.00  0.00    +0.019 C 
ATOM      9  C   UNL     1      -0.589   3.658  24.673  0.00  0.00    +0.085 C 
ATOM     12  C   UNL     1      -2.136   5.473  25.099  0.00  0.00    +0.081 C 
ATOM     25  H   UNL     1      -0.156   5.653  24.643  0.00  0.00    +0.122 HD
ENDROOT
BRANCH   6  10
ATOM     10  C   UNL     1      -3.652   2.879  24.071  0.00  0.00    +0.100 C 
BRANCH  10  14
ATOM      1  O   UNL     1      -2.952   1.114  22.609  0.00  0.00    -0.276 OA
ATOM      4  N   UNL     1      -4.330   0.519  24.377  0.00  0.00    -0.302 N 
ATOM     14  C   UNL     1      -3.602   1.432  23.607  0.00  0.00    +0.216 C 
BRANCH   4  17
ATOM     17  C   UNL     1      -4.381  -0.903  24.061  0.00  0.00    +0.104 C 
ATOM     21  C   UNL     1      -3.580  -1.722  25.051  0.00  0.00    +0.024 C 
ENDBRANCH   4  17
BRANCH   4  18
ATOM     18  C   UNL     1      -5.094   0.920  25.556  0.00  0.00    +0.104 C 
ATOM     22  C   UNL     1      -6.373   1.635  25.171  0.00  0.00    +0.024 C 
ENDBRANCH   4  18
ENDBRANCH  10  14
ENDBRANCH   6  10
BRANCH   7  11
ATOM     11  C   UNL     1      -1.249   1.238  24.927  0.00  0.00    +0.064 C 
BRANCH  11  13
ATOM      2  O   UNL     1       2.082   1.645  23.624  0.00  0.00    -0.359 OA
ATOM      5  N   UNL     1       0.985   2.083  24.356  0.00  0.00    -0.083 NA
ATOM     13  C   UNL     1       0.083   1.105  24.248  0.00  0.00    +0.084 A 
ATOM     15  C   UNL     1       0.549   0.033  23.466  0.00  0.00    +0.071 A 
ATOM     16  C   UNL     1       1.810   0.422  23.099  0.00  0.00    +0.138 A 
BRANCH  16  19
ATOM     19  C   UNL     1       2.869  -0.194  22.290  0.00  0.00    +0.077 C 
BRANCH  19  20
ATOM     20  C   UNL     1       4.172   0.637  22.264  0.00  0.00    +0.007 C 
BRANCH  20  23
ATOM     23  C   UNL     1       5.057   0.380  23.484  0.00  0.00    -0.003 C 
ATOM     24  C   UNL     1       5.022  -1.082  23.899  0.00  0.00    +0.004 C 
ENDBRANCH  20  23
ENDBRANCH  19  20
ENDBRANCH  16  19
ENDBRANCH  11  13
ENDBRANCH   7  11
TORSDOF 9
ENDMDL
MODEL 5
REMARK VINA RESULT:      -4.3      2.760      5.239
REMARK  Name = 26742967
REMARK  12 active torsions:
REMARK  status: ('A' for Active; 'I' for Inactive)
REMARK    1  A    between atoms: N_4  and  C_17
REMARK    2  A    between atoms: N_4  and  C_18
REMARK    3  A    between atoms: C_6  and  C_10
REMARK    4  A    between atoms: C_7  and  C_11
REMARK    5  A    between atoms: C_10  and  C_14
REMARK    6  A    between atoms: C_11  and  C_13
REMARK    7  A    between atoms: C_16  and  C_19
REMARK    8  A    between atoms: C_17  and  C_21
REMARK    9  A    between atoms: C_18  and  C_22
REMARK   10  A    between atoms: C_19  and  C_20
REMARK   11  A    between atoms: C_20  and  C_23
REMARK   12  A    between atoms: C_23  and  C_24
REMARK                            x       y       z     vdW  Elec       q    Type
REMARK                         _______ _______ _______ _____ _____    ______ ____
ROOT
ATOM      3  N   UNL     1      -0.607   5.765  24.914  0.00  0.00    -0.316 NA
ATOM      6  C   UNL     1      -1.958   3.159  25.202  0.00  0.00    +0.004 C 
ATOM      7  C   UNL     1      -0.469   3.289  24.801  0.00  0.00    +0.012 C 
ATOM      8  C   UNL     1      -2.380   4.417  25.979  0.00  0.00    +0.019 C 
ATOM      9  C   UNL     1      -0.186   4.627  24.097  0.00  0.00    +0.085 C 
ATOM     12  C   UNL     1      -2.031   5.706  25.238  0.00  0.00    +0.081 C 
ATOM     25  H   UNL     1      -0.412   6.632  24.412  0.00  0.00    +0.122 HD
ENDROOT
BRANCH   6  10
ATOM     10  C   UNL     1      -2.902   2.905  24.021  0.00  0.00    +0.100 C 
BRANCH  10  14
ATOM      1  O   UNL     1      -4.931   4.067  24.549  0.00  0.00    -0.276 OA
ATOM      4  N   UNL     1      -5.004   1.751  24.636  0.00  0.00    -0.302 N 
ATOM     14  C   UNL     1      -4.367   2.978  24.424  0.00  0.00    +0.216 C 
BRANCH   4  17
ATOM     17  C   UNL     1      -6.405   1.656  25.026  0.00  0.00    +0.104 C 
ATOM     21  C   UNL     1      -6.590   1.932  26.503  0.00  0.00    +0.024 C 
ENDBRANCH   4  17
BRANCH   4  18
ATOM     18  C   UNL     1      -4.314   0.472  24.482  0.00  0.00    +0.104 C 
ATOM     22  C   UNL     1      -4.023  -0.165  25.825  0.00  0.00    +0.024 C 
ENDBRANCH   4  18
ENDBRANCH  10  14
ENDBRANCH   6  10
BRANCH   7  11
ATOM     11  C   UNL     1       0.026   2.119  23.950  0.00  0.00    +0.064 C 
BRANCH  11  13
ATOM      2  O   UNL     1      -0.868  -0.606  26.126  0.00  0.00    -0.359 OA
ATOM      5  N   UNL     1      -0.583   0.732  25.884  0.00  0.00    -0.083 NA
ATOM     13  C   UNL     1      -0.326   0.800  24.575  0.00  0.00    +0.084 A 
ATOM     15  C   UNL     1      -0.432  -0.452  23.945  0.00  0.00    +0.071 A 
ATOM     16  C   UNL     1      -0.776  -1.301  24.963  0.00  0.00    +0.138 A 
BRANCH  16  19
ATOM     19  C   UNL     1      -1.048  -2.741  25.037  0.00  0.00    +0.077 C 
BRANCH  19  20
ATOM     20  C   UNL     1      -2.111  -3.210  24.017  0.00  0.00    +0.007 C 
BRANCH  20  23
ATOM     23  C   UNL     1      -3.535  -3.111  24.566  0.00  0.00    -0.003 C 
ATOM     24  C   UNL     1      -4.506  -2.615  23.507  0.00  0.00    +0.004 C 
ENDBRANCH  20  23
ENDBRANCH  19  20
ENDBRANCH  16  19
ENDBRANCH  11  13
ENDBRANCH   7  11
TORSDOF 9
ENDMDL
MODEL 6
REMARK VINA RESULT:      -4.2      2.692      5.233
REMARK  Name = 26742967
REMARK  12 active torsions:
REMARK  status: ('A' for Active; 'I' for Inactive)
REMARK    1  A    between atoms: N_4  and  C_17
REMARK    2  A    between atoms: N_4  and  C_18
REMARK    3  A    between atoms: C_6  and  C_10
REMARK    4  A    between atoms: C_7  and  C_11
REMARK    5  A    between atoms: C_10  and  C_14
REMARK    6  A    between atoms: C_11  and  C_13
REMARK    7  A    between atoms: C_16  and  C_19
REMARK    8  A    between atoms: C_17  and  C_21
REMARK    9  A    between atoms: C_18  and  C_22
REMARK   10  A    between atoms: C_19  and  C_20
REMARK   11  A    between atoms: C_20  and  C_23
REMARK   12  A    between atoms: C_23  and  C_24
REMARK                            x       y       z     vdW  Elec       q    Type
REMARK                         _______ _______ _______ _____ _____    ______ ____
ROOT
ATOM      3  N   UNL     1      -0.739   5.509  24.958  0.00  0.00    -0.316 NA
ATOM      6  C   UNL     1      -1.841   2.814  25.433  0.00  0.00    +0.004 C 
ATOM      7  C   UNL     1      -0.373   3.054  25.006  0.00  0.00    +0.012 C 
ATOM      8  C   UNL     1      -2.373   4.076  26.132  0.00  0.00    +0.019 C 
ATOM      9  C   UNL     1      -0.220   4.362  24.212  0.00  0.00    +0.085 C 
ATOM     12  C   UNL     1      -2.149   5.340  25.303  0.00  0.00    +0.081 C 
ATOM     25  H   UNL     1      -0.629   6.354  24.398  0.00  0.00    +0.122 HD
ENDROOT
BRANCH   6  10
ATOM     10  C   UNL     1      -2.765   2.396  24.284  0.00  0.00    +0.100 C 
BRANCH  10  14
ATOM      1  O   UNL     1      -3.902   0.453  25.106  0.00  0.00    -0.276 OA
ATOM      4  N   UNL     1      -5.184   2.362  24.806  0.00  0.00    -0.302 N 
ATOM     14  C   UNL     1      -3.989   1.636  24.771  0.00  0.00    +0.216 C 
BRANCH   4  17
ATOM     17  C   UNL     1      -6.442   1.774  25.248  0.00  0.00    +0.104 C 
ATOM     21  C   UNL     1      -6.474   1.593  26.751  0.00  0.00    +0.024 C 
ENDBRANCH   4  17
BRANCH   4  18
ATOM     18  C   UNL     1      -5.262   3.764  24.403  0.00  0.00    +0.104 C 
ATOM     22  C   UNL     1      -5.829   4.629  25.510  0.00  0.00    +0.024 C 
ENDBRANCH   4  18
ENDBRANCH  10  14
ENDBRANCH   6  10
BRANCH   7  11
ATOM     11  C   UNL     1       0.223   1.880  24.228  0.00  0.00    +0.064 C 
BRANCH  11  13
ATOM      2  O   UNL     1      -1.098  -0.904  26.089  0.00  0.00    -0.359 OA
ATOM      5  N   UNL     1      -0.607   0.394  25.998  0.00  0.00    -0.083 NA
ATOM     13  C   UNL     1      -0.333   0.569  24.703  0.00  0.00    +0.084 A 
ATOM     15  C   UNL     1      -0.626  -0.572  23.936  0.00  0.00    +0.071 A 
ATOM     16  C   UNL     1      -1.105  -1.468  24.854  0.00  0.00    +0.138 A 
BRANCH  16  19
ATOM     19  C   UNL     1      -1.597  -2.848  24.767  0.00  0.00    +0.077 C 
BRANCH  19  20
ATOM     20  C   UNL     1      -3.070  -2.995  25.214  0.00  0.00    +0.007 C 
BRANCH  20  23
ATOM     23  C   UNL     1      -4.034  -3.104  24.033  0.00  0.00    -0.003 C 
ATOM     24  C   UNL     1      -4.445  -1.733  23.521  0.00  0.00    +0.004 C 
ENDBRANCH  20  23
ENDBRANCH  19  20
ENDBRANCH  16  19
ENDBRANCH  11  13
ENDBRANCH   7  11
TORSDOF 9
ENDMDL
MODEL 7
REMARK VINA RESULT:      -3.6      1.915      3.485
REMARK  Name = 26742967
REMARK  12 active torsions:
REMARK  status: ('A' for Active; 'I' for Inactive)
REMARK    1  A    between atoms: N_4  and  C_17
REMARK    2  A    between atoms: N_4  and  C_18
REMARK    3  A    between atoms: C_6  and  C_10
REMARK    4  A    between atoms: C_7  and  C_11
REMARK    5  A    between atoms: C_10  and  C_14
REMARK    6  A    between atoms: C_11  and  C_13
REMARK    7  A    between atoms: C_16  and  C_19
REMARK    8  A    between atoms: C_17  and  C_21
REMARK    9  A    between atoms: C_18  and  C_22
REMARK   10  A    between atoms: C_19  and  C_20
REMARK   11  A    between atoms: C_20  and  C_23
REMARK   12  A    between atoms: C_23  and  C_24
REMARK                            x       y       z     vdW  Elec       q    Type
REMARK                         _______ _______ _______ _____ _____    ______ ____
ROOT
ATOM      3  N   UNL     1      -6.159   1.478  24.751  0.00  0.00    -0.316 NA
ATOM      6  C   UNL     1      -3.224   1.673  24.522  0.00  0.00    +0.004 C 
ATOM      7  C   UNL     1      -3.968   0.319  24.615  0.00  0.00    +0.012 C 
ATOM      8  C   UNL     1      -4.185   2.736  23.963  0.00  0.00    +0.019 C 
ATOM      9  C   UNL     1      -5.307   0.456  25.360  0.00  0.00    +0.085 C 
ATOM     12  C   UNL     1      -5.508   2.786  24.726  0.00  0.00    +0.081 C 
ATOM     25  H   UNL     1      -7.032   1.546  25.276  0.00  0.00    +0.122 HD
ENDROOT
BRANCH   6  10
ATOM     10  C   UNL     1      -2.608   2.139  25.846  0.00  0.00    +0.100 C 
BRANCH  10  14
ATOM      1  O   UNL     1      -3.063   4.406  26.475  0.00  0.00    -0.276 OA
ATOM      4  N   UNL     1      -1.199   4.048  25.143  0.00  0.00    -0.302 N 
ATOM     14  C   UNL     1      -2.326   3.633  25.860  0.00  0.00    +0.216 C 
BRANCH   4  17
ATOM     17  C   UNL     1      -0.797   5.447  25.061  0.00  0.00    +0.104 C 
ATOM     21  C   UNL     1      -1.840   6.284  24.350  0.00  0.00    +0.024 C 
ENDBRANCH   4  17
BRANCH   4  18
ATOM     18  C   UNL     1      -0.339   3.112  24.421  0.00  0.00    +0.104 C 
ATOM     22  C   UNL     1       0.509   2.293  25.372  0.00  0.00    +0.024 C 
ENDBRANCH   4  18
ENDBRANCH  10  14
ENDBRANCH   6  10
BRANCH   7  11
ATOM     11  C   UNL     1      -3.118  -0.789  25.239  0.00  0.00    +0.064 C 
BRANCH  11  13
ATOM      2  O   UNL     1       0.406  -1.170  24.608  0.00  0.00    -0.359 OA
ATOM      5  N   UNL     1      -0.733  -1.360  25.381  0.00  0.00    -0.083 NA
ATOM     13  C   UNL     1      -1.719  -0.777  24.695  0.00  0.00    +0.084 A 
ATOM     15  C   UNL     1      -1.267  -0.207  23.491  0.00  0.00    +0.071 A 
ATOM     16  C   UNL     1       0.075  -0.483  23.485  0.00  0.00    +0.138 A 
BRANCH  16  19
ATOM     19  C   UNL     1       1.167  -0.193  22.548  0.00  0.00    +0.077 C 
BRANCH  19  20
ATOM     20  C   UNL     1       2.568  -0.336  23.188  0.00  0.00    +0.007 C 
BRANCH  20  23
ATOM     23  C   UNL     1       3.573   0.671  22.630  0.00  0.00    -0.003 C 
ATOM     24  C   UNL     1       4.976   0.405  23.152  0.00  0.00    +0.004 C 
ENDBRANCH  20  23
ENDBRANCH  19  20
ENDBRANCH  16  19
ENDBRANCH  11  13
ENDBRANCH   7  11
TORSDOF 9
ENDMDL
MODEL 8
REMARK VINA RESULT:      -2.9      1.572      3.549
REMARK  Name = 26742967
REMARK  12 active torsions:
REMARK  status: ('A' for Active; 'I' for Inactive)
REMARK    1  A    between atoms: N_4  and  C_17
REMARK    2  A    between atoms: N_4  and  C_18
REMARK    3  A    between atoms: C_6  and  C_10
REMARK    4  A    between atoms: C_7  and  C_11
REMARK    5  A    between atoms: C_10  and  C_14
REMARK    6  A    between atoms: C_11  and  C_13
REMARK    7  A    between atoms: C_16  and  C_19
REMARK    8  A    between atoms: C_17  and  C_21
REMARK    9  A    between atoms: C_18  and  C_22
REMARK   10  A    between atoms: C_19  and  C_20
REMARK   11  A    between atoms: C_20  and  C_23
REMARK   12  A    between atoms: C_23  and  C_24
REMARK                            x       y       z     vdW  Elec       q    Type
REMARK                         _______ _______ _______ _____ _____    ______ ____
ROOT
ATOM      3  N   UNL     1      -2.982   2.686  22.246  0.00  0.00    -0.316 NA
ATOM      6  C   UNL     1      -2.944   3.204  25.150  0.00  0.00    +0.004 C 
ATOM      7  C   UNL     1      -1.675   2.819  24.352  0.00  0.00    +0.012 C 
ATOM      8  C   UNL     1      -3.962   3.846  24.194  0.00  0.00    +0.019 C 
ATOM      9  C   UNL     1      -2.020   1.992  23.102  0.00  0.00    +0.085 C 
ATOM     12  C   UNL     1      -4.223   2.988  22.956  0.00  0.00    +0.081 C 
ATOM     25  H   UNL     1      -3.193   2.105  21.434  0.00  0.00    +0.122 HD
ENDROOT
BRANCH   6  10
ATOM     10  C   UNL     1      -3.577   2.037  25.917  0.00  0.00    +0.100 C 
BRANCH  10  14
ATOM      1  O   UNL     1      -5.541   1.653  24.598  0.00  0.00    -0.276 OA
ATOM      4  N   UNL     1      -4.046  -0.110  24.779  0.00  0.00    -0.302 N 
ATOM     14  C   UNL     1      -4.486   1.192  25.039  0.00  0.00    +0.216 C 
BRANCH   4  17
ATOM     17  C   UNL     1      -4.806  -1.042  23.956  0.00  0.00    +0.104 C 
ATOM     21  C   UNL     1      -4.096  -2.373  23.823  0.00  0.00    +0.024 C 
ENDBRANCH   4  17
BRANCH   4  18
ATOM     18  C   UNL     1      -2.791  -0.635  25.313  0.00  0.00    +0.104 C 
ATOM     22  C   UNL     1      -3.018  -1.436  26.579  0.00  0.00    +0.024 C 
ENDBRANCH   4  18
ENDBRANCH  10  14
ENDBRANCH   6  10
BRANCH   7  11
ATOM     11  C   UNL     1      -0.629   2.096  25.203  0.00  0.00    +0.064 C 
BRANCH  11  13
ATOM      2  O   UNL     1       0.914  -0.560  23.325  0.00  0.00    -0.359 OA
ATOM      5  N   UNL     1      -0.101  -0.046  24.123  0.00  0.00    -0.083 NA
ATOM     13  C   UNL     1       0.251   1.220  24.359  0.00  0.00    +0.084 A 
ATOM     15  C   UNL     1       1.468   1.559  23.742  0.00  0.00    +0.071 A 
ATOM     16  C   UNL     1       1.842   0.407  23.104  0.00  0.00    +0.138 A 
BRANCH  16  19
ATOM     19  C   UNL     1       2.993   0.033  22.273  0.00  0.00    +0.077 C 
BRANCH  19  20
ATOM     20  C   UNL     1       4.222   0.944  22.495  0.00  0.00    +0.007 C 
BRANCH  20  23
ATOM     23  C   UNL     1       5.057   0.519  23.703  0.00  0.00    -0.003 C 
ATOM     24  C   UNL     1       5.104  -0.993  23.844  0.00  0.00    +0.004 C 
ENDBRANCH  20  23
ENDBRANCH  19  20
ENDBRANCH  16  19
ENDBRANCH  11  13
ENDBRANCH   7  11
TORSDOF 9
ENDMDL
MODEL 9
REMARK VINA RESULT:      -2.9      1.641      2.286
REMARK  Name = 26742967
REMARK  12 active torsions:
REMARK  status: ('A' for Active; 'I' for Inactive)
REMARK    1  A    between atoms: N_4  and  C_17
REMARK    2  A    between atoms: N_4  and  C_18
REMARK    3  A    between atoms: C_6  and  C_10
REMARK    4  A    between atoms: C_7  and  C_11
REMARK    5  A    between atoms: C_10  and  C_14
REMARK    6  A    between atoms: C_11  and  C_13
REMARK    7  A    between atoms: C_16  and  C_19
REMARK    8  A    between atoms: C_17  and  C_21
REMARK    9  A    between atoms: C_18  and  C_22
REMARK   10  A    between atoms: C_19  and  C_20
REMARK   11  A    between atoms: C_20  and  C_23
REMARK   12  A    between atoms: C_23  and  C_24
REMARK                            x       y       z     vdW  Elec       q    Type
REMARK                         _______ _______ _______ _____ _____    ______ ____
ROOT
ATOM      3  N   UNL     1      -3.824  -3.012  25.238  0.00  0.00    -0.316 NA
ATOM      6  C   UNL     1      -2.891  -0.489  24.027  0.00  0.00    +0.004 C 
ATOM      7  C   UNL     1      -2.260  -1.086  25.308  0.00  0.00    +0.012 C 
ATOM      8  C   UNL     1      -3.546  -1.620  23.217  0.00  0.00    +0.019 C 
ATOM      9  C   UNL     1      -3.263  -1.957  26.082  0.00  0.00    +0.085 C 
ATOM     12  C   UNL     1      -4.497  -2.467  24.061  0.00  0.00    +0.081 C 
ATOM     25  H   UNL     1      -4.489  -3.562  25.781  0.00  0.00    +0.122 HD
ENDROOT
BRANCH   6  10
ATOM     10  C   UNL     1      -3.892   0.642  24.293  0.00  0.00    +0.100 C 
BRANCH  10  14
ATOM      1  O   UNL     1      -2.698   2.104  22.817  0.00  0.00    -0.276 OA
ATOM      4  N   UNL     1      -3.694   3.080  24.669  0.00  0.00    -0.302 N 
ATOM     14  C   UNL     1      -3.368   1.997  23.846  0.00  0.00    +0.216 C 
BRANCH   4  17
ATOM     17  C   UNL     1      -3.265   4.441  24.376  0.00  0.00    +0.104 C 
ATOM     21  C   UNL     1      -2.100   4.857  25.249  0.00  0.00    +0.024 C 
ENDBRANCH   4  17
BRANCH   4  18
ATOM     18  C   UNL     1      -4.490   2.928  25.885  0.00  0.00    +0.104 C 
ATOM     22  C   UNL     1      -5.827   3.630  25.764  0.00  0.00    +0.024 C 
ENDBRANCH   4  18
ENDBRANCH  10  14
ENDBRANCH   6  10
BRANCH   7  11
ATOM     11  C   UNL     1      -1.650  -0.025  26.226  0.00  0.00    +0.064 C 
BRANCH  11  13
ATOM      2  O   UNL     1       0.697   2.459  25.095  0.00  0.00    -0.359 OA
ATOM      5  N   UNL     1      -0.266   1.989  25.980  0.00  0.00    -0.083 NA
ATOM     13  C   UNL     1      -0.614   0.789  25.508  0.00  0.00    +0.084 A 
ATOM     15  C   UNL     1       0.090   0.452  24.338  0.00  0.00    +0.071 A 
ATOM     16  C   UNL     1       0.900   1.534  24.122  0.00  0.00    +0.138 A 
BRANCH  16  19
ATOM     19  C   UNL     1       1.894   1.871  23.095  0.00  0.00    +0.077 C 
BRANCH  19  20
ATOM     20  C   UNL     1       3.167   0.996  23.174  0.00  0.00    +0.007 C 
BRANCH  20  23
ATOM     23  C   UNL     1       2.960  -0.396  22.577  0.00  0.00    -0.003 C 
ATOM     24  C   UNL     1       1.898  -0.383  21.489  0.00  0.00    +0.004 C 
ENDBRANCH  20  23
ENDBRANCH  19  20
ENDBRANCH  16  19
ENDBRANCH  11  13
ENDBRANCH   7  11
TORSDOF 9
ENDMDL
MODEL 10
REMARK VINA RESULT:      -2.7      2.446      4.916
REMARK  Name = 26742967
REMARK  12 active torsions:
REMARK  status: ('A' for Active; 'I' for Inactive)
REMARK    1  A    between atoms: N_4  and  C_17
REMARK    2  A    between atoms: N_4  and  C_18
REMARK    3  A    between atoms: C_6  and  C_10
REMARK    4  A    between atoms: C_7  and  C_11
REMARK    5  A    between atoms: C_10  and  C_14
REMARK    6  A    between atoms: C_11  and  C_13
REMARK    7  A    between atoms: C_16  and  C_19
REMARK    8  A    between atoms: C_17  and  C_21
REMARK    9  A    between atoms: C_18  and  C_22
REMARK   10  A    between atoms: C_19  and  C_20
REMARK   11  A    between atoms: C_20  and  C_23
REMARK   12  A    between atoms: C_23  and  C_24
REMARK                            x       y       z     vdW  Elec       q    Type
REMARK                         _______ _______ _______ _____ _____    ______ ____
ROOT
ATOM      3  N   UNL     1      -5.659   3.066  26.618  0.00  0.00    -0.316 NA
ATOM      6  C   UNL     1      -4.711   2.213  23.959  0.00  0.00    +0.004 C 
ATOM      7  C   UNL     1      -5.807   1.450  24.740  0.00  0.00    +0.012 C 
ATOM      8  C   UNL     1      -4.681   3.675  24.434  0.00  0.00    +0.019 C 
ATOM      9  C   UNL     1      -5.664   1.648  26.259  0.00  0.00    +0.085 C 
ATOM     12  C   UNL     1      -4.579   3.793  25.954  0.00  0.00    +0.081 C 
ATOM     25  H   UNL     1      -5.554   3.158  27.629  0.00  0.00    +0.122 HD
ENDROOT
BRANCH   6  10
ATOM     10  C   UNL     1      -3.318   1.579  24.058  0.00  0.00    +0.100 C 
BRANCH  10  14
ATOM      1  O   UNL     1      -2.180   2.772  22.318  0.00  0.00    -0.276 OA
ATOM      4  N   UNL     1      -1.309   2.966  24.458  0.00  0.00    -0.302 N 
ATOM     14  C   UNL     1      -2.227   2.489  23.518  0.00  0.00    +0.216 C 
BRANCH   4  17
ATOM     17  C   UNL     1      -0.205   3.847  24.096  0.00  0.00    +0.104 C 
ATOM     21  C   UNL     1      -0.469   5.274  24.528  0.00  0.00    +0.024 C 
ENDBRANCH   4  17
BRANCH   4  18
ATOM     18  C   UNL     1      -1.385   2.617  25.876  0.00  0.00    +0.104 C 
ATOM     22  C   UNL     1      -0.025   2.243  26.428  0.00  0.00    +0.024 C 
ENDBRANCH   4  18
ENDBRANCH  10  14
ENDBRANCH   6  10
BRANCH   7  11
ATOM     11  C   UNL     1      -5.862  -0.039  24.395  0.00  0.00    +0.064 C 
BRANCH  11  13
ATOM      2  O   UNL     1      -2.872  -2.034  24.194  0.00  0.00    -0.359 OA
ATOM      5  N   UNL     1      -4.132  -1.657  23.744  0.00  0.00    -0.083 NA
ATOM     13  C   UNL     1      -4.524  -0.693  24.582  0.00  0.00    +0.084 A 
ATOM     15  C   UNL     1      -3.562  -0.422  25.571  0.00  0.00    +0.071 A 
ATOM     16  C   UNL     1      -2.544  -1.291  25.282  0.00  0.00    +0.138 A 
BRANCH  16  19
ATOM     19  C   UNL     1      -1.235  -1.561  25.889  0.00  0.00    +0.077 C 
BRANCH  19  20
ATOM     20  C   UNL     1      -0.070  -1.489  24.875  0.00  0.00    +0.007 C 
BRANCH  20  23
ATOM     23  C   UNL     1      -0.309  -0.450  23.779  0.00  0.00    -0.003 C 
ATOM     24  C   UNL     1       1.001   0.072  23.212  0.00  0.00    +0.004 C 
ENDBRANCH  20  23
ENDBRANCH  19  20
ENDBRANCH  16  19
ENDBRANCH  11  13
ENDBRANCH   7  11
TORSDOF 9
ENDMDL
