MODEL 1
REMARK VINA RESULT:      -1.2      0.000      0.000
REMARK  Name = 11912463
REMARK  12 active torsions:
REMARK  status: ('A' for Active; 'I' for Inactive)
REMARK    1  A    between atoms: S_1  and  N_7
REMARK    2  A    between atoms: S_1  and  C_18
REMARK    3  A    between atoms: S_2  and  C_25
REMARK    4  A    between atoms: S_2  and  C_27
REMARK    5  A    between atoms: O_6  and  C_24
REMARK    6  A    between atoms: O_6  and  C_26
REMARK    7  A    between atoms: N_8  and  C_21
REMARK    8  A    between atoms: C_9  and  C_14
REMARK    9  A    between atoms: C_10  and  C_15
REMARK   10  A    between atoms: C_14  and  C_16
REMARK   11  A    between atoms: C_15  and  C_17
REMARK   12  A    between atoms: C_21  and  C_25
REMARK                            x       y       z     vdW  Elec       q    Type
REMARK                         _______ _______ _______ _____ _____    ______ ____
ROOT
ATOM      7  N   UNL     1      -2.520  -0.757  24.601  0.00  0.00    -0.176 NA
ATOM      9  C   UNL     1      -4.099   0.733  23.391  0.00  0.00    +0.008 C 
ATOM     10  C   UNL     1      -5.051   0.677  24.611  0.00  0.00    +0.003 C 
ATOM     11  C   UNL     1      -4.286   0.367  25.906  0.00  0.00    +0.021 C 
ATOM     12  C   UNL     1      -3.263  -0.555  23.321  0.00  0.00    +0.113 C 
ATOM     13  C   UNL     1      -3.440  -0.895  25.766  0.00  0.00    +0.110 C 
ENDROOT
BRANCH   7   1
ATOM      1  S   UNL     1      -1.246  -1.901  24.535  0.00  0.00    +0.061 S 
ATOM      3  O   UNL     1      -1.509  -2.838  23.465  0.00  0.00    -0.153 OA
ATOM      4  O   UNL     1      -0.959  -2.361  25.876  0.00  0.00    -0.153 OA
BRANCH   1  18
ATOM     18  C   UNL     1       0.080  -0.855  24.023  0.00  0.00    +0.106 A 
ATOM     19  C   UNL     1       1.143  -1.384  23.289  0.00  0.00    +0.032 A 
ATOM     20  C   UNL     1       0.066   0.501  24.351  0.00  0.00    +0.032 A 
ATOM     22  C   UNL     1       2.190  -0.558  22.883  0.00  0.00    +0.047 A 
ATOM     23  C   UNL     1       1.114   1.327  23.945  0.00  0.00    +0.047 A 
ATOM     24  C   UNL     1       2.176   0.798  23.211  0.00  0.00    +0.120 A 
BRANCH  24   6
ATOM      6  O   UNL     1       3.198   1.605  22.816  0.00  0.00    -0.495 OA
ATOM     26  C   UNL     1       4.506   1.035  22.805  0.00  0.00    +0.277 C 
ENDBRANCH  24   6
ENDBRANCH   1  18
ENDBRANCH   7   1
BRANCH   9  14
ATOM     14  C   UNL     1      -3.189   1.968  23.364  0.00  0.00    +0.002 C 
ATOM     16  C   UNL     1      -2.484   2.097  22.030  0.00  0.00    +0.004 C 
ENDBRANCH   9  14
BRANCH  10  15
ATOM     15  C   UNL     1      -5.895   1.941  24.772  0.00  0.00    +0.099 C 
BRANCH  15  17
ATOM      5  O   UNL     1      -5.884   3.070  26.912  0.00  0.00    -0.276 OA
ATOM      8  N   UNL     1      -4.152   3.454  25.409  0.00  0.00    -0.315 N 
ATOM     17  C   UNL     1      -5.339   2.870  25.829  0.00  0.00    +0.213 C 
ATOM     28  H   UNL     1      -3.778   3.215  24.495  0.00  0.00    +0.149 HD
BRANCH   8  21
ATOM     21  C   UNL     1      -3.402   4.388  26.217  0.00  0.00    +0.115 C 
BRANCH  21  25
ATOM     25  C   UNL     1      -2.412   5.214  25.406  0.00  0.00    +0.087 C 
BRANCH  25   2
ATOM      2  S   UNL     1      -0.900   4.283  25.013  0.00  0.00    -0.163 S 
ATOM     27  C   UNL     1      -1.040   3.009  26.288  0.00  0.00    +0.084 C 
ENDBRANCH  25   2
ENDBRANCH  21  25
ENDBRANCH   8  21
ENDBRANCH  15  17
ENDBRANCH  10  15
TORSDOF 9
ENDMDL
MODEL 2
REMARK VINA RESULT:      -0.3      2.578      7.192
REMARK  Name = 11912463
REMARK  12 active torsions:
REMARK  status: ('A' for Active; 'I' for Inactive)
REMARK    1  A    between atoms: S_1  and  N_7
REMARK    2  A    between atoms: S_1  and  C_18
REMARK    3  A    between atoms: S_2  and  C_25
REMARK    4  A    between atoms: S_2  and  C_27
REMARK    5  A    between atoms: O_6  and  C_24
REMARK    6  A    between atoms: O_6  and  C_26
REMARK    7  A    between atoms: N_8  and  C_21
REMARK    8  A    between atoms: C_9  and  C_14
REMARK    9  A    between atoms: C_10  and  C_15
REMARK   10  A    between atoms: C_14  and  C_16
REMARK   11  A    between atoms: C_15  and  C_17
REMARK   12  A    between atoms: C_21  and  C_25
REMARK                            x       y       z     vdW  Elec       q    Type
REMARK                         _______ _______ _______ _____ _____    ______ ____
ROOT
ATOM      7  N   UNL     1      -2.047   0.043  24.452  0.00  0.00    -0.176 NA
ATOM      9  C   UNL     1      -0.237   1.663  24.981  0.00  0.00    +0.008 C 
ATOM     10  C   UNL     1       0.753   0.786  24.175  0.00  0.00    +0.003 C 
ATOM     11  C   UNL     1       0.024  -0.052  23.113  0.00  0.00    +0.021 C 
ATOM     12  C   UNL     1      -1.364   0.788  25.552  0.00  0.00    +0.113 C 
ATOM     13  C   UNL     1      -1.112  -0.864  23.727  0.00  0.00    +0.110 C 
ENDROOT
BRANCH   7   1
ATOM      1  S   UNL     1      -3.562  -0.642  24.862  0.00  0.00    +0.061 S 
ATOM      3  O   UNL     1      -3.437  -1.344  26.120  0.00  0.00    -0.153 OA
ATOM      4  O   UNL     1      -4.112  -1.295  23.694  0.00  0.00    -0.153 OA
BRANCH   1  18
ATOM     18  C   UNL     1      -4.495   0.827  25.153  0.00  0.00    +0.106 A 
ATOM     19  C   UNL     1      -5.537   0.819  26.081  0.00  0.00    +0.032 A 
ATOM     20  C   UNL     1      -4.190   1.997  24.457  0.00  0.00    +0.032 A 
ATOM     22  C   UNL     1      -6.274   1.981  26.313  0.00  0.00    +0.047 A 
ATOM     23  C   UNL     1      -4.928   3.159  24.690  0.00  0.00    +0.047 A 
ATOM     24  C   UNL     1      -5.969   3.151  25.617  0.00  0.00    +0.120 A 
BRANCH  24   6
ATOM      6  O   UNL     1      -6.688   4.284  25.842  0.00  0.00    -0.495 OA
ATOM     26  C   UNL     1      -6.105   5.517  25.421  0.00  0.00    +0.277 C 
ENDBRANCH  24   6
ENDBRANCH   1  18
ENDBRANCH   7   1
BRANCH   9  14
ATOM     14  C   UNL     1      -0.818   2.841  24.188  0.00  0.00    +0.002 C 
ATOM     16  C   UNL     1      -1.029   4.047  25.079  0.00  0.00    +0.004 C 
ENDBRANCH   9  14
BRANCH  10  15
ATOM     15  C   UNL     1       1.889   1.590  23.541  0.00  0.00    +0.099 C 
BRANCH  15  17
ATOM      5  O   UNL     1       2.347  -0.061  21.833  0.00  0.00    -0.276 OA
ATOM      8  N   UNL     1       4.119   0.965  22.935  0.00  0.00    -0.315 N 
ATOM     17  C   UNL     1       2.777   0.733  22.666  0.00  0.00    +0.213 C 
ATOM     28  H   UNL     1       4.373   1.651  23.640  0.00  0.00    +0.149 HD
BRANCH   8  21
ATOM     21  C   UNL     1       5.191   0.281  22.249  0.00  0.00    +0.115 C 
BRANCH  21  25
ATOM     25  C   UNL     1       6.318  -0.144  23.181  0.00  0.00    +0.087 C 
BRANCH  25   2
ATOM      2  S   UNL     1       5.695  -0.906  24.709  0.00  0.00    -0.163 S 
ATOM     27  C   UNL     1       4.466  -2.006  23.970  0.00  0.00    +0.084 C 
ENDBRANCH  25   2
ENDBRANCH  21  25
ENDBRANCH   8  21
ENDBRANCH  15  17
ENDBRANCH  10  15
TORSDOF 9
ENDMDL
MODEL 3
REMARK VINA RESULT:      -0.2      2.202      5.299
REMARK  Name = 11912463
REMARK  12 active torsions:
REMARK  status: ('A' for Active; 'I' for Inactive)
REMARK    1  A    between atoms: S_1  and  N_7
REMARK    2  A    between atoms: S_1  and  C_18
REMARK    3  A    between atoms: S_2  and  C_25
REMARK    4  A    between atoms: S_2  and  C_27
REMARK    5  A    between atoms: O_6  and  C_24
REMARK    6  A    between atoms: O_6  and  C_26
REMARK    7  A    between atoms: N_8  and  C_21
REMARK    8  A    between atoms: C_9  and  C_14
REMARK    9  A    between atoms: C_10  and  C_15
REMARK   10  A    between atoms: C_14  and  C_16
REMARK   11  A    between atoms: C_15  and  C_17
REMARK   12  A    between atoms: C_21  and  C_25
REMARK                            x       y       z     vdW  Elec       q    Type
REMARK                         _______ _______ _______ _____ _____    ______ ____
ROOT
ATOM      7  N   UNL     1      -4.627   2.604  25.288  0.00  0.00    -0.176 NA
ATOM      9  C   UNL     1      -3.414   4.189  23.808  0.00  0.00    +0.008 C 
ATOM     10  C   UNL     1      -3.044   5.033  25.052  0.00  0.00    +0.003 C 
ATOM     11  C   UNL     1      -3.038   4.179  26.328  0.00  0.00    +0.021 C 
ATOM     12  C   UNL     1      -4.733   3.442  24.057  0.00  0.00    +0.113 C 
ATOM     13  C   UNL     1      -4.353   3.426  26.501  0.00  0.00    +0.110 C 
ENDROOT
BRANCH   7   1
ATOM      1  S   UNL     1      -5.844   1.412  25.470  0.00  0.00    +0.061 S 
ATOM      3  O   UNL     1      -6.805   1.553  24.399  0.00  0.00    -0.153 OA
ATOM      4  O   UNL     1      -6.266   1.380  26.854  0.00  0.00    -0.153 OA
BRANCH   1  18
ATOM     18  C   UNL     1      -4.897  -0.044  25.157  0.00  0.00    +0.106 A 
ATOM     19  C   UNL     1      -5.083  -0.756  23.971  0.00  0.00    +0.032 A 
ATOM     20  C   UNL     1      -3.961  -0.483  26.094  0.00  0.00    +0.032 A 
ATOM     22  C   UNL     1      -4.334  -1.906  23.723  0.00  0.00    +0.047 A 
ATOM     23  C   UNL     1      -3.212  -1.634  25.845  0.00  0.00    +0.047 A 
ATOM     24  C   UNL     1      -3.398  -2.345  24.659  0.00  0.00    +0.120 A 
BRANCH  24   6
ATOM      6  O   UNL     1      -2.668  -3.468  24.418  0.00  0.00    -0.495 OA
ATOM     26  C   UNL     1      -1.322  -3.285  23.983  0.00  0.00    +0.277 C 
ENDBRANCH  24   6
ENDBRANCH   1  18
ENDBRANCH   7   1
BRANCH   9  14
ATOM     14  C   UNL     1      -2.316   3.213  23.366  0.00  0.00    +0.002 C 
ATOM     16  C   UNL     1      -2.892   2.083  22.539  0.00  0.00    +0.004 C 
ENDBRANCH   9  14
BRANCH  10  15
ATOM     15  C   UNL     1      -1.721   5.783  24.898  0.00  0.00    +0.099 C 
BRANCH  15  17
ATOM      5  O   UNL     1       0.371   4.999  23.970  0.00  0.00    -0.276 OA
ATOM      8  N   UNL     1      -0.635   3.802  25.691  0.00  0.00    -0.315 N 
ATOM     17  C   UNL     1      -0.541   4.843  24.778  0.00  0.00    +0.213 C 
ATOM     28  H   UNL     1      -1.427   3.768  26.326  0.00  0.00    +0.149 HD
BRANCH   8  21
ATOM     21  C   UNL     1       0.354   2.754  25.797  0.00  0.00    +0.115 C 
BRANCH  21  25
ATOM     25  C   UNL     1       0.566   2.002  24.489  0.00  0.00    +0.087 C 
BRANCH  25   2
ATOM      2  S   UNL     1      -0.236   0.371  24.495  0.00  0.00    -0.163 S 
ATOM     27  C   UNL     1       0.594  -0.333  23.053  0.00  0.00    +0.084 C 
ENDBRANCH  25   2
ENDBRANCH  21  25
ENDBRANCH   8  21
ENDBRANCH  15  17
ENDBRANCH  10  15
TORSDOF 9
ENDMDL
MODEL 4
REMARK VINA RESULT:       0.4      1.984      3.835
REMARK  Name = 11912463
REMARK  12 active torsions:
REMARK  status: ('A' for Active; 'I' for Inactive)
REMARK    1  A    between atoms: S_1  and  N_7
REMARK    2  A    between atoms: S_1  and  C_18
REMARK    3  A    between atoms: S_2  and  C_25
REMARK    4  A    between atoms: S_2  and  C_27
REMARK    5  A    between atoms: O_6  and  C_24
REMARK    6  A    between atoms: O_6  and  C_26
REMARK    7  A    between atoms: N_8  and  C_21
REMARK    8  A    between atoms: C_9  and  C_14
REMARK    9  A    between atoms: C_10  and  C_15
REMARK   10  A    between atoms: C_14  and  C_16
REMARK   11  A    between atoms: C_15  and  C_17
REMARK   12  A    between atoms: C_21  and  C_25
REMARK                            x       y       z     vdW  Elec       q    Type
REMARK                         _______ _______ _______ _____ _____    ______ ____
ROOT
ATOM      7  N   UNL     1      -0.220   0.923  23.741  0.00  0.00    -0.176 NA
ATOM      9  C   UNL     1       0.175   2.916  25.172  0.00  0.00    +0.008 C 
ATOM     10  C   UNL     1      -0.952   3.657  24.412  0.00  0.00    +0.003 C 
ATOM     11  C   UNL     1      -1.959   2.672  23.800  0.00  0.00    +0.021 C 
ATOM     12  C   UNL     1       0.819   1.865  24.255  0.00  0.00    +0.113 C 
ATOM     13  C   UNL     1      -1.262   1.625  22.938  0.00  0.00    +0.110 C 
ENDROOT
BRANCH   7   1
ATOM      1  S   UNL     1       0.381  -0.527  23.055  0.00  0.00    +0.061 S 
ATOM      3  O   UNL     1       0.029  -0.566  21.652  0.00  0.00    -0.153 OA
ATOM      4  O   UNL     1       0.062  -1.630  23.935  0.00  0.00    -0.153 OA
BRANCH   1  18
ATOM     18  C   UNL     1       2.116  -0.224  23.167  0.00  0.00    +0.106 A 
ATOM     19  C   UNL     1       2.643   0.987  22.718  0.00  0.00    +0.032 A 
ATOM     20  C   UNL     1       2.960  -1.196  23.706  0.00  0.00    +0.032 A 
ATOM     22  C   UNL     1       4.014   1.227  22.809  0.00  0.00    +0.047 A 
ATOM     23  C   UNL     1       4.332  -0.955  23.796  0.00  0.00    +0.047 A 
ATOM     24  C   UNL     1       4.858   0.256  23.347  0.00  0.00    +0.120 A 
BRANCH  24   6
ATOM      6  O   UNL     1       6.197   0.489  23.434  0.00  0.00    -0.495 OA
ATOM     26  C   UNL     1       7.066  -0.565  23.023  0.00  0.00    +0.277 C 
ENDBRANCH  24   6
ENDBRANCH   1  18
ENDBRANCH   7   1
BRANCH   9  14
ATOM     14  C   UNL     1      -0.276   2.278  26.492  0.00  0.00    +0.002 C 
ATOM     16  C   UNL     1       0.734   2.528  27.592  0.00  0.00    +0.004 C 
ENDBRANCH   9  14
BRANCH  10  15
ATOM     15  C   UNL     1      -1.670   4.701  25.268  0.00  0.00    +0.099 C 
BRANCH  15  17
ATOM      5  O   UNL     1      -3.047   4.015  27.135  0.00  0.00    -0.276 OA
ATOM      8  N   UNL     1      -3.872   3.811  24.971  0.00  0.00    -0.315 N 
ATOM     17  C   UNL     1      -2.917   4.146  25.920  0.00  0.00    +0.213 C 
ATOM     28  H   UNL     1      -3.671   3.967  23.988  0.00  0.00    +0.149 HD
BRANCH   8  21
ATOM     21  C   UNL     1      -5.162   3.255  25.311  0.00  0.00    +0.115 C 
BRANCH  21  25
ATOM     25  C   UNL     1      -5.394   1.877  24.704  0.00  0.00    +0.087 C 
BRANCH  25   2
ATOM      2  S   UNL     1      -4.293   0.618  25.416  0.00  0.00    -0.163 S 
ATOM     27  C   UNL     1      -4.248  -0.515  24.009  0.00  0.00    +0.084 C 
ENDBRANCH  25   2
ENDBRANCH  21  25
ENDBRANCH   8  21
ENDBRANCH  15  17
ENDBRANCH  10  15
TORSDOF 9
ENDMDL
MODEL 5
REMARK VINA RESULT:       1.5      2.173      3.485
REMARK  Name = 11912463
REMARK  12 active torsions:
REMARK  status: ('A' for Active; 'I' for Inactive)
REMARK    1  A    between atoms: S_1  and  N_7
REMARK    2  A    between atoms: S_1  and  C_18
REMARK    3  A    between atoms: S_2  and  C_25
REMARK    4  A    between atoms: S_2  and  C_27
REMARK    5  A    between atoms: O_6  and  C_24
REMARK    6  A    between atoms: O_6  and  C_26
REMARK    7  A    between atoms: N_8  and  C_21
REMARK    8  A    between atoms: C_9  and  C_14
REMARK    9  A    between atoms: C_10  and  C_15
REMARK   10  A    between atoms: C_14  and  C_16
REMARK   11  A    between atoms: C_15  and  C_17
REMARK   12  A    between atoms: C_21  and  C_25
REMARK                            x       y       z     vdW  Elec       q    Type
REMARK                         _______ _______ _______ _____ _____    ______ ____
ROOT
ATOM      7  N   UNL     1       0.055   0.777  23.394  0.00  0.00    -0.176 NA
ATOM      9  C   UNL     1      -1.990   2.075  23.951  0.00  0.00    +0.008 C 
ATOM     10  C   UNL     1      -1.185   2.836  25.032  0.00  0.00    +0.003 C 
ATOM     11  C   UNL     1       0.317   2.847  24.711  0.00  0.00    +0.021 C 
ATOM     12  C   UNL     1      -1.393   0.674  23.745  0.00  0.00    +0.113 C 
ATOM     13  C   UNL     1       0.846   1.436  24.473  0.00  0.00    +0.110 C 
ENDROOT
BRANCH   7   1
ATOM      1  S   UNL     1       0.752  -0.644  22.739  0.00  0.00    +0.061 S 
ATOM      3  O   UNL     1       0.530  -0.662  21.310  0.00  0.00    -0.153 OA
ATOM      4  O   UNL     1       0.382  -1.772  23.566  0.00  0.00    -0.153 OA
BRANCH   1  18
ATOM     18  C   UNL     1       2.461  -0.303  23.016  0.00  0.00    +0.106 A 
ATOM     19  C   UNL     1       3.266  -1.247  23.657  0.00  0.00    +0.032 A 
ATOM     20  C   UNL     1       3.009   0.908  22.594  0.00  0.00    +0.032 A 
ATOM     22  C   UNL     1       4.617  -0.979  23.874  0.00  0.00    +0.047 A 
ATOM     23  C   UNL     1       4.361   1.177  22.812  0.00  0.00    +0.047 A 
ATOM     24  C   UNL     1       5.165   0.233  23.452  0.00  0.00    +0.120 A 
BRANCH  24   6
ATOM      6  O   UNL     1       6.483   0.497  23.666  0.00  0.00    -0.495 OA
ATOM     26  C   UNL     1       7.426  -0.417  23.105  0.00  0.00    +0.277 C 
ENDBRANCH  24   6
ENDBRANCH   1  18
ENDBRANCH   7   1
BRANCH   9  14
ATOM     14  C   UNL     1      -2.097   2.817  22.612  0.00  0.00    +0.002 C 
ATOM     16  C   UNL     1      -2.739   1.945  21.554  0.00  0.00    +0.004 C 
ENDBRANCH   9  14
BRANCH  10  15
ATOM     15  C   UNL     1      -1.695   4.258  25.272  0.00  0.00    +0.099 C 
BRANCH  15  17
ATOM      5  O   UNL     1      -3.704   5.110  24.227  0.00  0.00    -0.276 OA
ATOM      8  N   UNL     1      -3.882   3.546  25.937  0.00  0.00    -0.315 N 
ATOM     17  C   UNL     1      -3.190   4.373  25.064  0.00  0.00    +0.213 C 
ATOM     28  H   UNL     1      -3.361   2.965  26.589  0.00  0.00    +0.149 HD
BRANCH   8  21
ATOM     21  C   UNL     1      -5.324   3.455  25.964  0.00  0.00    +0.115 C 
BRANCH  21  25
ATOM     25  C   UNL     1      -5.830   2.019  25.938  0.00  0.00    +0.087 C 
BRANCH  25   2
ATOM      2  S   UNL     1      -5.140   1.072  24.548  0.00  0.00    -0.163 S 
ATOM     27  C   UNL     1      -4.280  -0.201  25.500  0.00  0.00    +0.084 C 
ENDBRANCH  25   2
ENDBRANCH  21  25
ENDBRANCH   8  21
ENDBRANCH  15  17
ENDBRANCH  10  15
TORSDOF 9
ENDMDL
MODEL 6
REMARK VINA RESULT:       1.6      2.078      6.580
REMARK  Name = 11912463
REMARK  12 active torsions:
REMARK  status: ('A' for Active; 'I' for Inactive)
REMARK    1  A    between atoms: S_1  and  N_7
REMARK    2  A    between atoms: S_1  and  C_18
REMARK    3  A    between atoms: S_2  and  C_25
REMARK    4  A    between atoms: S_2  and  C_27
REMARK    5  A    between atoms: O_6  and  C_24
REMARK    6  A    between atoms: O_6  and  C_26
REMARK    7  A    between atoms: N_8  and  C_21
REMARK    8  A    between atoms: C_9  and  C_14
REMARK    9  A    between atoms: C_10  and  C_15
REMARK   10  A    between atoms: C_14  and  C_16
REMARK   11  A    between atoms: C_15  and  C_17
REMARK   12  A    between atoms: C_21  and  C_25
REMARK                            x       y       z     vdW  Elec       q    Type
REMARK                         _______ _______ _______ _____ _____    ______ ____
ROOT
ATOM      7  N   UNL     1      -0.338   1.783  24.552  0.00  0.00    -0.176 NA
ATOM      9  C   UNL     1       0.885  -0.272  23.875  0.00  0.00    +0.008 C 
ATOM     10  C   UNL     1       0.231  -1.025  25.060  0.00  0.00    +0.003 C 
ATOM     11  C   UNL     1      -1.099  -0.377  25.471  0.00  0.00    +0.021 C 
ATOM     12  C   UNL     1       1.003   1.223  24.208  0.00  0.00    +0.113 C 
ATOM     13  C   UNL     1      -0.933   1.114  25.745  0.00  0.00    +0.110 C 
ENDROOT
BRANCH   7   1
ATOM      1  S   UNL     1      -0.443   3.493  24.543  0.00  0.00    +0.061 S 
ATOM      3  O   UNL     1      -0.210   3.972  23.198  0.00  0.00    -0.153 OA
ATOM      4  O   UNL     1       0.310   4.015  25.662  0.00  0.00    -0.153 OA
BRANCH   1  18
ATOM     18  C   UNL     1      -2.159   3.697  24.899  0.00  0.00    +0.106 A 
ATOM     19  C   UNL     1      -2.564   4.105  26.171  0.00  0.00    +0.032 A 
ATOM     20  C   UNL     1      -3.111   3.451  23.909  0.00  0.00    +0.032 A 
ATOM     22  C   UNL     1      -3.920   4.268  26.452  0.00  0.00    +0.047 A 
ATOM     23  C   UNL     1      -4.468   3.614  24.192  0.00  0.00    +0.047 A 
ATOM     24  C   UNL     1      -4.872   4.023  25.462  0.00  0.00    +0.120 A 
BRANCH  24   6
ATOM      6  O   UNL     1      -6.196   4.180  25.737  0.00  0.00    -0.495 OA
ATOM     26  C   UNL     1      -6.942   2.999  26.029  0.00  0.00    +0.277 C 
ENDBRANCH  24   6
ENDBRANCH   1  18
ENDBRANCH   7   1
BRANCH   9  14
ATOM     14  C   UNL     1       0.166  -0.471  22.534  0.00  0.00    +0.002 C 
ATOM     16  C   UNL     1       1.157  -0.582  21.395  0.00  0.00    +0.004 C 
ENDBRANCH   9  14
BRANCH  10  15
ATOM     15  C   UNL     1       0.045  -2.519  24.793  0.00  0.00    +0.099 C 
BRANCH  15  17
ATOM      5  O   UNL     1      -1.596  -3.387  23.243  0.00  0.00    -0.276 OA
ATOM      8  N   UNL     1      -2.305  -2.451  25.248  0.00  0.00    -0.315 N 
ATOM     17  C   UNL     1      -1.354  -2.845  24.318  0.00  0.00    +0.213 C 
ATOM     28  H   UNL     1      -2.000  -2.016  26.115  0.00  0.00    +0.149 HD
BRANCH   8  21
ATOM     21  C   UNL     1      -3.725  -2.636  25.055  0.00  0.00    +0.115 C 
BRANCH  21  25
ATOM     25  C   UNL     1      -4.249  -1.948  23.801  0.00  0.00    +0.087 C 
BRANCH  25   2
ATOM      2  S   UNL     1      -3.853  -0.174  23.775  0.00  0.00    -0.163 S 
ATOM     27  C   UNL     1      -4.627   0.289  25.341  0.00  0.00    +0.084 C 
ENDBRANCH  25   2
ENDBRANCH  21  25
ENDBRANCH   8  21
ENDBRANCH  15  17
ENDBRANCH  10  15
TORSDOF 9
ENDMDL
MODEL 7
REMARK VINA RESULT:       1.9      1.440      1.939
REMARK  Name = 11912463
REMARK  12 active torsions:
REMARK  status: ('A' for Active; 'I' for Inactive)
REMARK    1  A    between atoms: S_1  and  N_7
REMARK    2  A    between atoms: S_1  and  C_18
REMARK    3  A    between atoms: S_2  and  C_25
REMARK    4  A    between atoms: S_2  and  C_27
REMARK    5  A    between atoms: O_6  and  C_24
REMARK    6  A    between atoms: O_6  and  C_26
REMARK    7  A    between atoms: N_8  and  C_21
REMARK    8  A    between atoms: C_9  and  C_14
REMARK    9  A    between atoms: C_10  and  C_15
REMARK   10  A    between atoms: C_14  and  C_16
REMARK   11  A    between atoms: C_15  and  C_17
REMARK   12  A    between atoms: C_21  and  C_25
REMARK                            x       y       z     vdW  Elec       q    Type
REMARK                         _______ _______ _______ _____ _____    ______ ____
ROOT
ATOM      7  N   UNL     1      -1.908  -1.005  24.791  0.00  0.00    -0.176 NA
ATOM      9  C   UNL     1      -4.240  -0.336  25.330  0.00  0.00    +0.008 C 
ATOM     10  C   UNL     1      -3.765   1.132  25.458  0.00  0.00    +0.003 C 
ATOM     11  C   UNL     1      -2.495   1.386  24.632  0.00  0.00    +0.021 C 
ATOM     12  C   UNL     1      -3.083  -1.290  25.667  0.00  0.00    +0.113 C 
ATOM     13  C   UNL     1      -1.398   0.384  24.975  0.00  0.00    +0.110 C 
ENDROOT
BRANCH   7   1
ATOM      1  S   UNL     1      -0.707  -2.227  24.756  0.00  0.00    +0.061 S 
ATOM      3  O   UNL     1      -1.131  -3.277  23.856  0.00  0.00    -0.153 OA
ATOM      4  O   UNL     1      -0.302  -2.525  26.112  0.00  0.00    -0.153 OA
BRANCH   1  18
ATOM     18  C   UNL     1       0.607  -1.345  23.976  0.00  0.00    +0.106 A 
ATOM     19  C   UNL     1       1.933  -1.671  24.262  0.00  0.00    +0.032 A 
ATOM     20  C   UNL     1       0.320  -0.322  23.072  0.00  0.00    +0.032 A 
ATOM     22  C   UNL     1       2.972  -0.975  23.645  0.00  0.00    +0.047 A 
ATOM     23  C   UNL     1       1.360   0.375  22.455  0.00  0.00    +0.047 A 
ATOM     24  C   UNL     1       2.685   0.048  22.741  0.00  0.00    +0.120 A 
BRANCH  24   6
ATOM      6  O   UNL     1       3.699   0.729  22.140  0.00  0.00    -0.495 OA
ATOM     26  C   UNL     1       4.942   0.790  22.837  0.00  0.00    +0.277 C 
ENDBRANCH  24   6
ENDBRANCH   1  18
ENDBRANCH   7   1
BRANCH   9  14
ATOM     14  C   UNL     1      -4.842  -0.682  23.962  0.00  0.00    +0.002 C 
ATOM     16  C   UNL     1      -4.555  -2.121  23.587  0.00  0.00    +0.004 C 
ENDBRANCH   9  14
BRANCH  10  15
ATOM     15  C   UNL     1      -4.851   2.148  25.103  0.00  0.00    +0.099 C 
BRANCH  15  17
ATOM      5  O   UNL     1      -4.490   4.172  23.829  0.00  0.00    -0.276 OA
ATOM      8  N   UNL     1      -3.515   3.955  25.927  0.00  0.00    -0.315 N 
ATOM     17  C   UNL     1      -4.285   3.529  24.855  0.00  0.00    +0.213 C 
ATOM     28  H   UNL     1      -3.413   3.349  26.737  0.00  0.00    +0.149 HD
BRANCH   8  21
ATOM     21  C   UNL     1      -2.848   5.236  25.962  0.00  0.00    +0.115 C 
BRANCH  21  25
ATOM     25  C   UNL     1      -1.560   5.258  25.150  0.00  0.00    +0.087 C 
BRANCH  25   2
ATOM      2  S   UNL     1      -0.488   3.838  25.523  0.00  0.00    -0.163 S 
ATOM     27  C   UNL     1       0.067   3.481  23.840  0.00  0.00    +0.084 C 
ENDBRANCH  25   2
ENDBRANCH  21  25
ENDBRANCH   8  21
ENDBRANCH  15  17
ENDBRANCH  10  15
TORSDOF 9
ENDMDL
