MODEL 1
REMARK VINA RESULT:      -5.9      0.000      0.000
REMARK  Name = 7143951
REMARK  3 active torsions:
REMARK  status: ('A' for Active; 'I' for Inactive)
REMARK    1  A    between atoms: N_2  and  C_11
REMARK    2  A    between atoms: C_11  and  C_16
REMARK    3  A    between atoms: C_14  and  C_17
REMARK                            x       y       z     vdW  Elec       q    Type
REMARK                         _______ _______ _______ _____ _____    ______ ____
ROOT
ATOM      1  O   UNL     1      15.954  -7.224  25.843  0.00  0.00    -0.267 OA
ATOM      2  N   UNL     1      14.063  -9.482  29.902  0.00  0.00    -0.297 NA
ATOM      3  N   UNL     1      16.241  -8.318  27.882  0.00  0.00    -0.311 N 
ATOM      4  C   UNL     1      15.493 -10.739  28.272  0.00  0.00    +0.024 C 
ATOM      5  C   UNL     1      16.554  -9.489  30.090  0.00  0.00    +0.050 C 
ATOM      6  C   UNL     1      16.639 -10.776  29.274  0.00  0.00    +0.017 C 
ATOM      7  C   UNL     1      14.143 -10.647  29.014  0.00  0.00    +0.090 C 
ATOM      8  C   UNL     1      15.200  -9.436  30.833  0.00  0.00    +0.094 C 
ATOM      9  C   UNL     1      15.717  -9.566  27.308  0.00  0.00    +0.130 C 
ATOM     10  C   UNL     1      16.716  -8.273  29.196  0.00  0.00    +0.026 A 
ATOM     12  C   UNL     1      17.293  -7.155  29.664  0.00  0.00    +0.022 A 
ATOM     13  C   UNL     1      16.331  -7.211  27.016  0.00  0.00    +0.259 A 
ATOM     14  C   UNL     1      16.952  -5.962  27.581  0.00  0.00    +0.047 A 
ATOM     15  C   UNL     1      17.405  -5.983  28.843  0.00  0.00    +0.015 A 
ENDROOT
BRANCH  14  17
ATOM     17  C   UNL     1      17.057  -4.731  26.778  0.00  0.00    -0.012 A 
ATOM     20  C   UNL     1      16.909  -4.786  25.391  0.00  0.00    +0.017 A 
ATOM     21  C   UNL     1      17.305  -3.510  27.402  0.00  0.00    +0.009 A 
ATOM     24  C   UNL     1      17.006  -3.622  24.612  0.00  0.00    -0.017 A 
ATOM     26  C   UNL     1      17.405  -2.344  26.644  0.00  0.00    +0.009 A 
ATOM     27  C   UNL     1      17.259  -2.382  25.247  0.00  0.00    -0.018 A 
ATOM     28  C   UNL     1      16.859  -3.660  23.216  0.00  0.00    +0.008 A 
ATOM     29  C   UNL     1      17.356  -1.218  24.468  0.00  0.00    +0.008 A 
ATOM     30  C   UNL     1      16.959  -2.494  22.457  0.00  0.00    +0.001 A 
ATOM     31  C   UNL     1      17.207  -1.275  23.083  0.00  0.00    +0.001 A 
ENDBRANCH  14  17
BRANCH   2  11
ATOM     11  C   UNL     1      12.794  -9.460  30.625  0.00  0.00    +0.119 C 
BRANCH  11  16
ATOM     16  C   UNL     1      12.473  -8.074  31.114  0.00  0.00    -0.033 A 
ATOM     18  C   UNL     1      11.566  -7.907  32.151  0.00  0.00    +0.005 A 
ATOM     19  C   UNL     1      13.088  -6.979  30.521  0.00  0.00    +0.005 A 
ATOM     22  C   UNL     1      11.269  -6.621  32.605  0.00  0.00    +0.000 A 
ATOM     23  C   UNL     1      12.790  -5.694  30.974  0.00  0.00    +0.000 A 
ATOM     25  C   UNL     1      11.881  -5.515  32.017  0.00  0.00    +0.000 A 
ENDBRANCH  11  16
ENDBRANCH   2  11
TORSDOF 3
ENDMDL
