MODEL 1
REMARK VINA RESULT:      -3.2      0.000      0.000
REMARK  Name = 56775817
REMARK  9 active torsions:
REMARK  status: ('A' for Active; 'I' for Inactive)
REMARK    1  A    between atoms: O_4  and  C_16
REMARK    2  A    between atoms: O_4  and  C_22
REMARK    3  A    between atoms: O_5  and  C_23
REMARK    4  A    between atoms: O_5  and  C_24
REMARK    5  A    between atoms: N_6  and  C_8
REMARK    6  A    between atoms: C_8  and  C_11
REMARK    7  A    between atoms: C_11  and  C_12
REMARK    8  A    between atoms: C_13  and  C_16
REMARK    9  A    between atoms: C_15  and  C_17
REMARK                            x       y       z     vdW  Elec       q    Type
REMARK                         _______ _______ _______ _____ _____    ______ ____
ROOT
ATOM      2  O   UNL     1      -5.013  -9.058   9.548  0.00  0.00    -0.354 OA
ATOM      7  N   UNL     1      -6.078  -9.012   8.657  0.00  0.00    -0.083 NA
ATOM     12  C   UNL     1      -6.913  -9.971   9.065  0.00  0.00    +0.086 A 
ATOM     14  C   UNL     1      -6.433 -10.649  10.200  0.00  0.00    +0.076 A 
ATOM     15  C   UNL     1      -5.236 -10.037  10.462  0.00  0.00    +0.167 A 
ENDROOT
BRANCH  15  17
ATOM     17  C   UNL     1      -4.217 -10.205  11.456  0.00  0.00    +0.020 A 
ATOM     18  C   UNL     1      -2.875 -10.265  11.076  0.00  0.00    +0.015 A 
ATOM     19  C   UNL     1      -4.565 -10.311  12.803  0.00  0.00    +0.015 A 
ATOM     20  C   UNL     1      -1.883 -10.427  12.043  0.00  0.00    +0.046 A 
ATOM     21  C   UNL     1      -3.573 -10.474  13.769  0.00  0.00    +0.046 A 
ATOM     23  C   UNL     1      -2.232 -10.533  13.390  0.00  0.00    +0.120 A 
BRANCH  23   5
ATOM      5  O   UNL     1      -1.264 -10.695  14.332  0.00  0.00    -0.495 OA
ATOM     24  C   UNL     1      -1.667 -10.604  15.698  0.00  0.00    +0.277 C 
ENDBRANCH  23   5
ENDBRANCH  15  17
BRANCH  12  11
ATOM     11  C   UNL     1      -8.206 -10.215   8.319  0.00  0.00    +0.089 C 
BRANCH  11   8
ATOM      1  O   UNL     1     -10.279  -7.749   8.284  0.00  0.00    -0.375 OA
ATOM      8  C   UNL     1      -9.354  -9.531   9.012  0.00  0.00    +0.086 C 
ATOM      9  C   UNL     1      -9.204  -8.026   9.211  0.00  0.00    +0.188 C 
ATOM     10  C   UNL     1     -10.537  -9.163   8.124  0.00  0.00    +0.188 C 
BRANCH   8   6
ATOM      3  O   UNL     1      -8.723  -8.819  11.746  0.00  0.00    -0.273 OA
ATOM      6  N   UNL     1      -9.717 -10.272  10.232  0.00  0.00    -0.303 N 
ATOM     13  C   UNL     1      -9.361  -9.839  11.502  0.00  0.00    +0.239 C 
ATOM     25  H   UNL     1     -10.257 -11.131  10.155  0.00  0.00    +0.149 HD
BRANCH  13  16
ATOM     16  C   UNL     1      -9.856 -10.781  12.579  0.00  0.00    +0.255 C 
BRANCH  16   4
ATOM      4  O   UNL     1      -9.235 -10.493  13.813  0.00  0.00    -0.374 OA
ATOM     22  C   UNL     1     -10.158  -9.961  14.760  0.00  0.00    +0.194 C 
ENDBRANCH  16   4
ENDBRANCH  13  16
ENDBRANCH   8   6
ENDBRANCH  11   8
ENDBRANCH  12  11
TORSDOF 7
ENDMDL
MODEL 2
REMARK VINA RESULT:      -3.2     16.874     18.391
REMARK  Name = 56775817
REMARK  9 active torsions:
REMARK  status: ('A' for Active; 'I' for Inactive)
REMARK    1  A    between atoms: O_4  and  C_16
REMARK    2  A    between atoms: O_4  and  C_22
REMARK    3  A    between atoms: O_5  and  C_23
REMARK    4  A    between atoms: O_5  and  C_24
REMARK    5  A    between atoms: N_6  and  C_8
REMARK    6  A    between atoms: C_8  and  C_11
REMARK    7  A    between atoms: C_11  and  C_12
REMARK    8  A    between atoms: C_13  and  C_16
REMARK    9  A    between atoms: C_15  and  C_17
REMARK                            x       y       z     vdW  Elec       q    Type
REMARK                         _______ _______ _______ _____ _____    ______ ____
ROOT
ATOM      2  O   UNL     1      -1.693   1.543  22.771  0.00  0.00    -0.354 OA
ATOM      7  N   UNL     1      -3.030   1.486  23.147  0.00  0.00    -0.083 NA
ATOM     12  C   UNL     1      -3.079   0.564  24.112  0.00  0.00    +0.086 A 
ATOM     14  C   UNL     1      -1.816   0.010  24.386  0.00  0.00    +0.076 A 
ATOM     15  C   UNL     1      -0.980   0.659  23.516  0.00  0.00    +0.167 A 
ENDROOT
BRANCH  15  17
ATOM     17  C   UNL     1       0.426   0.605  23.242  0.00  0.00    +0.020 A 
ATOM     18  C   UNL     1       0.939  -0.404  22.426  0.00  0.00    +0.015 A 
ATOM     19  C   UNL     1       1.282   1.560  23.791  0.00  0.00    +0.015 A 
ATOM     20  C   UNL     1       2.307  -0.456  22.158  0.00  0.00    +0.046 A 
ATOM     21  C   UNL     1       2.649   1.507  23.523  0.00  0.00    +0.046 A 
ATOM     23  C   UNL     1       3.162   0.499  22.708  0.00  0.00    +0.120 A 
BRANCH  23   5
ATOM      5  O   UNL     1       4.497   0.445  22.449  0.00  0.00    -0.495 OA
ATOM     24  C   UNL     1       5.353   0.081  23.531  0.00  0.00    +0.277 C 
ENDBRANCH  23   5
ENDBRANCH  15  17
BRANCH  12  11
ATOM     11  C   UNL     1      -4.398   0.230  24.771  0.00  0.00    +0.089 C 
BRANCH  11   8
ATOM      1  O   UNL     1      -7.118   1.726  25.633  0.00  0.00    -0.375 OA
ATOM      8  C   UNL     1      -5.015   1.464  25.375  0.00  0.00    +0.086 C 
ATOM      9  C   UNL     1      -6.175   2.073  24.594  0.00  0.00    +0.188 C 
ATOM     10  C   UNL     1      -6.051   1.219  26.466  0.00  0.00    +0.188 C 
BRANCH   8   6
ATOM      3  O   UNL     1      -5.192   4.353  25.358  0.00  0.00    -0.273 OA
ATOM      6  N   UNL     1      -3.960   2.423  25.743  0.00  0.00    -0.303 N 
ATOM     13  C   UNL     1      -4.152   3.797  25.698  0.00  0.00    +0.239 C 
ATOM     25  H   UNL     1      -3.054   2.078  26.053  0.00  0.00    +0.149 HD
BRANCH  13  16
ATOM     16  C   UNL     1      -2.913   4.555  26.125  0.00  0.00    +0.255 C 
BRANCH  16   4
ATOM      4  O   UNL     1      -1.754   3.785  25.887  0.00  0.00    -0.374 OA
ATOM     22  C   UNL     1      -0.908   4.387  24.911  0.00  0.00    +0.194 C 
ENDBRANCH  16   4
ENDBRANCH  13  16
ENDBRANCH   8   6
ENDBRANCH  11   8
ENDBRANCH  12  11
TORSDOF 7
ENDMDL
MODEL 3
REMARK VINA RESULT:      -3.2     16.525     17.905
REMARK  Name = 56775817
REMARK  9 active torsions:
REMARK  status: ('A' for Active; 'I' for Inactive)
REMARK    1  A    between atoms: O_4  and  C_16
REMARK    2  A    between atoms: O_4  and  C_22
REMARK    3  A    between atoms: O_5  and  C_23
REMARK    4  A    between atoms: O_5  and  C_24
REMARK    5  A    between atoms: N_6  and  C_8
REMARK    6  A    between atoms: C_8  and  C_11
REMARK    7  A    between atoms: C_11  and  C_12
REMARK    8  A    between atoms: C_13  and  C_16
REMARK    9  A    between atoms: C_15  and  C_17
REMARK                            x       y       z     vdW  Elec       q    Type
REMARK                         _______ _______ _______ _____ _____    ______ ____
ROOT
ATOM      2  O   UNL     1      -0.598   2.352  24.824  0.00  0.00    -0.354 OA
ATOM      7  N   UNL     1      -1.922   2.740  24.994  0.00  0.00    -0.083 NA
ATOM     12  C   UNL     1      -2.571   2.218  23.951  0.00  0.00    +0.086 A 
ATOM     14  C   UNL     1      -1.718   1.495  23.097  0.00  0.00    +0.076 A 
ATOM     15  C   UNL     1      -0.489   1.611  23.692  0.00  0.00    +0.167 A 
ENDROOT
BRANCH  15  17
ATOM     17  C   UNL     1       0.827   1.135  23.384  0.00  0.00    +0.020 A 
ATOM     18  C   UNL     1       1.017  -0.197  23.010  0.00  0.00    +0.015 A 
ATOM     19  C   UNL     1       1.918   2.000  23.459  0.00  0.00    +0.015 A 
ATOM     20  C   UNL     1       2.298  -0.660  22.709  0.00  0.00    +0.046 A 
ATOM     21  C   UNL     1       3.199   1.535  23.159  0.00  0.00    +0.046 A 
ATOM     23  C   UNL     1       3.389   0.206  22.785  0.00  0.00    +0.120 A 
BRANCH  23   5
ATOM      5  O   UNL     1       4.638  -0.249  22.495  0.00  0.00    -0.495 OA
ATOM     24  C   UNL     1       5.645  -0.052  23.487  0.00  0.00    +0.277 C 
ENDBRANCH  23   5
ENDBRANCH  15  17
BRANCH  12  11
ATOM     11  C   UNL     1      -4.060   2.438  23.801  0.00  0.00    +0.089 C 
BRANCH  11   8
ATOM      1  O   UNL     1      -6.490   3.050  25.825  0.00  0.00    -0.375 OA
ATOM      8  C   UNL     1      -4.785   2.023  25.053  0.00  0.00    +0.086 C 
ATOM      9  C   UNL     1      -5.066   3.139  26.054  0.00  0.00    +0.188 C 
ATOM     10  C   UNL     1      -6.302   1.925  24.937  0.00  0.00    +0.188 C 
BRANCH   8   6
ATOM      3  O   UNL     1      -4.712  -0.647  23.937  0.00  0.00    -0.273 OA
ATOM      6  N   UNL     1      -4.141   0.832  25.634  0.00  0.00    -0.303 N 
ATOM     13  C   UNL     1      -4.167  -0.408  25.011  0.00  0.00    +0.239 C 
ATOM     25  H   UNL     1      -3.647   0.911  26.520  0.00  0.00    +0.149 HD
BRANCH  13  16
ATOM     16  C   UNL     1      -3.433  -1.459  25.816  0.00  0.00    +0.255 C 
BRANCH  16   4
ATOM      4  O   UNL     1      -3.032  -2.529  24.987  0.00  0.00    -0.374 OA
ATOM     22  C   UNL     1      -1.708  -2.349  24.493  0.00  0.00    +0.194 C 
ENDBRANCH  16   4
ENDBRANCH  13  16
ENDBRANCH   8   6
ENDBRANCH  11   8
ENDBRANCH  12  11
TORSDOF 7
ENDMDL
MODEL 4
REMARK VINA RESULT:      -2.2      3.538      4.627
REMARK  Name = 56775817
REMARK  9 active torsions:
REMARK  status: ('A' for Active; 'I' for Inactive)
REMARK    1  A    between atoms: O_4  and  C_16
REMARK    2  A    between atoms: O_4  and  C_22
REMARK    3  A    between atoms: O_5  and  C_23
REMARK    4  A    between atoms: O_5  and  C_24
REMARK    5  A    between atoms: N_6  and  C_8
REMARK    6  A    between atoms: C_8  and  C_11
REMARK    7  A    between atoms: C_11  and  C_12
REMARK    8  A    between atoms: C_13  and  C_16
REMARK    9  A    between atoms: C_15  and  C_17
REMARK                            x       y       z     vdW  Elec       q    Type
REMARK                         _______ _______ _______ _____ _____    ______ ____
ROOT
ATOM      2  O   UNL     1      -2.060  -9.705  12.710  0.00  0.00    -0.354 OA
ATOM      7  N   UNL     1      -3.258 -10.362  12.454  0.00  0.00    -0.083 NA
ATOM     12  C   UNL     1      -3.475 -10.190  11.147  0.00  0.00    +0.086 A 
ATOM     14  C   UNL     1      -2.456  -9.442  10.531  0.00  0.00    +0.076 A 
ATOM     15  C   UNL     1      -1.592  -9.162  11.557  0.00  0.00    +0.167 A 
ENDROOT
BRANCH  15  17
ATOM     17  C   UNL     1      -0.353  -8.449  11.663  0.00  0.00    +0.020 A 
ATOM     18  C   UNL     1      -0.250  -7.353  12.521  0.00  0.00    +0.015 A 
ATOM     19  C   UNL     1       0.749  -8.848  10.907  0.00  0.00    +0.015 A 
ATOM     20  C   UNL     1       0.956  -6.660  12.625  0.00  0.00    +0.046 A 
ATOM     21  C   UNL     1       1.955  -8.154  11.011  0.00  0.00    +0.046 A 
ATOM     23  C   UNL     1       2.058  -7.060  11.869  0.00  0.00    +0.120 A 
BRANCH  23   5
ATOM      5  O   UNL     1       3.233  -6.381  11.968  0.00  0.00    -0.495 OA
ATOM     24  C   UNL     1       4.424  -7.159  12.080  0.00  0.00    +0.277 C 
ENDBRANCH  23   5
ENDBRANCH  15  17
BRANCH  12  11
ATOM     11  C   UNL     1      -4.709 -10.780  10.502  0.00  0.00    +0.089 C 
BRANCH  11   8
ATOM      1  O   UNL     1      -7.298  -8.914  10.060  0.00  0.00    -0.375 OA
ATOM      8  C   UNL     1      -5.955 -10.198  11.113  0.00  0.00    +0.086 C 
ATOM      9  C   UNL     1      -6.151  -8.699  10.914  0.00  0.00    +0.188 C 
ATOM     10  C   UNL     1      -7.227 -10.341  10.285  0.00  0.00    +0.188 C 
BRANCH   8   6
ATOM      3  O   UNL     1      -7.903  -9.312  13.063  0.00  0.00    -0.273 OA
ATOM      6  N   UNL     1      -6.086 -10.648  12.510  0.00  0.00    -0.303 N 
ATOM     13  C   UNL     1      -7.062 -10.155  13.364  0.00  0.00    +0.239 C 
ATOM     25  H   UNL     1      -5.449 -11.354  12.871  0.00  0.00    +0.149 HD
BRANCH  13  16
ATOM     16  C   UNL     1      -6.977 -10.781  14.740  0.00  0.00    +0.255 C 
BRANCH  16   4
ATOM      4  O   UNL     1      -6.166 -10.000  15.591  0.00  0.00    -0.374 OA
ATOM     22  C   UNL     1      -6.930  -9.353  16.606  0.00  0.00    +0.194 C 
ENDBRANCH  16   4
ENDBRANCH  13  16
ENDBRANCH   8   6
ENDBRANCH  11   8
ENDBRANCH  12  11
TORSDOF 7
ENDMDL
MODEL 5
REMARK VINA RESULT:      -0.4     16.751     18.176
REMARK  Name = 56775817
REMARK  9 active torsions:
REMARK  status: ('A' for Active; 'I' for Inactive)
REMARK    1  A    between atoms: O_4  and  C_16
REMARK    2  A    between atoms: O_4  and  C_22
REMARK    3  A    between atoms: O_5  and  C_23
REMARK    4  A    between atoms: O_5  and  C_24
REMARK    5  A    between atoms: N_6  and  C_8
REMARK    6  A    between atoms: C_8  and  C_11
REMARK    7  A    between atoms: C_11  and  C_12
REMARK    8  A    between atoms: C_13  and  C_16
REMARK    9  A    between atoms: C_15  and  C_17
REMARK                            x       y       z     vdW  Elec       q    Type
REMARK                         _______ _______ _______ _____ _____    ______ ____
ROOT
ATOM      2  O   UNL     1       0.402  -1.225  23.673  0.00  0.00    -0.354 OA
ATOM      7  N   UNL     1      -0.981  -1.092  23.686  0.00  0.00    -0.083 NA
ATOM     12  C   UNL     1      -1.208   0.196  23.420  0.00  0.00    +0.086 A 
ATOM     14  C   UNL     1      -0.017   0.920  23.229  0.00  0.00    +0.076 A 
ATOM     15  C   UNL     1       0.965  -0.020  23.399  0.00  0.00    +0.167 A 
ENDROOT
BRANCH  15  17
ATOM     17  C   UNL     1       2.397   0.001  23.349  0.00  0.00    +0.020 A 
ATOM     18  C   UNL     1       3.063   1.144  22.905  0.00  0.00    +0.015 A 
ATOM     19  C   UNL     1       3.126  -1.121  23.743  0.00  0.00    +0.015 A 
ATOM     20  C   UNL     1       4.457   1.165  22.857  0.00  0.00    +0.046 A 
ATOM     21  C   UNL     1       4.520  -1.100  23.695  0.00  0.00    +0.046 A 
ATOM     23  C   UNL     1       5.185   0.042  23.251  0.00  0.00    +0.120 A 
BRANCH  23   5
ATOM      5  O   UNL     1       6.545   0.062  23.201  0.00  0.00    -0.495 OA
ATOM     24  C   UNL     1       7.188  -1.070  22.617  0.00  0.00    +0.277 C 
ENDBRANCH  23   5
ENDBRANCH  15  17
BRANCH  12  11
ATOM     11  C   UNL     1      -2.627   0.715  23.351  0.00  0.00    +0.089 C 
BRANCH  11   8
ATOM      1  O   UNL     1      -3.996  -1.479  25.272  0.00  0.00    -0.375 OA
ATOM      8  C   UNL     1      -3.348   0.457  24.647  0.00  0.00    +0.086 C 
ATOM      9  C   UNL     1      -4.610  -0.392  24.543  0.00  0.00    +0.188 C 
ATOM     10  C   UNL     1      -2.804  -0.690  25.490  0.00  0.00    +0.188 C 
BRANCH   8   6
ATOM      3  O   UNL     1      -4.143   3.020  23.559  0.00  0.00    -0.273 OA
ATOM      6  N   UNL     1      -3.525   1.722  25.382  0.00  0.00    -0.303 N 
ATOM     13  C   UNL     1      -3.911   2.900  24.759  0.00  0.00    +0.239 C 
ATOM     25  H   UNL     1      -3.370   1.742  26.388  0.00  0.00    +0.149 HD
BRANCH  13  16
ATOM     16  C   UNL     1      -4.018   4.048  25.739  0.00  0.00    +0.255 C 
BRANCH  16   4
ATOM      4  O   UNL     1      -2.754   4.351  26.289  0.00  0.00    -0.374 OA
ATOM     22  C   UNL     1      -1.810   4.711  25.284  0.00  0.00    +0.194 C 
ENDBRANCH  16   4
ENDBRANCH  13  16
ENDBRANCH   8   6
ENDBRANCH  11   8
ENDBRANCH  12  11
TORSDOF 7
ENDMDL
MODEL 6
REMARK VINA RESULT:       0.1     15.468     17.893
REMARK  Name = 56775817
REMARK  9 active torsions:
REMARK  status: ('A' for Active; 'I' for Inactive)
REMARK    1  A    between atoms: O_4  and  C_16
REMARK    2  A    between atoms: O_4  and  C_22
REMARK    3  A    between atoms: O_5  and  C_23
REMARK    4  A    between atoms: O_5  and  C_24
REMARK    5  A    between atoms: N_6  and  C_8
REMARK    6  A    between atoms: C_8  and  C_11
REMARK    7  A    between atoms: C_11  and  C_12
REMARK    8  A    between atoms: C_13  and  C_16
REMARK    9  A    between atoms: C_15  and  C_17
REMARK                            x       y       z     vdW  Elec       q    Type
REMARK                         _______ _______ _______ _____ _____    ______ ____
ROOT
ATOM      2  O   UNL     1       0.827   2.265  23.940  0.00  0.00    -0.354 OA
ATOM      7  N   UNL     1      -0.499   2.673  23.853  0.00  0.00    -0.083 NA
ATOM     12  C   UNL     1      -1.140   1.650  23.284  0.00  0.00    +0.086 A 
ATOM     14  C   UNL     1      -0.279   0.576  22.993  0.00  0.00    +0.076 A 
ATOM     15  C   UNL     1       0.945   1.014  23.425  0.00  0.00    +0.167 A 
ENDROOT
BRANCH  15  17
ATOM     17  C   UNL     1       2.264   0.454  23.447  0.00  0.00    +0.020 A 
ATOM     18  C   UNL     1       3.376   1.281  23.281  0.00  0.00    +0.015 A 
ATOM     19  C   UNL     1       2.437  -0.918  23.633  0.00  0.00    +0.015 A 
ATOM     20  C   UNL     1       4.660   0.735  23.304  0.00  0.00    +0.046 A 
ATOM     21  C   UNL     1       3.721  -1.462  23.656  0.00  0.00    +0.046 A 
ATOM     23  C   UNL     1       4.832  -0.637  23.490  0.00  0.00    +0.120 A 
BRANCH  23   5
ATOM      5  O   UNL     1       6.084  -1.168  23.508  0.00  0.00    -0.495 OA
ATOM     24  C   UNL     1       7.031  -0.627  22.588  0.00  0.00    +0.277 C 
ENDBRANCH  23   5
ENDBRANCH  15  17
BRANCH  12  11
ATOM     11  C   UNL     1      -2.627   1.738  23.027  0.00  0.00    +0.089 C 
BRANCH  11   8
ATOM      1  O   UNL     1      -3.866   3.533  25.398  0.00  0.00    -0.375 OA
ATOM      8  C   UNL     1      -3.389   1.750  24.325  0.00  0.00    +0.086 C 
ATOM      9  C   UNL     1      -2.775   2.585  25.444  0.00  0.00    +0.188 C 
ATOM     10  C   UNL     1      -4.549   2.736  24.403  0.00  0.00    +0.188 C 
BRANCH   8   6
ATOM      3  O   UNL     1      -1.716  -0.143  25.740  0.00  0.00    -0.273 OA
ATOM      6  N   UNL     1      -3.736   0.372  24.716  0.00  0.00    -0.303 N 
ATOM     13  C   UNL     1      -2.853  -0.455  25.396  0.00  0.00    +0.239 C 
ATOM     25  H   UNL     1      -4.658   0.005  24.493  0.00  0.00    +0.149 HD
BRANCH  13  16
ATOM     16  C   UNL     1      -3.455  -1.816  25.674  0.00  0.00    +0.255 C 
BRANCH  16   4
ATOM      4  O   UNL     1      -3.188  -2.704  24.610  0.00  0.00    -0.374 OA
ATOM     22  C   UNL     1      -4.156  -2.593  23.571  0.00  0.00    +0.194 C 
ENDBRANCH  16   4
ENDBRANCH  13  16
ENDBRANCH   8   6
ENDBRANCH  11   8
ENDBRANCH  12  11
TORSDOF 7
ENDMDL
MODEL 7
REMARK VINA RESULT:       0.6     16.476     19.111
REMARK  Name = 56775817
REMARK  9 active torsions:
REMARK  status: ('A' for Active; 'I' for Inactive)
REMARK    1  A    between atoms: O_4  and  C_16
REMARK    2  A    between atoms: O_4  and  C_22
REMARK    3  A    between atoms: O_5  and  C_23
REMARK    4  A    between atoms: O_5  and  C_24
REMARK    5  A    between atoms: N_6  and  C_8
REMARK    6  A    between atoms: C_8  and  C_11
REMARK    7  A    between atoms: C_11  and  C_12
REMARK    8  A    between atoms: C_13  and  C_16
REMARK    9  A    between atoms: C_15  and  C_17
REMARK                            x       y       z     vdW  Elec       q    Type
REMARK                         _______ _______ _______ _____ _____    ______ ____
ROOT
ATOM      2  O   UNL     1      -0.437   2.220  25.799  0.00  0.00    -0.354 OA
ATOM      7  N   UNL     1       0.877   2.183  25.346  0.00  0.00    -0.083 NA
ATOM     12  C   UNL     1       0.783   2.149  24.014  0.00  0.00    +0.086 A 
ATOM     14  C   UNL     1      -0.553   2.165  23.573  0.00  0.00    +0.076 A 
ATOM     15  C   UNL     1      -1.278   2.209  24.733  0.00  0.00    +0.167 A 
ENDROOT
BRANCH  15  17
ATOM     17  C   UNL     1      -2.677   2.246  25.045  0.00  0.00    +0.020 A 
ATOM     18  C   UNL     1      -3.249   3.416  25.548  0.00  0.00    +0.015 A 
ATOM     19  C   UNL     1      -3.467   1.113  24.848  0.00  0.00    +0.015 A 
ATOM     20  C   UNL     1      -4.610   3.452  25.850  0.00  0.00    +0.046 A 
ATOM     21  C   UNL     1      -4.828   1.150  25.151  0.00  0.00    +0.046 A 
ATOM     23  C   UNL     1      -5.399   2.319  25.653  0.00  0.00    +0.120 A 
BRANCH  23   5
ATOM      5  O   UNL     1      -6.726   2.355  25.952  0.00  0.00    -0.495 OA
ATOM     24  C   UNL     1      -7.147   1.646  27.117  0.00  0.00    +0.277 C 
ENDBRANCH  23   5
ENDBRANCH  15  17
BRANCH  12  11
ATOM     11  C   UNL     1       2.036   2.104  23.169  0.00  0.00    +0.089 C 
BRANCH  11   8
ATOM      1  O   UNL     1       4.383   0.182  22.086  0.00  0.00    -0.375 OA
ATOM      8  C   UNL     1       2.585   0.704  23.111  0.00  0.00    +0.086 C 
ATOM      9  C   UNL     1       2.983   0.206  21.726  0.00  0.00    +0.188 C 
ATOM     10  C   UNL     1       4.065   0.559  23.445  0.00  0.00    +0.188 C 
BRANCH   8   6
ATOM      3  O   UNL     1       0.177  -0.580  22.144  0.00  0.00    -0.273 OA
ATOM      6  N   UNL     1       1.702  -0.212  23.856  0.00  0.00    -0.303 N 
ATOM     13  C   UNL     1       0.565  -0.775  23.292  0.00  0.00    +0.239 C 
ATOM     25  H   UNL     1       1.929  -0.456  24.817  0.00  0.00    +0.149 HD
BRANCH  13  16
ATOM     16  C   UNL     1      -0.162  -1.675  24.268  0.00  0.00    +0.255 C 
BRANCH  16   4
ATOM      4  O   UNL     1      -1.520  -1.306  24.365  0.00  0.00    -0.374 OA
ATOM     22  C   UNL     1      -2.366  -2.438  24.550  0.00  0.00    +0.194 C 
ENDBRANCH  16   4
ENDBRANCH  13  16
ENDBRANCH   8   6
ENDBRANCH  11   8
ENDBRANCH  12  11
TORSDOF 7
ENDMDL
