MODEL 1
REMARK VINA RESULT:       2.7      0.000      0.000
REMARK  Name = 44716360
REMARK  11 active torsions:
REMARK  status: ('A' for Active; 'I' for Inactive)
REMARK    1  A    between atoms: O_1  and  C_26
REMARK    2  A    between atoms: O_1  and  C_32
REMARK    3  A    between atoms: O_2  and  C_28
REMARK    4  A    between atoms: O_2  and  C_33
REMARK    5  A    between atoms: N_4  and  C_20
REMARK    6  A    between atoms: N_5  and  C_15
REMARK    7  A    between atoms: N_5  and  C_19
REMARK    8  A    between atoms: C_9  and  C_16
REMARK    9  A    between atoms: C_10  and  C_15
REMARK   10  A    between atoms: C_18  and  C_21
REMARK   11  A    between atoms: C_19  and  C_22
REMARK                            x       y       z     vdW  Elec       q    Type
REMARK                         _______ _______ _______ _____ _____    ______ ____
ROOT
ATOM      3  N   UNL     1      -5.793   2.804  24.536  0.00  0.00    -0.298 NA
ATOM      8  C   UNL     1      -4.020   3.998  26.024  0.00  0.00    +0.002 C 
ATOM      9  C   UNL     1      -3.501   3.857  24.566  0.00  0.00    +0.055 C 
ATOM     10  C   UNL     1      -5.567   2.025  25.781  0.00  0.00    +0.071 C 
ATOM     11  C   UNL     1      -4.376   2.601  26.577  0.00  0.00    +0.024 C 
ATOM     12  C   UNL     1      -5.334   4.805  25.952  0.00  0.00    +0.019 C 
ATOM     13  C   UNL     1      -4.516   2.964  23.797  0.00  0.00    +0.094 C 
ATOM     14  C   UNL     1      -6.275   4.152  24.925  0.00  0.00    +0.085 C 
ENDROOT
BRANCH   9  16
ATOM      4  N   UNL     1      -0.991   4.231  24.541  0.00  0.00    -0.270 N 
ATOM      6  N   UNL     1       0.194   3.642  24.303  0.00  0.00    -0.171 NA
ATOM     16  C   UNL     1      -2.062   3.407  24.357  0.00  0.00    +0.044 A 
ATOM     17  C   UNL     1      -1.542   2.196  23.970  0.00  0.00    +0.053 A 
ATOM     18  C   UNL     1      -0.148   2.400  23.955  0.00  0.00    +0.093 A 
ATOM     20  C   UNL     1      -1.021   5.616  24.950  0.00  0.00    +0.172 C 
BRANCH  18  21
ATOM     21  C   UNL     1       0.860   1.431  23.613  0.00  0.00    +0.006 A 
ATOM     23  C   UNL     1       2.193   1.826  23.492  0.00  0.00    +0.059 A 
ATOM     24  C   UNL     1       0.505   0.099  23.404  0.00  0.00    +0.014 A 
ATOM     26  C   UNL     1       3.170   0.887  23.160  0.00  0.00    +0.162 A 
ATOM     27  C   UNL     1       1.483  -0.840  23.071  0.00  0.00    +0.050 A 
ATOM     28  C   UNL     1       2.816  -0.445  22.950  0.00  0.00    +0.162 A 
BRANCH  26   1
ATOM      1  O   UNL     1       4.469   1.284  23.045  0.00  0.00    -0.491 OA
ATOM     32  C   UNL     1       5.387   0.784  24.015  0.00  0.00    +0.277 C 
ENDBRANCH  26   1
BRANCH  28   2
ATOM      2  O   UNL     1       3.761  -1.371  22.626  0.00  0.00    -0.491 OA
ATOM     33  C   UNL     1       4.443  -2.006  23.705  0.00  0.00    +0.277 C 
ENDBRANCH  28   2
ENDBRANCH  18  21
ENDBRANCH   9  16
BRANCH  10  15
ATOM     15  C   UNL     1      -5.400   0.528  25.509  0.00  0.00    +0.100 C 
BRANCH  15   5
ATOM      5  N   UNL     1      -4.683   0.305  24.265  0.00  0.00    -0.309 NA
ATOM     34  H   UNL     1      -3.841   0.881  24.249  0.00  0.00    +0.122 HD
BRANCH   5  19
ATOM     19  C   UNL     1      -4.320  -1.098  24.114  0.00  0.00    +0.136 C 
BRANCH  19  22
ATOM      7  N   UNL     1      -2.336  -2.501  24.249  0.00  0.00    -0.259 NA
ATOM     22  C   UNL     1      -2.967  -1.394  24.703  0.00  0.00    +0.055 A 
ATOM     25  C   UNL     1      -2.440  -0.541  25.659  0.00  0.00    +0.024 A 
ATOM     29  C   UNL     1      -1.188  -0.841  26.183  0.00  0.00    +0.003 A 
ATOM     30  C   UNL     1      -1.121  -2.761  24.780  0.00  0.00    +0.111 A 
ATOM     31  C   UNL     1      -0.509  -1.971  25.740  0.00  0.00    +0.020 A 
ENDBRANCH  19  22
ENDBRANCH   5  19
ENDBRANCH  15   5
ENDBRANCH  10  15
TORSDOF 8
ENDMDL
MODEL 2
REMARK VINA RESULT:       3.7      1.365      2.236
REMARK  Name = 44716360
REMARK  11 active torsions:
REMARK  status: ('A' for Active; 'I' for Inactive)
REMARK    1  A    between atoms: O_1  and  C_26
REMARK    2  A    between atoms: O_1  and  C_32
REMARK    3  A    between atoms: O_2  and  C_28
REMARK    4  A    between atoms: O_2  and  C_33
REMARK    5  A    between atoms: N_4  and  C_20
REMARK    6  A    between atoms: N_5  and  C_15
REMARK    7  A    between atoms: N_5  and  C_19
REMARK    8  A    between atoms: C_9  and  C_16
REMARK    9  A    between atoms: C_10  and  C_15
REMARK   10  A    between atoms: C_18  and  C_21
REMARK   11  A    between atoms: C_19  and  C_22
REMARK                            x       y       z     vdW  Elec       q    Type
REMARK                         _______ _______ _______ _____ _____    ______ ____
ROOT
ATOM      3  N   UNL     1      -4.819   3.826  24.664  0.00  0.00    -0.298 NA
ATOM      8  C   UNL     1      -2.651   3.581  26.085  0.00  0.00    +0.002 C 
ATOM      9  C   UNL     1      -2.302   3.685  24.574  0.00  0.00    +0.055 C 
ATOM     10  C   UNL     1      -4.954   2.684  25.604  0.00  0.00    +0.071 C 
ATOM     11  C   UNL     1      -3.610   2.392  26.306  0.00  0.00    +0.024 C 
ATOM     12  C   UNL     1      -3.425   4.864  26.453  0.00  0.00    +0.019 C 
ATOM     13  C   UNL     1      -3.641   3.625  23.784  0.00  0.00    +0.094 C 
ATOM     14  C   UNL     1      -4.592   5.052  25.468  0.00  0.00    +0.085 C 
ENDROOT
BRANCH   9  16
ATOM      4  N   UNL     1      -1.563   1.700  23.177  0.00  0.00    -0.270 N 
ATOM      6  N   UNL     1      -0.497   0.978  22.792  0.00  0.00    -0.171 NA
ATOM     16  C   UNL     1      -1.256   2.734  24.011  0.00  0.00    +0.044 A 
ATOM     17  C   UNL     1       0.105   2.684  24.185  0.00  0.00    +0.053 A 
ATOM     18  C   UNL     1       0.520   1.583  23.410  0.00  0.00    +0.093 A 
ATOM     20  C   UNL     1      -2.875   1.333  22.696  0.00  0.00    +0.172 C 
BRANCH  18  21
ATOM     21  C   UNL     1       1.866   1.099  23.252  0.00  0.00    +0.006 A 
ATOM     23  C   UNL     1       2.155  -0.245  23.486  0.00  0.00    +0.059 A 
ATOM     24  C   UNL     1       2.881   1.973  22.865  0.00  0.00    +0.014 A 
ATOM     26  C   UNL     1       3.460  -0.715  23.333  0.00  0.00    +0.162 A 
ATOM     27  C   UNL     1       4.186   1.504  22.713  0.00  0.00    +0.050 A 
ATOM     28  C   UNL     1       4.475   0.159  22.946  0.00  0.00    +0.162 A 
BRANCH  26   1
ATOM      1  O   UNL     1       3.730  -2.030  23.564  0.00  0.00    -0.491 OA
ATOM     32  C   UNL     1       4.919  -2.329  24.294  0.00  0.00    +0.277 C 
ENDBRANCH  26   1
BRANCH  28   2
ATOM      2  O   UNL     1       5.752  -0.287  22.793  0.00  0.00    -0.491 OA
ATOM     33  C   UNL     1       6.719   0.180  23.732  0.00  0.00    +0.277 C 
ENDBRANCH  28   2
ENDBRANCH  18  21
ENDBRANCH   9  16
BRANCH  10  15
ATOM     15  C   UNL     1      -5.526   1.435  24.926  0.00  0.00    +0.100 C 
BRANCH  15   5
ATOM      5  N   UNL     1      -5.079   0.230  25.603  0.00  0.00    -0.309 NA
ATOM     34  H   UNL     1      -5.842  -0.150  26.163  0.00  0.00    +0.122 HD
BRANCH   5  19
ATOM     19  C   UNL     1      -4.628  -0.772  24.645  0.00  0.00    +0.136 C 
BRANCH  19  22
ATOM      7  N   UNL     1      -2.484  -0.383  25.729  0.00  0.00    -0.259 NA
ATOM     22  C   UNL     1      -3.188  -1.150  24.865  0.00  0.00    +0.055 A 
ATOM     25  C   UNL     1      -2.661  -2.241  24.192  0.00  0.00    +0.024 A 
ATOM     29  C   UNL     1      -1.328  -2.564  24.417  0.00  0.00    +0.003 A 
ATOM     30  C   UNL     1      -1.192  -0.729  25.924  0.00  0.00    +0.111 A 
ATOM     31  C   UNL     1      -0.572  -1.799  25.299  0.00  0.00    +0.020 A 
ENDBRANCH  19  22
ENDBRANCH   5  19
ENDBRANCH  15   5
ENDBRANCH  10  15
TORSDOF 8
ENDMDL
MODEL 3
REMARK VINA RESULT:       4.1      1.437      4.091
REMARK  Name = 44716360
REMARK  11 active torsions:
REMARK  status: ('A' for Active; 'I' for Inactive)
REMARK    1  A    between atoms: O_1  and  C_26
REMARK    2  A    between atoms: O_1  and  C_32
REMARK    3  A    between atoms: O_2  and  C_28
REMARK    4  A    between atoms: O_2  and  C_33
REMARK    5  A    between atoms: N_4  and  C_20
REMARK    6  A    between atoms: N_5  and  C_15
REMARK    7  A    between atoms: N_5  and  C_19
REMARK    8  A    between atoms: C_9  and  C_16
REMARK    9  A    between atoms: C_10  and  C_15
REMARK   10  A    between atoms: C_18  and  C_21
REMARK   11  A    between atoms: C_19  and  C_22
REMARK                            x       y       z     vdW  Elec       q    Type
REMARK                         _______ _______ _______ _____ _____    ______ ____
ROOT
ATOM      3  N   UNL     1      -4.896   2.888  25.788  0.00  0.00    -0.298 NA
ATOM      8  C   UNL     1      -5.312   0.858  24.212  0.00  0.00    +0.002 C 
ATOM      9  C   UNL     1      -4.246   0.504  25.286  0.00  0.00    +0.055 C 
ATOM     10  C   UNL     1      -4.811   3.321  24.369  0.00  0.00    +0.071 C 
ATOM     11  C   UNL     1      -4.848   2.101  23.424  0.00  0.00    +0.024 C 
ATOM     12  C   UNL     1      -6.595   1.255  24.972  0.00  0.00    +0.019 C 
ATOM     13  C   UNL     1      -3.907   1.814  26.053  0.00  0.00    +0.094 C 
ATOM     14  C   UNL     1      -6.253   2.334  26.014  0.00  0.00    +0.085 C 
ENDROOT
BRANCH   9  16
ATOM      4  N   UNL     1      -3.025  -1.524  24.370  0.00  0.00    -0.270 N 
ATOM      6  N   UNL     1      -1.816  -2.003  24.030  0.00  0.00    -0.171 NA
ATOM     16  C   UNL     1      -2.997  -0.244  24.839  0.00  0.00    +0.044 A 
ATOM     17  C   UNL     1      -1.680   0.140  24.806  0.00  0.00    +0.053 A 
ATOM     18  C   UNL     1      -0.998  -0.983  24.298  0.00  0.00    +0.093 A 
ATOM     20  C   UNL     1      -4.187  -2.367  24.216  0.00  0.00    +0.172 C 
BRANCH  18  21
ATOM     21  C   UNL     1       0.418  -1.099  24.065  0.00  0.00    +0.006 A 
ATOM     23  C   UNL     1       1.034  -0.300  23.102  0.00  0.00    +0.059 A 
ATOM     24  C   UNL     1       1.173  -2.011  24.803  0.00  0.00    +0.014 A 
ATOM     26  C   UNL     1       2.406  -0.413  22.877  0.00  0.00    +0.162 A 
ATOM     27  C   UNL     1       2.545  -2.124  24.576  0.00  0.00    +0.050 A 
ATOM     28  C   UNL     1       3.162  -1.324  23.614  0.00  0.00    +0.162 A 
BRANCH  26   1
ATOM      1  O   UNL     1       2.998   0.373  21.934  0.00  0.00    -0.491 OA
ATOM     32  C   UNL     1       3.877   1.395  22.402  0.00  0.00    +0.277 C 
ENDBRANCH  26   1
BRANCH  28   2
ATOM      2  O   UNL     1       4.502  -1.444  23.403  0.00  0.00    -0.491 OA
ATOM     33  C   UNL     1       5.364  -0.765  24.314  0.00  0.00    +0.277 C 
ENDBRANCH  28   2
ENDBRANCH  18  21
ENDBRANCH   9  16
BRANCH  10  15
ATOM     15  C   UNL     1      -3.596   4.213  24.103  0.00  0.00    +0.100 C 
BRANCH  15   5
ATOM      5  N   UNL     1      -3.301   5.043  25.258  0.00  0.00    -0.309 NA
ATOM     34  H   UNL     1      -3.526   4.532  26.112  0.00  0.00    +0.122 HD
BRANCH   5  19
ATOM     19  C   UNL     1      -1.898   5.436  25.277  0.00  0.00    +0.136 C 
BRANCH  19  22
ATOM      7  N   UNL     1      -0.338   3.978  24.109  0.00  0.00    -0.259 NA
ATOM     22  C   UNL     1      -0.981   4.241  25.269  0.00  0.00    +0.055 A 
ATOM     25  C   UNL     1      -0.841   3.485  26.421  0.00  0.00    +0.024 A 
ATOM     29  C   UNL     1       0.013   2.388  26.381  0.00  0.00    +0.003 A 
ATOM     30  C   UNL     1       0.485   2.905  24.108  0.00  0.00    +0.111 A 
ATOM     31  C   UNL     1       0.692   2.087  25.207  0.00  0.00    +0.020 A 
ENDBRANCH  19  22
ENDBRANCH   5  19
ENDBRANCH  15   5
ENDBRANCH  10  15
TORSDOF 8
ENDMDL
