MODEL 1
REMARK VINA RESULT:       9.1      0.000      0.000
REMARK  Name = 26742282
REMARK  4 active torsions:
REMARK  status: ('A' for Active; 'I' for Inactive)
REMARK    1  A    between atoms: O_4  and  C_28
REMARK    2  A    between atoms: O_4  and  C_32
REMARK    3  A    between atoms: N_7  and  C_21
REMARK    4  A    between atoms: C_18  and  C_20
REMARK                            x       y       z     vdW  Elec       q    Type
REMARK                         _______ _______ _______ _____ _____    ______ ____
ROOT
ATOM      2  O   UNL     1       0.632   1.712  26.085  0.00  0.00    -0.267 OA
ATOM      3  O   UNL     1      -4.365   1.630  23.132  0.00  0.00    -0.252 OA
ATOM      5  N   UNL     1      -4.093   2.998  24.979  0.00  0.00    -0.284 N 
ATOM      6  N   UNL     1      -0.935   3.282  25.365  0.00  0.00    -0.311 N 
ATOM      7  N   UNL     1      -4.540   0.697  25.248  0.00  0.00    -0.269 N 
ATOM      8  C   UNL     1      -2.847   4.101  26.854  0.00  0.00    +0.027 C 
ATOM      9  C   UNL     1      -2.627   4.967  24.566  0.00  0.00    +0.054 C 
ATOM     10  C   UNL     1      -2.765   5.379  26.029  0.00  0.00    +0.018 C 
ATOM     11  C   UNL     1      -4.058   3.244  26.430  0.00  0.00    +0.114 C 
ATOM     12  C   UNL     1      -1.526   3.336  26.708  0.00  0.00    +0.130 C 
ATOM     13  C   UNL     1      -3.883   4.184  24.141  0.00  0.00    +0.119 C 
ATOM     14  C   UNL     1      -1.391   4.117  24.343  0.00  0.00    +0.027 A 
ATOM     15  C   UNL     1      -0.759   4.138  23.158  0.00  0.00    +0.022 A 
ATOM     16  C   UNL     1       0.178   2.434  25.196  0.00  0.00    +0.259 A 
ATOM     17  C   UNL     1      -4.330   1.750  24.359  0.00  0.00    +0.306 C 
ATOM     18  C   UNL     1       0.840   2.451  23.846  0.00  0.00    +0.047 A 
ATOM     19  C   UNL     1       0.371   3.288  22.909  0.00  0.00    +0.015 A 
ATOM     33  H   UNL     1      -4.971   0.905  26.143  0.00  0.00    +0.156 HD
ENDROOT
BRANCH   7  21
ATOM      1  F   UNL     1      -4.786  -3.295  22.588  0.00  0.00    -0.205 F 
ATOM     21  C   UNL     1      -4.227  -0.670  25.045  0.00  0.00    +0.037 A 
ATOM     26  C   UNL     1      -4.669  -1.323  23.894  0.00  0.00    +0.061 A 
ATOM     27  C   UNL     1      -3.479  -1.364  25.996  0.00  0.00    +0.023 A 
ATOM     29  C   UNL     1      -4.363  -2.669  23.694  0.00  0.00    +0.125 A 
ATOM     30  C   UNL     1      -3.173  -2.711  25.796  0.00  0.00    +0.005 A 
ATOM     31  C   UNL     1      -3.615  -3.362  24.645  0.00  0.00    +0.038 A 
ENDBRANCH   7  21
BRANCH  18  20
ATOM     20  C   UNL     1       1.978   1.564  23.542  0.00  0.00    -0.012 A 
ATOM     22  C   UNL     1       1.809   0.180  23.563  0.00  0.00    +0.012 A 
ATOM     23  C   UNL     1       3.224   2.110  23.236  0.00  0.00    +0.012 A 
ATOM     24  C   UNL     1       2.886  -0.659  23.276  0.00  0.00    +0.046 A 
ATOM     25  C   UNL     1       4.301   1.272  22.951  0.00  0.00    +0.046 A 
ATOM     28  C   UNL     1       4.132  -0.113  22.970  0.00  0.00    +0.120 A 
BRANCH  28   4
ATOM      4  O   UNL     1       5.184  -0.931  22.692  0.00  0.00    -0.495 OA
ATOM     32  C   UNL     1       6.454  -0.559  23.224  0.00  0.00    +0.277 C 
ENDBRANCH  28   4
ENDBRANCH  18  20
TORSDOF 3
ENDMDL
MODEL 2
REMARK VINA RESULT:      12.4      2.488      5.330
REMARK  Name = 26742282
REMARK  4 active torsions:
REMARK  status: ('A' for Active; 'I' for Inactive)
REMARK    1  A    between atoms: O_4  and  C_28
REMARK    2  A    between atoms: O_4  and  C_32
REMARK    3  A    between atoms: N_7  and  C_21
REMARK    4  A    between atoms: C_18  and  C_20
REMARK                            x       y       z     vdW  Elec       q    Type
REMARK                         _______ _______ _______ _____ _____    ______ ____
ROOT
ATOM      2  O   UNL     1      -0.014  -0.253  22.051  0.00  0.00    -0.267 OA
ATOM      3  O   UNL     1      -2.689   1.474  26.905  0.00  0.00    -0.252 OA
ATOM      5  N   UNL     1      -3.806   0.229  25.305  0.00  0.00    -0.284 N 
ATOM      6  N   UNL     1      -1.517  -1.177  23.576  0.00  0.00    -0.311 N 
ATOM      7  N   UNL     1      -3.471   2.544  25.001  0.00  0.00    -0.269 N 
ATOM      8  C   UNL     1      -4.049  -1.130  23.213  0.00  0.00    +0.027 C 
ATOM      9  C   UNL     1      -3.127  -2.166  25.240  0.00  0.00    +0.054 C 
ATOM     10  C   UNL     1      -4.060  -2.399  24.055  0.00  0.00    +0.018 C 
ATOM     11  C   UNL     1      -4.532   0.083  24.033  0.00  0.00    +0.114 C 
ATOM     12  C   UNL     1      -2.635  -0.919  22.659  0.00  0.00    +0.130 C 
ATOM     13  C   UNL     1      -3.673  -1.004  26.090  0.00  0.00    +0.119 C 
ATOM     14  C   UNL     1      -1.716  -1.849  24.783  0.00  0.00    +0.027 A 
ATOM     15  C   UNL     1      -0.665  -2.181  25.550  0.00  0.00    +0.022 A 
ATOM     16  C   UNL     1      -0.232  -0.813  23.126  0.00  0.00    +0.259 A 
ATOM     17  C   UNL     1      -3.268   1.431  25.815  0.00  0.00    +0.306 C 
ATOM     18  C   UNL     1       0.922  -1.163  24.026  0.00  0.00    +0.047 A 
ATOM     19  C   UNL     1       0.672  -1.828  25.164  0.00  0.00    +0.015 A 
ATOM     33  H   UNL     1      -4.307   2.570  24.427  0.00  0.00    +0.156 HD
ENDROOT
BRANCH   7  21
ATOM      1  F   UNL     1       0.523   4.642  23.350  0.00  0.00    -0.205 F 
ATOM     21  C   UNL     1      -2.635   3.682  24.881  0.00  0.00    +0.037 A 
ATOM     26  C   UNL     1      -1.444   3.601  24.161  0.00  0.00    +0.061 A 
ATOM     27  C   UNL     1      -3.003   4.885  25.485  0.00  0.00    +0.023 A 
ATOM     29  C   UNL     1      -0.621   4.720  24.043  0.00  0.00    +0.125 A 
ATOM     30  C   UNL     1      -2.180   6.005  25.368  0.00  0.00    +0.005 A 
ATOM     31  C   UNL     1      -0.989   5.922  24.647  0.00  0.00    +0.038 A 
ENDBRANCH   7  21
BRANCH  18  20
ATOM     20  C   UNL     1       2.303  -0.782  23.679  0.00  0.00    -0.012 A 
ATOM     22  C   UNL     1       3.360  -1.637  23.988  0.00  0.00    +0.012 A 
ATOM     23  C   UNL     1       2.552   0.434  23.044  0.00  0.00    +0.012 A 
ATOM     24  C   UNL     1       4.667  -1.277  23.662  0.00  0.00    +0.046 A 
ATOM     25  C   UNL     1       3.858   0.795  22.718  0.00  0.00    +0.046 A 
ATOM     28  C   UNL     1       4.917  -0.060  23.026  0.00  0.00    +0.120 A 
BRANCH  28   4
ATOM      4  O   UNL     1       6.192   0.293  22.709  0.00  0.00    -0.495 OA
ATOM     32  C   UNL     1       7.237  -0.556  23.179  0.00  0.00    +0.277 C 
ENDBRANCH  28   4
ENDBRANCH  18  20
TORSDOF 3
ENDMDL
