MODEL 1
REMARK VINA RESULT:       1.2      0.000      0.000
REMARK  Name = 51137140
REMARK  6 active torsions:
REMARK  status: ('A' for Active; 'I' for Inactive)
REMARK    1  A    between atoms: S_1  and  C_18
REMARK    2  A    between atoms: S_1  and  C_22
REMARK    3  A    between atoms: N_5  and  C_13
REMARK    4  A    between atoms: C_8  and  C_12
REMARK    5  A    between atoms: C_13  and  C_14
REMARK    6  A    between atoms: C_22  and  C_26
REMARK                            x       y       z     vdW  Elec       q    Type
REMARK                         _______ _______ _______ _____ _____    ______ ____
ROOT
ATOM      2  O   UNL     1      -1.339   0.729  24.221  0.00  0.00    -0.439 OA
ATOM      6  N   UNL     1      -0.555  -1.350  23.775  0.00  0.00    -0.213 NA
ATOM     12  C   UNL     1      -1.586  -0.607  24.113  0.00  0.00    +0.201 A 
ATOM     15  C   UNL     1       0.464  -0.437  23.645  0.00  0.00    +0.111 A 
ATOM     16  C   UNL     1      -0.013   0.836  23.918  0.00  0.00    +0.155 A 
ATOM     17  C   UNL     1       1.815  -0.597  23.304  0.00  0.00    +0.058 A 
ATOM     18  C   UNL     1       2.621   0.549  23.255  0.00  0.00    +0.090 A 
ATOM     19  C   UNL     1       0.755   1.993  23.881  0.00  0.00    +0.050 A 
ATOM     21  C   UNL     1       2.100   1.817  23.538  0.00  0.00    +0.030 A 
ENDROOT
BRANCH  12   8
ATOM      5  N   UNL     1      -5.152  -0.220  24.859  0.00  0.00    -0.296 NA
ATOM      8  C   UNL     1      -3.005  -1.041  24.396  0.00  0.00    +0.090 C 
ATOM      9  C   UNL     1      -3.329  -1.257  25.885  0.00  0.00    +0.029 C 
ATOM     10  C   UNL     1      -4.050  -0.026  23.915  0.00  0.00    +0.097 C 
ATOM     11  C   UNL     1      -4.511  -0.339  26.168  0.00  0.00    +0.085 C 
BRANCH   5  13
ATOM     13  C   UNL     1      -6.120   0.865  24.812  0.00  0.00    +0.139 C 
BRANCH  13  14
ATOM      7  N   UNL     1      -5.870   3.017  25.920  0.00  0.00    -0.259 NA
ATOM     14  C   UNL     1      -5.458   2.214  24.914  0.00  0.00    +0.055 A 
ATOM     20  C   UNL     1      -4.481   2.561  23.994  0.00  0.00    +0.024 A 
ATOM     23  C   UNL     1      -3.889   3.812  24.116  0.00  0.00    +0.003 A 
ATOM     24  C   UNL     1      -5.271   4.226  26.007  0.00  0.00    +0.111 A 
ATOM     25  C   UNL     1      -4.285   4.667  25.138  0.00  0.00    +0.020 A 
ENDBRANCH  13  14
ENDBRANCH   5  13
ENDBRANCH  12   8
BRANCH  18   1
ATOM      1  S   UNL     1       4.312   0.389  22.834  0.00  0.00    -0.003 S 
ATOM      3  O   UNL     1       4.427   0.287  21.388  0.00  0.00    -0.169 OA
ATOM      4  O   UNL     1       5.048   1.420  23.551  0.00  0.00    -0.169 OA
BRANCH   1  22
ATOM     22  C   UNL     1       4.784  -1.189  23.506  0.00  0.00    +0.168 C 
ATOM     26  C   UNL     1       5.877  -1.045  24.541  0.00  0.00    +0.028 C 
ENDBRANCH   1  22
ENDBRANCH  18   1
TORSDOF 5
ENDMDL
MODEL 2
REMARK VINA RESULT:       1.5      1.734      3.468
REMARK  Name = 51137140
REMARK  6 active torsions:
REMARK  status: ('A' for Active; 'I' for Inactive)
REMARK    1  A    between atoms: S_1  and  C_18
REMARK    2  A    between atoms: S_1  and  C_22
REMARK    3  A    between atoms: N_5  and  C_13
REMARK    4  A    between atoms: C_8  and  C_12
REMARK    5  A    between atoms: C_13  and  C_14
REMARK    6  A    between atoms: C_22  and  C_26
REMARK                            x       y       z     vdW  Elec       q    Type
REMARK                         _______ _______ _______ _____ _____    ______ ____
ROOT
ATOM      2  O   UNL     1      -0.551   1.016  23.216  0.00  0.00    -0.439 OA
ATOM      6  N   UNL     1       0.624   2.370  24.603  0.00  0.00    -0.213 NA
ATOM     12  C   UNL     1      -0.556   2.013  24.145  0.00  0.00    +0.201 A 
ATOM     15  C   UNL     1       1.490   1.544  23.926  0.00  0.00    +0.111 A 
ATOM     16  C   UNL     1       0.773   0.715  23.076  0.00  0.00    +0.155 A 
ATOM     17  C   UNL     1       2.886   1.430  23.967  0.00  0.00    +0.058 A 
ATOM     18  C   UNL     1       3.493   0.474  23.139  0.00  0.00    +0.090 A 
ATOM     19  C   UNL     1       1.338  -0.242  22.242  0.00  0.00    +0.050 A 
ATOM     21  C   UNL     1       2.732  -0.344  22.295  0.00  0.00    +0.030 A 
ENDROOT
BRANCH  12   8
ATOM      5  N   UNL     1      -4.152   1.949  24.841  0.00  0.00    -0.296 NA
ATOM      8  C   UNL     1      -1.913   2.564  24.515  0.00  0.00    +0.090 C 
ATOM      9  C   UNL     1      -2.760   3.051  23.326  0.00  0.00    +0.029 C 
ATOM     10  C   UNL     1      -2.802   1.537  25.230  0.00  0.00    +0.097 C 
ATOM     11  C   UNL     1      -4.057   2.258  23.415  0.00  0.00    +0.085 C 
BRANCH   5  13
ATOM     13  C   UNL     1      -5.147   0.924  25.121  0.00  0.00    +0.139 C 
BRANCH  13  14
ATOM      7  N   UNL     1      -3.873  -0.943  26.022  0.00  0.00    -0.259 NA
ATOM     14  C   UNL     1      -4.580  -0.464  24.975  0.00  0.00    +0.055 A 
ATOM     20  C   UNL     1      -4.804  -1.167  23.802  0.00  0.00    +0.024 A 
ATOM     23  C   UNL     1      -4.268  -2.446  23.699  0.00  0.00    +0.003 A 
ATOM     24  C   UNL     1      -3.367  -2.189  25.885  0.00  0.00    +0.111 A 
ATOM     25  C   UNL     1      -3.535  -2.974  24.756  0.00  0.00    +0.020 A 
ENDBRANCH  13  14
ENDBRANCH   5  13
ENDBRANCH  12   8
BRANCH  18   1
ATOM      1  S   UNL     1       5.234   0.304  23.162  0.00  0.00    -0.003 S 
ATOM      3  O   UNL     1       5.680  -0.129  21.847  0.00  0.00    -0.169 OA
ATOM      4  O   UNL     1       5.791   1.510  23.757  0.00  0.00    -0.169 OA
BRANCH   1  22
ATOM     22  C   UNL     1       5.528  -1.046  24.282  0.00  0.00    +0.168 C 
ATOM     26  C   UNL     1       4.651  -2.235  23.958  0.00  0.00    +0.028 C 
ENDBRANCH   1  22
ENDBRANCH  18   1
TORSDOF 5
ENDMDL
MODEL 3
REMARK VINA RESULT:       3.2      1.906      3.542
REMARK  Name = 51137140
REMARK  6 active torsions:
REMARK  status: ('A' for Active; 'I' for Inactive)
REMARK    1  A    between atoms: S_1  and  C_18
REMARK    2  A    between atoms: S_1  and  C_22
REMARK    3  A    between atoms: N_5  and  C_13
REMARK    4  A    between atoms: C_8  and  C_12
REMARK    5  A    between atoms: C_13  and  C_14
REMARK    6  A    between atoms: C_22  and  C_26
REMARK                            x       y       z     vdW  Elec       q    Type
REMARK                         _______ _______ _______ _____ _____    ______ ____
ROOT
ATOM      2  O   UNL     1      -1.375   2.066  24.954  0.00  0.00    -0.439 OA
ATOM      6  N   UNL     1       0.368   3.468  24.594  0.00  0.00    -0.213 NA
ATOM     12  C   UNL     1      -0.864   3.327  25.031  0.00  0.00    +0.201 A 
ATOM     15  C   UNL     1       0.710   2.198  24.193  0.00  0.00    +0.111 A 
ATOM     16  C   UNL     1      -0.356   1.338  24.412  0.00  0.00    +0.155 A 
ATOM     17  C   UNL     1       1.890   1.687  23.636  0.00  0.00    +0.058 A 
ATOM     18  C   UNL     1       1.934   0.320  23.326  0.00  0.00    +0.090 A 
ATOM     19  C   UNL     1      -0.350  -0.019  24.118  0.00  0.00    +0.050 A 
ATOM     21  C   UNL     1       0.835  -0.514  23.563  0.00  0.00    +0.030 A 
ENDROOT
BRANCH  12   8
ATOM      5  N   UNL     1      -4.042   4.976  25.805  0.00  0.00    -0.296 NA
ATOM      8  C   UNL     1      -1.783   4.379  25.604  0.00  0.00    +0.090 C 
ATOM      9  C   UNL     1      -2.092   5.553  24.658  0.00  0.00    +0.029 C 
ATOM     10  C   UNL     1      -3.159   3.824  25.995  0.00  0.00    +0.097 C 
ATOM     11  C   UNL     1      -3.610   5.578  24.544  0.00  0.00    +0.085 C 
BRANCH   5  13
ATOM     13  C   UNL     1      -5.448   4.602  25.788  0.00  0.00    +0.139 C 
BRANCH  13  14
ATOM      7  N   UNL     1      -6.276   2.488  26.664  0.00  0.00    -0.259 NA
ATOM     14  C   UNL     1      -5.631   3.113  25.653  0.00  0.00    +0.055 A 
ATOM     20  C   UNL     1      -5.142   2.468  24.529  0.00  0.00    +0.024 A 
ATOM     23  C   UNL     1      -5.328   1.094  24.434  0.00  0.00    +0.003 A 
ATOM     24  C   UNL     1      -6.437   1.151  26.537  0.00  0.00    +0.111 A 
ATOM     25  C   UNL     1      -5.987   0.415  25.453  0.00  0.00    +0.020 A 
ENDBRANCH  13  14
ENDBRANCH   5  13
ENDBRANCH  12   8
BRANCH  18   1
ATOM      1  S   UNL     1       3.390  -0.354  22.628  0.00  0.00    -0.003 S 
ATOM      3  O   UNL     1       3.672  -1.628  23.270  0.00  0.00    -0.169 OA
ATOM      4  O   UNL     1       3.263  -0.283  21.180  0.00  0.00    -0.169 OA
BRANCH   1  22
ATOM     22  C   UNL     1       4.675   0.773  23.122  0.00  0.00    +0.168 C 
ATOM     26  C   UNL     1       5.720   0.083  23.970  0.00  0.00    +0.028 C 
ENDBRANCH   1  22
ENDBRANCH  18   1
TORSDOF 5
ENDMDL
MODEL 4
REMARK VINA RESULT:       4.5      3.445      8.748
REMARK  Name = 51137140
REMARK  6 active torsions:
REMARK  status: ('A' for Active; 'I' for Inactive)
REMARK    1  A    between atoms: S_1  and  C_18
REMARK    2  A    between atoms: S_1  and  C_22
REMARK    3  A    between atoms: N_5  and  C_13
REMARK    4  A    between atoms: C_8  and  C_12
REMARK    5  A    between atoms: C_13  and  C_14
REMARK    6  A    between atoms: C_22  and  C_26
REMARK                            x       y       z     vdW  Elec       q    Type
REMARK                         _______ _______ _______ _____ _____    ______ ____
ROOT
ATOM      2  O   UNL     1      -1.603  -1.315  24.391  0.00  0.00    -0.439 OA
ATOM      6  N   UNL     1      -1.392   0.806  23.622  0.00  0.00    -0.213 NA
ATOM     12  C   UNL     1      -0.861  -0.393  23.715  0.00  0.00    +0.201 A 
ATOM     15  C   UNL     1      -2.586   0.677  24.290  0.00  0.00    +0.111 A 
ATOM     16  C   UNL     1      -2.718  -0.620  24.763  0.00  0.00    +0.155 A 
ATOM     17  C   UNL     1      -3.612   1.599  24.545  0.00  0.00    +0.058 A 
ATOM     18  C   UNL     1      -4.728   1.158  25.270  0.00  0.00    +0.090 A 
ATOM     19  C   UNL     1      -3.806  -1.093  25.484  0.00  0.00    +0.050 A 
ATOM     21  C   UNL     1      -4.821  -0.162  25.730  0.00  0.00    +0.030 A 
ENDROOT
BRANCH  12   8
ATOM      5  N   UNL     1       2.556  -0.143  22.419  0.00  0.00    -0.296 NA
ATOM      8  C   UNL     1       0.461  -0.880  23.170  0.00  0.00    +0.090 C 
ATOM      9  C   UNL     1       0.526  -0.991  21.636  0.00  0.00    +0.029 C 
ATOM     10  C   UNL     1       1.636   0.032  23.543  0.00  0.00    +0.097 C 
ATOM     11  C   UNL     1       1.707  -0.119  21.229  0.00  0.00    +0.085 C 
BRANCH   5  13
ATOM     13  C   UNL     1       3.591   0.879  22.383  0.00  0.00    +0.139 C 
BRANCH  13  14
ATOM      7  N   UNL     1       5.008   0.660  24.348  0.00  0.00    -0.259 NA
ATOM     14  C   UNL     1       4.868   0.409  23.027  0.00  0.00    +0.055 A 
ATOM     20  C   UNL     1       5.817  -0.243  22.256  0.00  0.00    +0.024 A 
ATOM     23  C   UNL     1       6.985  -0.665  22.881  0.00  0.00    +0.003 A 
ATOM     24  C   UNL     1       6.157   0.235  24.921  0.00  0.00    +0.111 A 
ATOM     25  C   UNL     1       7.166  -0.426  24.239  0.00  0.00    +0.020 A 
ENDBRANCH  13  14
ENDBRANCH   5  13
ENDBRANCH  12   8
BRANCH  18   1
ATOM      1  S   UNL     1      -6.027   2.280  25.608  0.00  0.00    -0.003 S 
ATOM      3  O   UNL     1      -7.070   2.103  24.611  0.00  0.00    -0.169 OA
ATOM      4  O   UNL     1      -6.349   2.174  27.023  0.00  0.00    -0.169 OA
BRANCH   1  22
ATOM     22  C   UNL     1      -5.306   3.882  25.329  0.00  0.00    +0.168 C 
ATOM     26  C   UNL     1      -4.040   4.067  26.136  0.00  0.00    +0.028 C 
ENDBRANCH   1  22
ENDBRANCH  18   1
TORSDOF 5
ENDMDL
MODEL 5
REMARK VINA RESULT:       4.8      3.408      8.672
REMARK  Name = 51137140
REMARK  6 active torsions:
REMARK  status: ('A' for Active; 'I' for Inactive)
REMARK    1  A    between atoms: S_1  and  C_18
REMARK    2  A    between atoms: S_1  and  C_22
REMARK    3  A    between atoms: N_5  and  C_13
REMARK    4  A    between atoms: C_8  and  C_12
REMARK    5  A    between atoms: C_13  and  C_14
REMARK    6  A    between atoms: C_22  and  C_26
REMARK                            x       y       z     vdW  Elec       q    Type
REMARK                         _______ _______ _______ _____ _____    ______ ____
ROOT
ATOM      2  O   UNL     1      -0.634   1.649  24.254  0.00  0.00    -0.439 OA
ATOM      6  N   UNL     1      -2.217   0.035  24.089  0.00  0.00    -0.213 NA
ATOM     12  C   UNL     1      -0.957   0.369  23.915  0.00  0.00    +0.201 A 
ATOM     15  C   UNL     1      -2.784   1.185  24.586  0.00  0.00    +0.111 A 
ATOM     16  C   UNL     1      -1.817   2.174  24.688  0.00  0.00    +0.155 A 
ATOM     17  C   UNL     1      -4.098   1.479  24.974  0.00  0.00    +0.058 A 
ATOM     18  C   UNL     1      -4.372   2.769  25.450  0.00  0.00    +0.090 A 
ATOM     19  C   UNL     1      -2.050   3.462  25.154  0.00  0.00    +0.050 A 
ATOM     21  C   UNL     1      -3.366   3.739  25.537  0.00  0.00    +0.030 A 
ENDROOT
BRANCH  12   8
ATOM      5  N   UNL     1       2.276  -0.357  22.352  0.00  0.00    -0.296 NA
ATOM      8  C   UNL     1       0.176  -0.480  23.388  0.00  0.00    +0.090 C 
ATOM      9  C   UNL     1       0.045  -0.887  21.910  0.00  0.00    +0.029 C 
ATOM     10  C   UNL     1       1.540   0.217  23.479  0.00  0.00    +0.097 C 
ATOM     11  C   UNL     1       1.318  -0.377  21.247  0.00  0.00    +0.085 C 
BRANCH   5  13
ATOM     13  C   UNL     1       3.477   0.398  22.030  0.00  0.00    +0.139 C 
BRANCH  13  14
ATOM      7  N   UNL     1       5.308   1.212  23.411  0.00  0.00    -0.259 NA
ATOM     14  C   UNL     1       4.584   0.140  23.018  0.00  0.00    +0.055 A 
ATOM     20  C   UNL     1       4.804  -1.152  23.468  0.00  0.00    +0.024 A 
ATOM     23  C   UNL     1       5.833  -1.356  24.380  0.00  0.00    +0.003 A 
ATOM     24  C   UNL     1       6.300   0.974  24.299  0.00  0.00    +0.111 A 
ATOM     25  C   UNL     1       6.600  -0.279  24.809  0.00  0.00    +0.020 A 
ENDBRANCH  13  14
ENDBRANCH   5  13
ENDBRANCH  12   8
BRANCH  18   1
ATOM      1  S   UNL     1      -6.002   3.172  25.943  0.00  0.00    -0.003 S 
ATOM      3  O   UNL     1      -6.281   2.524  27.215  0.00  0.00    -0.169 OA
ATOM      4  O   UNL     1      -6.162   4.613  25.811  0.00  0.00    -0.169 OA
BRANCH   1  22
ATOM     22  C   UNL     1      -7.034   2.392  24.723  0.00  0.00    +0.168 C 
ATOM     26  C   UNL     1      -6.638   0.948  24.504  0.00  0.00    +0.028 C 
ENDBRANCH   1  22
ENDBRANCH  18   1
TORSDOF 5
ENDMDL
