MODEL 1
REMARK VINA RESULT:      -2.3      0.000      0.000
REMARK  Name = 40777895
REMARK  11 active torsions:
REMARK  status: ('A' for Active; 'I' for Inactive)
REMARK    1  A    between atoms: S_2  and  N_11
REMARK    2  A    between atoms: S_2  and  C_24
REMARK    3  A    between atoms: O_4  and  C_13
REMARK    4  A    between atoms: O_5  and  C_14
REMARK    5  A    between atoms: O_6  and  C_23
REMARK    6  A    between atoms: O_6  and  C_25
REMARK    7  A    between atoms: N_11  and  C_22
REMARK    8  A    between atoms: C_12  and  C_17
REMARK    9  A    between atoms: C_15  and  C_22
REMARK   10  A    between atoms: C_16  and  C_23
REMARK   11  A    between atoms: C_17  and  C_21
REMARK                            x       y       z     vdW  Elec       q    Type
REMARK                         _______ _______ _______ _____ _____    ______ ____
ROOT
ATOM      3  O   UNL     1      -1.952  -0.305  25.205  0.00  0.00    -0.366 OA
ATOM     12  C   UNL     1      -3.143  -0.277  24.398  0.00  0.00    +0.158 C 
ATOM     13  C   UNL     1      -3.242  -1.655  23.766  0.00  0.00    +0.175 C 
ATOM     14  C   UNL     1      -2.704  -2.537  24.874  0.00  0.00    +0.175 C 
ATOM     15  C   UNL     1      -1.577  -1.682  25.442  0.00  0.00    +0.165 C 
ENDROOT
BRANCH  13   4
ATOM      4  O   UNL     1      -4.566  -1.972  23.391  0.00  0.00    -0.387 OA
ATOM     31  H   UNL     1      -4.949  -1.180  22.977  0.00  0.00    +0.210 HD
ENDBRANCH  13   4
BRANCH  14   5
ATOM      5  O   UNL     1      -3.688  -2.708  25.893  0.00  0.00    -0.387 OA
ATOM     32  H   UNL     1      -4.561  -2.668  25.464  0.00  0.00    +0.210 HD
ENDBRANCH  14   5
BRANCH  12  17
ATOM     17  C   UNL     1      -3.046   0.846  23.382  0.00  0.00    +0.130 C 
BRANCH  17  21
ATOM      7  O   UNL     1      -4.826   2.328  23.935  0.00  0.00    -0.276 OA
ATOM     10  N   UNL     1      -2.685   2.986  24.516  0.00  0.00    -0.296 N 
ATOM     16  C   UNL     1      -3.051   4.306  25.036  0.00  0.00    +0.102 C 
ATOM     18  C   UNL     1      -1.716   5.049  25.117  0.00  0.00    +0.026 C 
ATOM     19  C   UNL     1      -1.240   2.778  24.572  0.00  0.00    +0.108 C 
ATOM     20  C   UNL     1      -0.711   3.939  25.401  0.00  0.00    +0.021 C 
ATOM     21  C   UNL     1      -3.612   2.117  23.965  0.00  0.00    +0.218 C 
BRANCH  16  23
ATOM     23  C   UNL     1      -3.735   4.198  26.399  0.00  0.00    +0.181 C 
BRANCH  23   6
ATOM      6  O   UNL     1      -5.030   3.662  26.209  0.00  0.00    -0.381 OA
ATOM     25  C   UNL     1      -5.948   4.651  25.754  0.00  0.00    +0.194 C 
ENDBRANCH  23   6
ENDBRANCH  16  23
ENDBRANCH  17  21
ENDBRANCH  12  17
BRANCH  15  22
ATOM     22  C   UNL     1      -0.241  -1.924  24.756  0.00  0.00    +0.140 C 
BRANCH  22  11
ATOM     11  N   UNL     1       0.535  -0.721  24.691  0.00  0.00    -0.187 NA
ATOM     33  H   UNL     1       0.503  -0.110  25.516  0.00  0.00    +0.148 HD
BRANCH  11   2
ATOM      2  S   UNL     1       0.928   0.011  23.180  0.00  0.00    +0.058 S 
ATOM      8  O   UNL     1       0.538   1.406  23.227  0.00  0.00    -0.153 OA
ATOM      9  O   UNL     1       0.488  -0.833  22.086  0.00  0.00    -0.153 OA
BRANCH   2  24
ATOM      1 CL   UNL     1       7.200  -0.253  23.295  0.00  0.00    -0.084 Cl
ATOM     24  C   UNL     1       2.694  -0.064  23.212  0.00  0.00    +0.105 A 
ATOM     26  C   UNL     1       3.446   1.032  22.787  0.00  0.00    +0.030 A 
ATOM     27  C   UNL     1       3.335  -1.217  23.663  0.00  0.00    +0.030 A 
ATOM     28  C   UNL     1       4.839   0.973  22.812  0.00  0.00    +0.022 A 
ATOM     29  C   UNL     1       4.729  -1.276  23.689  0.00  0.00    +0.022 A 
ATOM     30  C   UNL     1       5.481  -0.181  23.264  0.00  0.00    +0.041 A 
ENDBRANCH   2  24
ENDBRANCH  11   2
ENDBRANCH  22  11
ENDBRANCH  15  22
TORSDOF 10
ENDMDL
MODEL 2
REMARK VINA RESULT:      -2.1      3.166      7.367
REMARK  Name = 40777895
REMARK  11 active torsions:
REMARK  status: ('A' for Active; 'I' for Inactive)
REMARK    1  A    between atoms: S_2  and  N_11
REMARK    2  A    between atoms: S_2  and  C_24
REMARK    3  A    between atoms: O_4  and  C_13
REMARK    4  A    between atoms: O_5  and  C_14
REMARK    5  A    between atoms: O_6  and  C_23
REMARK    6  A    between atoms: O_6  and  C_25
REMARK    7  A    between atoms: N_11  and  C_22
REMARK    8  A    between atoms: C_12  and  C_17
REMARK    9  A    between atoms: C_15  and  C_22
REMARK   10  A    between atoms: C_16  and  C_23
REMARK   11  A    between atoms: C_17  and  C_21
REMARK                            x       y       z     vdW  Elec       q    Type
REMARK                         _______ _______ _______ _____ _____    ______ ____
ROOT
ATOM      3  O   UNL     1      -2.222   3.166  25.966  0.00  0.00    -0.366 OA
ATOM     12  C   UNL     1      -0.872   3.666  26.000  0.00  0.00    +0.158 C 
ATOM     13  C   UNL     1      -0.676   4.404  24.686  0.00  0.00    +0.175 C 
ATOM     14  C   UNL     1      -2.049   5.005  24.467  0.00  0.00    +0.175 C 
ATOM     15  C   UNL     1      -2.966   3.891  24.959  0.00  0.00    +0.165 C 
ENDROOT
BRANCH  13   4
ATOM      4  O   UNL     1       0.350   5.369  24.770  0.00  0.00    -0.387 OA
ATOM     31  H   UNL     1       0.455   5.761  23.886  0.00  0.00    +0.210 HD
ENDBRANCH  13   4
BRANCH  14   5
ATOM      5  O   UNL     1      -2.235   6.139  25.313  0.00  0.00    -0.387 OA
ATOM     32  H   UNL     1      -2.555   6.869  24.755  0.00  0.00    +0.210 HD
ENDBRANCH  14   5
BRANCH  12  17
ATOM     17  C   UNL     1       0.095   2.513  26.193  0.00  0.00    +0.130 C 
BRANCH  17  21
ATOM      7  O   UNL     1       1.072   2.622  24.025  0.00  0.00    -0.276 OA
ATOM     10  N   UNL     1       0.118   0.610  24.653  0.00  0.00    -0.296 N 
ATOM     16  C   UNL     1       0.325  -0.079  23.377  0.00  0.00    +0.102 C 
ATOM     18  C   UNL     1      -0.588  -1.304  23.472  0.00  0.00    +0.026 C 
ATOM     19  C   UNL     1      -0.587  -0.243  25.606  0.00  0.00    +0.108 C 
ATOM     20  C   UNL     1      -0.598  -1.622  24.962  0.00  0.00    +0.021 C 
ATOM     21  C   UNL     1       0.477   1.933  24.855  0.00  0.00    +0.218 C 
BRANCH  16  23
ATOM     23  C   UNL     1       1.791  -0.466  23.183  0.00  0.00    +0.181 C 
BRANCH  23   6
ATOM      6  O   UNL     1       2.350   0.379  22.195  0.00  0.00    -0.381 OA
ATOM     25  C   UNL     1       3.672   0.785  22.536  0.00  0.00    +0.194 C 
ENDBRANCH  23   6
ENDBRANCH  16  23
ENDBRANCH  17  21
ENDBRANCH  12  17
BRANCH  15  22
ATOM     22  C   UNL     1      -3.348   2.905  23.865  0.00  0.00    +0.140 C 
BRANCH  22  11
ATOM     11  N   UNL     1      -4.771   2.766  23.766  0.00  0.00    -0.187 NA
ATOM     33  H   UNL     1      -5.264   3.476  23.210  0.00  0.00    +0.148 HD
BRANCH  11   2
ATOM      2  S   UNL     1      -5.677   1.946  24.982  0.00  0.00    +0.058 S 
ATOM      8  O   UNL     1      -7.039   1.783  24.512  0.00  0.00    -0.153 OA
ATOM      9  O   UNL     1      -5.419   2.535  26.281  0.00  0.00    -0.153 OA
BRANCH   2  24
ATOM      1 CL   UNL     1      -2.929  -3.699  24.949  0.00  0.00    -0.084 Cl
ATOM     24  C   UNL     1      -4.903   0.357  24.972  0.00  0.00    +0.105 A 
ATOM     26  C   UNL     1      -4.268  -0.116  26.121  0.00  0.00    +0.030 A 
ATOM     27  C   UNL     1      -4.928  -0.424  23.817  0.00  0.00    +0.030 A 
ATOM     28  C   UNL     1      -3.658  -1.370  26.114  0.00  0.00    +0.022 A 
ATOM     29  C   UNL     1      -4.318  -1.680  23.810  0.00  0.00    +0.022 A 
ATOM     30  C   UNL     1      -3.683  -2.152  24.958  0.00  0.00    +0.041 A 
ENDBRANCH   2  24
ENDBRANCH  11   2
ENDBRANCH  22  11
ENDBRANCH  15  22
TORSDOF 10
ENDMDL
MODEL 3
REMARK VINA RESULT:      -2.1      2.983      6.985
REMARK  Name = 40777895
REMARK  11 active torsions:
REMARK  status: ('A' for Active; 'I' for Inactive)
REMARK    1  A    between atoms: S_2  and  N_11
REMARK    2  A    between atoms: S_2  and  C_24
REMARK    3  A    between atoms: O_4  and  C_13
REMARK    4  A    between atoms: O_5  and  C_14
REMARK    5  A    between atoms: O_6  and  C_23
REMARK    6  A    between atoms: O_6  and  C_25
REMARK    7  A    between atoms: N_11  and  C_22
REMARK    8  A    between atoms: C_12  and  C_17
REMARK    9  A    between atoms: C_15  and  C_22
REMARK   10  A    between atoms: C_16  and  C_23
REMARK   11  A    between atoms: C_17  and  C_21
REMARK                            x       y       z     vdW  Elec       q    Type
REMARK                         _______ _______ _______ _____ _____    ______ ____
ROOT
ATOM      3  O   UNL     1      -2.612  -0.089  23.782  0.00  0.00    -0.366 OA
ATOM     12  C   UNL     1      -1.254  -0.075  24.258  0.00  0.00    +0.158 C 
ATOM     13  C   UNL     1      -1.248  -0.939  25.507  0.00  0.00    +0.175 C 
ATOM     14  C   UNL     1      -2.256  -2.009  25.142  0.00  0.00    +0.175 C 
ATOM     15  C   UNL     1      -3.307  -1.208  24.381  0.00  0.00    +0.165 C 
ENDROOT
BRANCH  13   4
ATOM      4  O   UNL     1       0.036  -1.454  25.789  0.00  0.00    -0.387 OA
ATOM     31  H   UNL     1       0.369  -1.870  24.975  0.00  0.00    +0.210 HD
ENDBRANCH  13   4
BRANCH  14   5
ATOM      5  O   UNL     1      -1.676  -2.949  24.239  0.00  0.00    -0.387 OA
ATOM     32  H   UNL     1      -0.712  -2.827  24.272  0.00  0.00    +0.210 HD
ENDBRANCH  14   5
BRANCH  12  17
ATOM     17  C   UNL     1      -0.817   1.356  24.513  0.00  0.00    +0.130 C 
BRANCH  17  21
ATOM      7  O   UNL     1       1.343   2.269  24.929  0.00  0.00    -0.276 OA
ATOM     10  N   UNL     1       1.165   0.710  23.229  0.00  0.00    -0.296 N 
ATOM     16  C   UNL     1       2.557   0.793  22.779  0.00  0.00    +0.102 C 
ATOM     18  C   UNL     1       2.539   0.113  21.409  0.00  0.00    +0.026 C 
ATOM     19  C   UNL     1       0.397  -0.218  22.401  0.00  0.00    +0.108 C 
ATOM     20  C   UNL     1       1.435  -0.930  21.546  0.00  0.00    +0.021 C 
ATOM     21  C   UNL     1       0.662   1.496  24.252  0.00  0.00    +0.218 C 
BRANCH  16  23
ATOM     23  C   UNL     1       3.502   0.096  23.757  0.00  0.00    +0.181 C 
BRANCH  23   6
ATOM      6  O   UNL     1       4.783   0.686  23.641  0.00  0.00    -0.381 OA
ATOM     25  C   UNL     1       5.821  -0.279  23.777  0.00  0.00    +0.194 C 
ENDBRANCH  23   6
ENDBRANCH  16  23
ENDBRANCH  17  21
ENDBRANCH  12  17
BRANCH  15  22
ATOM     22  C   UNL     1      -4.398  -0.648  25.282  0.00  0.00    +0.140 C 
BRANCH  22  11
ATOM     11  N   UNL     1      -5.289   0.204  24.551  0.00  0.00    -0.187 NA
ATOM     33  H   UNL     1      -5.207   0.181  23.527  0.00  0.00    +0.148 HD
BRANCH  11   2
ATOM      2  S   UNL     1      -5.950   1.629  25.260  0.00  0.00    +0.058 S 
ATOM      8  O   UNL     1      -6.214   1.369  26.662  0.00  0.00    -0.153 OA
ATOM      9  O   UNL     1      -6.991   2.174  24.410  0.00  0.00    -0.153 OA
BRANCH   2  24
ATOM      1 CL   UNL     1      -1.055   5.545  24.906  0.00  0.00    -0.084 Cl
ATOM     24  C   UNL     1      -4.572   2.732  25.160  0.00  0.00    +0.105 A 
ATOM     26  C   UNL     1      -4.028   3.275  26.324  0.00  0.00    +0.030 A 
ATOM     27  C   UNL     1      -4.029   3.059  23.918  0.00  0.00    +0.030 A 
ATOM     28  C   UNL     1      -2.941   4.145  26.246  0.00  0.00    +0.022 A 
ATOM     29  C   UNL     1      -2.940   3.929  23.839  0.00  0.00    +0.022 A 
ATOM     30  C   UNL     1      -2.396   4.472  25.003  0.00  0.00    +0.041 A 
ENDBRANCH   2  24
ENDBRANCH  11   2
ENDBRANCH  22  11
ENDBRANCH  15  22
TORSDOF 10
ENDMDL
MODEL 4
REMARK VINA RESULT:      -2.0      3.376      6.113
REMARK  Name = 40777895
REMARK  11 active torsions:
REMARK  status: ('A' for Active; 'I' for Inactive)
REMARK    1  A    between atoms: S_2  and  N_11
REMARK    2  A    between atoms: S_2  and  C_24
REMARK    3  A    between atoms: O_4  and  C_13
REMARK    4  A    between atoms: O_5  and  C_14
REMARK    5  A    between atoms: O_6  and  C_23
REMARK    6  A    between atoms: O_6  and  C_25
REMARK    7  A    between atoms: N_11  and  C_22
REMARK    8  A    between atoms: C_12  and  C_17
REMARK    9  A    between atoms: C_15  and  C_22
REMARK   10  A    between atoms: C_16  and  C_23
REMARK   11  A    between atoms: C_17  and  C_21
REMARK                            x       y       z     vdW  Elec       q    Type
REMARK                         _______ _______ _______ _____ _____    ______ ____
ROOT
ATOM      3  O   UNL     1      -2.413  -1.046  23.469  0.00  0.00    -0.366 OA
ATOM     12  C   UNL     1      -1.936  -2.152  24.258  0.00  0.00    +0.158 C 
ATOM     13  C   UNL     1      -2.998  -2.386  25.319  0.00  0.00    +0.175 C 
ATOM     14  C   UNL     1      -4.267  -2.067  24.556  0.00  0.00    +0.175 C 
ATOM     15  C   UNL     1      -3.832  -0.884  23.698  0.00  0.00    +0.165 C 
ENDROOT
BRANCH  13   4
ATOM      4  O   UNL     1      -2.964  -3.704  25.821  0.00  0.00    -0.387 OA
ATOM     31  H   UNL     1      -2.166  -3.787  26.371  0.00  0.00    +0.210 HD
ENDBRANCH  13   4
BRANCH  14   5
ATOM      5  O   UNL     1      -4.606  -3.145  23.686  0.00  0.00    -0.387 OA
ATOM     32  H   UNL     1      -5.085  -3.806  24.216  0.00  0.00    +0.210 HD
ENDBRANCH  14   5
BRANCH  12  17
ATOM     17  C   UNL     1      -0.572  -1.819  24.833  0.00  0.00    +0.130 C 
BRANCH  17  21
ATOM      7  O   UNL     1       0.510  -0.653  23.060  0.00  0.00    -0.276 OA
ATOM     10  N   UNL     1      -0.168   0.596  24.886  0.00  0.00    -0.296 N 
ATOM     16  C   UNL     1       0.393   1.871  24.434  0.00  0.00    +0.102 C 
ATOM     18  C   UNL     1       0.379   2.742  25.692  0.00  0.00    +0.026 C 
ATOM     19  C   UNL     1      -0.792   0.729  26.201  0.00  0.00    +0.108 C 
ATOM     20  C   UNL     1      -0.830   2.227  26.465  0.00  0.00    +0.021 C 
ATOM     21  C   UNL     1      -0.023  -0.581  24.169  0.00  0.00    +0.218 C 
BRANCH  16  23
ATOM     23  C   UNL     1      -0.438   2.477  23.304  0.00  0.00    +0.181 C 
BRANCH  23   6
ATOM      6  O   UNL     1      -1.624   1.719  23.163  0.00  0.00    -0.381 OA
ATOM     25  C   UNL     1      -2.254   1.954  21.908  0.00  0.00    +0.194 C 
ENDBRANCH  23   6
ENDBRANCH  16  23
ENDBRANCH  17  21
ENDBRANCH  12  17
BRANCH  15  22
ATOM     22  C   UNL     1      -4.042   0.459  24.382  0.00  0.00    +0.140 C 
BRANCH  22  11
ATOM     11  N   UNL     1      -5.252   0.467  25.149  0.00  0.00    -0.187 NA
ATOM     33  H   UNL     1      -5.833  -0.379  25.099  0.00  0.00    +0.148 HD
BRANCH  11   2
ATOM      2  S   UNL     1      -6.042   1.943  25.561  0.00  0.00    +0.058 S 
ATOM      8  O   UNL     1      -6.406   1.897  26.964  0.00  0.00    -0.153 OA
ATOM      9  O   UNL     1      -7.037   2.275  24.560  0.00  0.00    -0.153 OA
BRANCH   2  24
ATOM      1 CL   UNL     1      -1.344   6.058  24.913  0.00  0.00    -0.084 Cl
ATOM     24  C   UNL     1      -4.719   3.102  25.379  0.00  0.00    +0.105 A 
ATOM     26  C   UNL     1      -3.988   3.507  26.496  0.00  0.00    +0.030 A 
ATOM     27  C   UNL     1      -4.407   3.610  24.118  0.00  0.00    +0.030 A 
ATOM     28  C   UNL     1      -2.945   4.421  26.352  0.00  0.00    +0.022 A 
ATOM     29  C   UNL     1      -3.362   4.525  23.974  0.00  0.00    +0.022 A 
ATOM     30  C   UNL     1      -2.631   4.930  25.090  0.00  0.00    +0.041 A 
ENDBRANCH   2  24
ENDBRANCH  11   2
ENDBRANCH  22  11
ENDBRANCH  15  22
TORSDOF 10
ENDMDL
MODEL 5
REMARK VINA RESULT:      -1.8      1.281      2.005
REMARK  Name = 40777895
REMARK  11 active torsions:
REMARK  status: ('A' for Active; 'I' for Inactive)
REMARK    1  A    between atoms: S_2  and  N_11
REMARK    2  A    between atoms: S_2  and  C_24
REMARK    3  A    between atoms: O_4  and  C_13
REMARK    4  A    between atoms: O_5  and  C_14
REMARK    5  A    between atoms: O_6  and  C_23
REMARK    6  A    between atoms: O_6  and  C_25
REMARK    7  A    between atoms: N_11  and  C_22
REMARK    8  A    between atoms: C_12  and  C_17
REMARK    9  A    between atoms: C_15  and  C_22
REMARK   10  A    between atoms: C_16  and  C_23
REMARK   11  A    between atoms: C_17  and  C_21
REMARK                            x       y       z     vdW  Elec       q    Type
REMARK                         _______ _______ _______ _____ _____    ______ ____
ROOT
ATOM      3  O   UNL     1      -3.057  -0.434  25.905  0.00  0.00    -0.366 OA
ATOM     12  C   UNL     1      -3.976  -1.150  25.060  0.00  0.00    +0.158 C 
ATOM     13  C   UNL     1      -3.113  -1.917  24.072  0.00  0.00    +0.175 C 
ATOM     14  C   UNL     1      -1.921  -2.283  24.931  0.00  0.00    +0.175 C 
ATOM     15  C   UNL     1      -1.745  -1.030  25.782  0.00  0.00    +0.165 C 
ENDROOT
BRANCH  13   4
ATOM      4  O   UNL     1      -3.786  -3.038  23.541  0.00  0.00    -0.387 OA
ATOM     31  H   UNL     1      -4.059  -2.813  22.636  0.00  0.00    +0.210 HD
ENDBRANCH  13   4
BRANCH  14   5
ATOM      5  O   UNL     1      -2.249  -3.366  25.800  0.00  0.00    -0.387 OA
ATOM     32  H   UNL     1      -2.534  -2.983  26.648  0.00  0.00    +0.210 HD
ENDBRANCH  14   5
BRANCH  12  17
ATOM     17  C   UNL     1      -4.928  -0.173  24.396  0.00  0.00    +0.130 C 
BRANCH  17  21
ATOM      7  O   UNL     1      -5.457   1.363  26.138  0.00  0.00    -0.276 OA
ATOM     10  N   UNL     1      -4.066   2.119  24.451  0.00  0.00    -0.296 N 
ATOM     16  C   UNL     1      -3.959   3.500  24.929  0.00  0.00    +0.102 C 
ATOM     18  C   UNL     1      -3.386   4.257  23.729  0.00  0.00    +0.026 C 
ATOM     19  C   UNL     1      -3.331   1.933  23.202  0.00  0.00    +0.108 C 
ATOM     20  C   UNL     1      -2.524   3.212  23.030  0.00  0.00    +0.021 C 
ATOM     21  C   UNL     1      -4.850   1.168  25.083  0.00  0.00    +0.218 C 
BRANCH  16  23
ATOM     23  C   UNL     1      -3.055   3.596  26.157  0.00  0.00    +0.181 C 
BRANCH  23   6
ATOM      6  O   UNL     1      -1.795   4.093  25.749  0.00  0.00    -0.381 OA
ATOM     25  C   UNL     1      -0.744   3.184  26.060  0.00  0.00    +0.194 C 
ENDBRANCH  23   6
ENDBRANCH  16  23
ENDBRANCH  17  21
ENDBRANCH  12  17
BRANCH  15  22
ATOM     22  C   UNL     1      -0.824  -0.000  25.143  0.00  0.00    +0.140 C 
BRANCH  22  11
ATOM     11  N   UNL     1       0.159  -0.628  24.311  0.00  0.00    -0.187 NA
ATOM     33  H   UNL     1       0.769  -1.320  24.763  0.00  0.00    +0.148 HD
BRANCH  11   2
ATOM      2  S   UNL     1       0.759   0.147  22.893  0.00  0.00    +0.058 S 
ATOM      8  O   UNL     1       0.433   1.558  22.965  0.00  0.00    -0.153 OA
ATOM      9  O   UNL     1       0.410  -0.623  21.715  0.00  0.00    -0.153 OA
BRANCH   2  24
ATOM      1 CL   UNL     1       6.956  -0.453  23.707  0.00  0.00    -0.084 Cl
ATOM     24  C   UNL     1       2.504  -0.022  23.122  0.00  0.00    +0.105 A 
ATOM     26  C   UNL     1       3.031  -1.220  23.605  0.00  0.00    +0.030 A 
ATOM     27  C   UNL     1       3.353   1.043  22.820  0.00  0.00    +0.030 A 
ATOM     28  C   UNL     1       4.407  -1.353  23.786  0.00  0.00    +0.022 A 
ATOM     29  C   UNL     1       4.731   0.909  23.001  0.00  0.00    +0.022 A 
ATOM     30  C   UNL     1       5.258  -0.288  23.484  0.00  0.00    +0.041 A 
ENDBRANCH   2  24
ENDBRANCH  11   2
ENDBRANCH  22  11
ENDBRANCH  15  22
TORSDOF 10
ENDMDL
MODEL 6
REMARK VINA RESULT:      -1.6      3.306      6.078
REMARK  Name = 40777895
REMARK  11 active torsions:
REMARK  status: ('A' for Active; 'I' for Inactive)
REMARK    1  A    between atoms: S_2  and  N_11
REMARK    2  A    between atoms: S_2  and  C_24
REMARK    3  A    between atoms: O_4  and  C_13
REMARK    4  A    between atoms: O_5  and  C_14
REMARK    5  A    between atoms: O_6  and  C_23
REMARK    6  A    between atoms: O_6  and  C_25
REMARK    7  A    between atoms: N_11  and  C_22
REMARK    8  A    between atoms: C_12  and  C_17
REMARK    9  A    between atoms: C_15  and  C_22
REMARK   10  A    between atoms: C_16  and  C_23
REMARK   11  A    between atoms: C_17  and  C_21
REMARK                            x       y       z     vdW  Elec       q    Type
REMARK                         _______ _______ _______ _____ _____    ______ ____
ROOT
ATOM      3  O   UNL     1      -2.296  -1.124  23.506  0.00  0.00    -0.366 OA
ATOM     12  C   UNL     1      -1.994  -2.216  24.394  0.00  0.00    +0.158 C 
ATOM     13  C   UNL     1      -3.210  -2.362  25.292  0.00  0.00    +0.175 C 
ATOM     14  C   UNL     1      -4.336  -2.021  24.338  0.00  0.00    +0.175 C 
ATOM     15  C   UNL     1      -3.724  -0.894  23.514  0.00  0.00    +0.165 C 
ENDROOT
BRANCH  13   4
ATOM      4  O   UNL     1      -3.313  -3.660  25.838  0.00  0.00    -0.387 OA
ATOM     31  H   UNL     1      -2.410  -4.003  25.945  0.00  0.00    +0.210 HD
ENDBRANCH  13   4
BRANCH  14   5
ATOM      5  O   UNL     1      -4.594  -3.119  23.463  0.00  0.00    -0.387 OA
ATOM     32  H   UNL     1      -4.935  -3.850  24.008  0.00  0.00    +0.210 HD
ENDBRANCH  14   5
BRANCH  12  17
ATOM     17  C   UNL     1      -0.716  -1.917  25.155  0.00  0.00    +0.130 C 
BRANCH  17  21
ATOM      7  O   UNL     1      -1.310  -0.401  26.892  0.00  0.00    -0.276 OA
ATOM     10  N   UNL     1      -0.266   0.487  25.028  0.00  0.00    -0.296 N 
ATOM     16  C   UNL     1      -0.349   1.890  25.442  0.00  0.00    +0.102 C 
ATOM     18  C   UNL     1      -0.052   2.666  24.157  0.00  0.00    +0.026 C 
ATOM     19  C   UNL     1       0.349   0.360  23.709  0.00  0.00    +0.108 C 
ATOM     20  C   UNL     1       0.897   1.745  23.399  0.00  0.00    +0.021 C 
ATOM     21  C   UNL     1      -0.798  -0.547  25.781  0.00  0.00    +0.218 C 
BRANCH  16  23
ATOM     23  C   UNL     1       0.653   2.205  26.551  0.00  0.00    +0.181 C 
BRANCH  23   6
ATOM      6  O   UNL     1      -0.058   2.366  27.764  0.00  0.00    -0.381 OA
ATOM     25  C   UNL     1       0.817   2.397  28.887  0.00  0.00    +0.194 C 
ENDBRANCH  23   6
ENDBRANCH  16  23
ENDBRANCH  17  21
ENDBRANCH  12  17
BRANCH  15  22
ATOM     22  C   UNL     1      -3.969   0.484  24.114  0.00  0.00    +0.140 C 
BRANCH  22  11
ATOM     11  N   UNL     1      -5.115   0.479  24.975  0.00  0.00    -0.187 NA
ATOM     33  H   UNL     1      -5.697  -0.368  24.958  0.00  0.00    +0.148 HD
BRANCH  11   2
ATOM      2  S   UNL     1      -5.870   1.947  25.470  0.00  0.00    +0.058 S 
ATOM      8  O   UNL     1      -6.206   1.843  26.876  0.00  0.00    -0.153 OA
ATOM      9  O   UNL     1      -6.878   2.341  24.505  0.00  0.00    -0.153 OA
BRANCH   2  24
ATOM      1 CL   UNL     1      -1.113   6.007  24.912  0.00  0.00    -0.084 Cl
ATOM     24  C   UNL     1      -4.530   3.091  25.313  0.00  0.00    +0.105 A 
ATOM     26  C   UNL     1      -3.780   3.444  26.434  0.00  0.00    +0.030 A 
ATOM     27  C   UNL     1      -4.224   3.639  24.067  0.00  0.00    +0.030 A 
ATOM     28  C   UNL     1      -2.723   4.346  26.311  0.00  0.00    +0.022 A 
ATOM     29  C   UNL     1      -3.166   4.541  23.943  0.00  0.00    +0.022 A 
ATOM     30  C   UNL     1      -2.416   4.895  25.064  0.00  0.00    +0.041 A 
ENDBRANCH   2  24
ENDBRANCH  11   2
ENDBRANCH  22  11
ENDBRANCH  15  22
TORSDOF 10
ENDMDL
MODEL 7
REMARK VINA RESULT:      -1.5      3.113      7.321
REMARK  Name = 40777895
REMARK  11 active torsions:
REMARK  status: ('A' for Active; 'I' for Inactive)
REMARK    1  A    between atoms: S_2  and  N_11
REMARK    2  A    between atoms: S_2  and  C_24
REMARK    3  A    between atoms: O_4  and  C_13
REMARK    4  A    between atoms: O_5  and  C_14
REMARK    5  A    between atoms: O_6  and  C_23
REMARK    6  A    between atoms: O_6  and  C_25
REMARK    7  A    between atoms: N_11  and  C_22
REMARK    8  A    between atoms: C_12  and  C_17
REMARK    9  A    between atoms: C_15  and  C_22
REMARK   10  A    between atoms: C_16  and  C_23
REMARK   11  A    between atoms: C_17  and  C_21
REMARK                            x       y       z     vdW  Elec       q    Type
REMARK                         _______ _______ _______ _____ _____    ______ ____
ROOT
ATOM      3  O   UNL     1      -1.804   3.687  26.735  0.00  0.00    -0.366 OA
ATOM     12  C   UNL     1      -0.832   3.446  25.702  0.00  0.00    +0.158 C 
ATOM     13  C   UNL     1      -1.449   3.987  24.423  0.00  0.00    +0.175 C 
ATOM     14  C   UNL     1      -2.205   5.194  24.939  0.00  0.00    +0.175 C 
ATOM     15  C   UNL     1      -2.742   4.688  26.273  0.00  0.00    +0.165 C 
ENDROOT
BRANCH  13   4
ATOM      4  O   UNL     1      -0.470   4.310  23.459  0.00  0.00    -0.387 OA
ATOM     31  H   UNL     1      -0.036   5.131  23.748  0.00  0.00    +0.210 HD
ENDBRANCH  13   4
BRANCH  14   5
ATOM      5  O   UNL     1      -1.304   6.268  25.202  0.00  0.00    -0.387 OA
ATOM     32  H   UNL     1      -1.709   7.081  24.851  0.00  0.00    +0.210 HD
ENDBRANCH  14   5
BRANCH  12  17
ATOM     17  C   UNL     1      -0.514   1.963  25.636  0.00  0.00    +0.130 C 
BRANCH  17  21
ATOM      7  O   UNL     1       1.367   2.521  24.287  0.00  0.00    -0.276 OA
ATOM     10  N   UNL     1       0.324   0.500  23.860  0.00  0.00    -0.296 N 
ATOM     16  C   UNL     1       1.143   0.131  22.703  0.00  0.00    +0.102 C 
ATOM     18  C   UNL     1       0.352  -1.002  22.044  0.00  0.00    +0.026 C 
ATOM     19  C   UNL     1      -0.707  -0.501  24.120  0.00  0.00    +0.108 C 
ATOM     20  C   UNL     1      -0.348  -1.674  23.220  0.00  0.00    +0.021 C 
ATOM     21  C   UNL     1       0.483   1.700  24.535  0.00  0.00    +0.218 C 
BRANCH  16  23
ATOM     23  C   UNL     1       2.542  -0.313  23.128  0.00  0.00    +0.181 C 
BRANCH  23   6
ATOM      6  O   UNL     1       3.484   0.593  22.586  0.00  0.00    -0.381 OA
ATOM     25  C   UNL     1       4.771   0.426  23.169  0.00  0.00    +0.194 C 
ENDBRANCH  23   6
ENDBRANCH  16  23
ENDBRANCH  17  21
ENDBRANCH  12  17
BRANCH  15  22
ATOM     22  C   UNL     1      -4.107   4.026  26.154  0.00  0.00    +0.140 C 
BRANCH  22  11
ATOM     11  N   UNL     1      -3.983   2.630  25.853  0.00  0.00    -0.187 NA
ATOM     33  H   UNL     1      -3.119   2.169  26.166  0.00  0.00    +0.148 HD
BRANCH  11   2
ATOM      2  S   UNL     1      -4.819   1.923  24.522  0.00  0.00    +0.058 S 
ATOM      8  O   UNL     1      -4.249   2.436  23.292  0.00  0.00    -0.153 OA
ATOM      9  O   UNL     1      -6.251   1.982  24.743  0.00  0.00    -0.153 OA
BRANCH   2  24
ATOM      1 CL   UNL     1      -3.124  -4.097  25.079  0.00  0.00    -0.084 Cl
ATOM     24  C   UNL     1      -4.342   0.228  24.679  0.00  0.00    +0.105 A 
ATOM     26  C   UNL     1      -4.492  -0.642  23.599  0.00  0.00    +0.030 A 
ATOM     27  C   UNL     1      -3.817  -0.240  25.883  0.00  0.00    +0.030 A 
ATOM     28  C   UNL     1      -4.115  -1.979  23.722  0.00  0.00    +0.022 A 
ATOM     29  C   UNL     1      -3.439  -1.578  26.007  0.00  0.00    +0.022 A 
ATOM     30  C   UNL     1      -3.589  -2.447  24.927  0.00  0.00    +0.041 A 
ENDBRANCH   2  24
ENDBRANCH  11   2
ENDBRANCH  22  11
ENDBRANCH  15  22
TORSDOF 10
ENDMDL
MODEL 8
REMARK VINA RESULT:      -1.0      1.777      4.099
REMARK  Name = 40777895
REMARK  11 active torsions:
REMARK  status: ('A' for Active; 'I' for Inactive)
REMARK    1  A    between atoms: S_2  and  N_11
REMARK    2  A    between atoms: S_2  and  C_24
REMARK    3  A    between atoms: O_4  and  C_13
REMARK    4  A    between atoms: O_5  and  C_14
REMARK    5  A    between atoms: O_6  and  C_23
REMARK    6  A    between atoms: O_6  and  C_25
REMARK    7  A    between atoms: N_11  and  C_22
REMARK    8  A    between atoms: C_12  and  C_17
REMARK    9  A    between atoms: C_15  and  C_22
REMARK   10  A    between atoms: C_16  and  C_23
REMARK   11  A    between atoms: C_17  and  C_21
REMARK                            x       y       z     vdW  Elec       q    Type
REMARK                         _______ _______ _______ _____ _____    ______ ____
ROOT
ATOM      3  O   UNL     1      -0.505   3.393  24.054  0.00  0.00    -0.366 OA
ATOM     12  C   UNL     1      -1.453   4.010  24.944  0.00  0.00    +0.158 C 
ATOM     13  C   UNL     1      -1.585   3.061  26.123  0.00  0.00    +0.175 C 
ATOM     14  C   UNL     1      -0.172   2.529  26.245  0.00  0.00    +0.175 C 
ATOM     15  C   UNL     1       0.243   2.393  24.784  0.00  0.00    +0.165 C 
ENDROOT
BRANCH  13   4
ATOM      4  O   UNL     1      -2.036   3.722  27.286  0.00  0.00    -0.387 OA
ATOM     31  H   UNL     1      -1.333   3.649  27.954  0.00  0.00    +0.210 HD
ENDBRANCH  13   4
BRANCH  14   5
ATOM      5  O   UNL     1       0.673   3.501  26.858  0.00  0.00    -0.387 OA
ATOM     32  H   UNL     1       1.590   3.283  26.616  0.00  0.00    +0.210 HD
ENDBRANCH  14   5
BRANCH  12  17
ATOM     17  C   UNL     1      -2.761   4.247  24.212  0.00  0.00    +0.130 C 
BRANCH  17  21
ATOM      7  O   UNL     1      -2.957   2.249  22.932  0.00  0.00    -0.276 OA
ATOM     10  N   UNL     1      -4.482   2.559  24.644  0.00  0.00    -0.296 N 
ATOM     16  C   UNL     1      -5.277   1.358  24.379  0.00  0.00    +0.102 C 
ATOM     18  C   UNL     1      -6.564   1.592  25.173  0.00  0.00    +0.026 C 
ATOM     19  C   UNL     1      -5.040   3.330  25.753  0.00  0.00    +0.108 C 
ATOM     20  C   UNL     1      -6.100   2.424  26.363  0.00  0.00    +0.021 C 
ATOM     21  C   UNL     1      -3.400   2.927  23.860  0.00  0.00    +0.218 C 
BRANCH  16  23
ATOM     23  C   UNL     1      -4.545   0.094  24.826  0.00  0.00    +0.181 C 
BRANCH  23   6
ATOM      6  O   UNL     1      -4.132  -0.616  23.674  0.00  0.00    -0.381 OA
ATOM     25  C   UNL     1      -4.218  -2.024  23.863  0.00  0.00    +0.194 C 
ENDBRANCH  23   6
ENDBRANCH  16  23
ENDBRANCH  17  21
ENDBRANCH  12  17
BRANCH  15  22
ATOM     22  C   UNL     1      -0.097   1.033  24.191  0.00  0.00    +0.140 C 
BRANCH  22  11
ATOM     11  N   UNL     1       0.418   0.904  22.860  0.00  0.00    -0.187 NA
ATOM     33  H   UNL     1       0.022   1.534  22.152  0.00  0.00    +0.148 HD
BRANCH  11   2
ATOM      2  S   UNL     1       1.104  -0.577  22.304  0.00  0.00    +0.058 S 
ATOM      8  O   UNL     1       1.067  -0.588  20.855  0.00  0.00    -0.153 OA
ATOM      9  O   UNL     1       0.563  -1.692  23.057  0.00  0.00    -0.153 OA
BRANCH   2  24
ATOM      1 CL   UNL     1       7.086   0.109  24.083  0.00  0.00    -0.084 Cl
ATOM     24  C   UNL     1       2.788  -0.383  22.805  0.00  0.00    +0.105 A 
ATOM     26  C   UNL     1       3.439  -1.418  23.478  0.00  0.00    +0.030 A 
ATOM     27  C   UNL     1       3.466   0.803  22.528  0.00  0.00    +0.030 A 
ATOM     28  C   UNL     1       4.768  -1.266  23.874  0.00  0.00    +0.022 A 
ATOM     29  C   UNL     1       4.797   0.955  22.923  0.00  0.00    +0.022 A 
ATOM     30  C   UNL     1       5.447  -0.078  23.595  0.00  0.00    +0.041 A 
ENDBRANCH   2  24
ENDBRANCH  11   2
ENDBRANCH  22  11
ENDBRANCH  15  22
TORSDOF 10
ENDMDL
MODEL 9
REMARK VINA RESULT:      -0.9      3.174      6.860
REMARK  Name = 40777895
REMARK  11 active torsions:
REMARK  status: ('A' for Active; 'I' for Inactive)
REMARK    1  A    between atoms: S_2  and  N_11
REMARK    2  A    between atoms: S_2  and  C_24
REMARK    3  A    between atoms: O_4  and  C_13
REMARK    4  A    between atoms: O_5  and  C_14
REMARK    5  A    between atoms: O_6  and  C_23
REMARK    6  A    between atoms: O_6  and  C_25
REMARK    7  A    between atoms: N_11  and  C_22
REMARK    8  A    between atoms: C_12  and  C_17
REMARK    9  A    between atoms: C_15  and  C_22
REMARK   10  A    between atoms: C_16  and  C_23
REMARK   11  A    between atoms: C_17  and  C_21
REMARK                            x       y       z     vdW  Elec       q    Type
REMARK                         _______ _______ _______ _____ _____    ______ ____
ROOT
ATOM      3  O   UNL     1      -1.931   3.652  26.534  0.00  0.00    -0.366 OA
ATOM     12  C   UNL     1      -0.609   3.772  25.980  0.00  0.00    +0.158 C 
ATOM     13  C   UNL     1      -0.809   4.091  24.508  0.00  0.00    +0.175 C 
ATOM     14  C   UNL     1      -2.049   4.960  24.551  0.00  0.00    +0.175 C 
ATOM     15  C   UNL     1      -2.876   4.279  25.636  0.00  0.00    +0.165 C 
ENDROOT
BRANCH  13   4
ATOM      4  O   UNL     1       0.312   4.743  23.950  0.00  0.00    -0.387 OA
ATOM     31  H   UNL     1       0.101   5.691  23.896  0.00  0.00    +0.210 HD
ENDBRANCH  13   4
BRANCH  14   5
ATOM      5  O   UNL     1      -1.719   6.272  25.002  0.00  0.00    -0.387 OA
ATOM     32  H   UNL     1      -1.270   6.181  25.860  0.00  0.00    +0.210 HD
ENDBRANCH  14   5
BRANCH  12  17
ATOM     17  C   UNL     1       0.164   2.488  26.218  0.00  0.00    +0.130 C 
BRANCH  17  21
ATOM      7  O   UNL     1      -1.519   0.903  25.647  0.00  0.00    -0.276 OA
ATOM     10  N   UNL     1       0.375   0.956  24.319  0.00  0.00    -0.296 N 
ATOM     16  C   UNL     1       0.011  -0.175  23.463  0.00  0.00    +0.102 C 
ATOM     18  C   UNL     1       1.321  -0.538  22.762  0.00  0.00    +0.026 C 
ATOM     19  C   UNL     1       1.689   1.487  23.964  0.00  0.00    +0.108 C 
ATOM     20  C   UNL     1       2.047   0.798  22.655  0.00  0.00    +0.021 C 
ATOM     21  C   UNL     1      -0.414   1.377  25.378  0.00  0.00    +0.218 C 
BRANCH  16  23
ATOM     23  C   UNL     1      -1.088   0.206  22.472  0.00  0.00    +0.181 C 
BRANCH  23   6
ATOM      6  O   UNL     1      -1.607   1.469  22.842  0.00  0.00    -0.381 OA
ATOM     25  C   UNL     1      -2.524   1.966  21.873  0.00  0.00    +0.194 C 
ENDBRANCH  23   6
ENDBRANCH  16  23
ENDBRANCH  17  21
ENDBRANCH  12  17
BRANCH  15  22
ATOM     22  C   UNL     1      -3.794   3.194  25.094  0.00  0.00    +0.140 C 
BRANCH  22  11
ATOM     11  N   UNL     1      -4.810   2.852  26.045  0.00  0.00    -0.187 NA
ATOM     33  H   UNL     1      -4.609   3.067  27.029  0.00  0.00    +0.148 HD
BRANCH  11   2
ATOM      2  S   UNL     1      -5.947   1.595  25.728  0.00  0.00    +0.058 S 
ATOM      8  O   UNL     1      -6.704   1.945  24.542  0.00  0.00    -0.153 OA
ATOM      9  O   UNL     1      -6.634   1.222  26.950  0.00  0.00    -0.153 OA
BRANCH   2  24
ATOM      1 CL   UNL     1      -2.124  -3.161  24.251  0.00  0.00    -0.084 Cl
ATOM     24  C   UNL     1      -4.870   0.256  25.312  0.00  0.00    +0.105 A 
ATOM     26  C   UNL     1      -4.147  -0.394  26.312  0.00  0.00    +0.030 A 
ATOM     27  C   UNL     1      -4.745  -0.151  23.984  0.00  0.00    +0.030 A 
ATOM     28  C   UNL     1      -3.297  -1.450  25.984  0.00  0.00    +0.022 A 
ATOM     29  C   UNL     1      -3.895  -1.209  23.656  0.00  0.00    +0.022 A 
ATOM     30  C   UNL     1      -3.172  -1.858  24.655  0.00  0.00    +0.041 A 
ENDBRANCH   2  24
ENDBRANCH  11   2
ENDBRANCH  22  11
ENDBRANCH  15  22
TORSDOF 10
ENDMDL
MODEL 10
REMARK VINA RESULT:      -0.9      1.719      4.615
REMARK  Name = 40777895
REMARK  11 active torsions:
REMARK  status: ('A' for Active; 'I' for Inactive)
REMARK    1  A    between atoms: S_2  and  N_11
REMARK    2  A    between atoms: S_2  and  C_24
REMARK    3  A    between atoms: O_4  and  C_13
REMARK    4  A    between atoms: O_5  and  C_14
REMARK    5  A    between atoms: O_6  and  C_23
REMARK    6  A    between atoms: O_6  and  C_25
REMARK    7  A    between atoms: N_11  and  C_22
REMARK    8  A    between atoms: C_12  and  C_17
REMARK    9  A    between atoms: C_15  and  C_22
REMARK   10  A    between atoms: C_16  and  C_23
REMARK   11  A    between atoms: C_17  and  C_21
REMARK                            x       y       z     vdW  Elec       q    Type
REMARK                         _______ _______ _______ _____ _____    ______ ____
ROOT
ATOM      3  O   UNL     1      -1.779   2.846  23.473  0.00  0.00    -0.366 OA
ATOM     12  C   UNL     1      -2.939   3.332  24.172  0.00  0.00    +0.158 C 
ATOM     13  C   UNL     1      -2.497   3.531  25.612  0.00  0.00    +0.175 C 
ATOM     14  C   UNL     1      -1.067   3.998  25.429  0.00  0.00    +0.175 C 
ATOM     15  C   UNL     1      -0.600   3.140  24.259  0.00  0.00    +0.165 C 
ENDROOT
BRANCH  13   4
ATOM      4  O   UNL     1      -3.308   4.465  26.291  0.00  0.00    -0.387 OA
ATOM     31  H   UNL     1      -4.194   4.426  25.892  0.00  0.00    +0.210 HD
ENDBRANCH  13   4
BRANCH  14   5
ATOM      5  O   UNL     1      -1.041   5.364  25.016  0.00  0.00    -0.387 OA
ATOM     32  H   UNL     1      -0.127   5.572  24.757  0.00  0.00    +0.210 HD
ENDBRANCH  14   5
BRANCH  12  17
ATOM     17  C   UNL     1      -4.078   2.340  24.024  0.00  0.00    +0.130 C 
BRANCH  17  21
ATOM      7  O   UNL     1      -3.099   0.981  22.330  0.00  0.00    -0.276 OA
ATOM     10  N   UNL     1      -3.628  -0.047  24.334  0.00  0.00    -0.296 N 
ATOM     16  C   UNL     1      -3.255  -1.405  23.929  0.00  0.00    +0.102 C 
ATOM     18  C   UNL     1      -3.895  -2.293  24.998  0.00  0.00    +0.026 C 
ATOM     19  C   UNL     1      -4.160  -0.029  25.695  0.00  0.00    +0.108 C 
ATOM     20  C   UNL     1      -3.871  -1.417  26.246  0.00  0.00    +0.021 C 
ATOM     21  C   UNL     1      -3.555   1.036  23.474  0.00  0.00    +0.218 C 
BRANCH  16  23
ATOM     23  C   UNL     1      -1.737  -1.573  23.872  0.00  0.00    +0.181 C 
BRANCH  23   6
ATOM      6  O   UNL     1      -1.397  -2.788  24.512  0.00  0.00    -0.381 OA
ATOM     25  C   UNL     1      -0.461  -2.584  25.566  0.00  0.00    +0.194 C 
ENDBRANCH  23   6
ENDBRANCH  16  23
ENDBRANCH  17  21
ENDBRANCH  12  17
BRANCH  15  22
ATOM     22  C   UNL     1       0.010   1.816  24.695  0.00  0.00    +0.140 C 
BRANCH  22  11
ATOM     11  N   UNL     1       1.215   1.536  23.973  0.00  0.00    -0.187 NA
ATOM     33  H   UNL     1       1.723   2.347  23.597  0.00  0.00    +0.148 HD
BRANCH  11   2
ATOM      2  S   UNL     1       1.460   0.019  23.192  0.00  0.00    +0.058 S 
ATOM      8  O   UNL     1       1.048   0.139  21.808  0.00  0.00    -0.153 OA
ATOM      9  O   UNL     1       0.944  -1.057  24.017  0.00  0.00    -0.153 OA
BRANCH   2  24
ATOM      1 CL   UNL     1       7.723  -0.416  23.318  0.00  0.00    -0.084 Cl
ATOM     24  C   UNL     1       3.223  -0.104  23.227  0.00  0.00    +0.105 A 
ATOM     26  C   UNL     1       4.005   0.930  22.711  0.00  0.00    +0.030 A 
ATOM     27  C   UNL     1       3.833  -1.234  23.771  0.00  0.00    +0.030 A 
ATOM     28  C   UNL     1       5.396   0.833  22.739  0.00  0.00    +0.022 A 
ATOM     29  C   UNL     1       5.225  -1.331  23.800  0.00  0.00    +0.022 A 
ATOM     30  C   UNL     1       6.006  -0.298  23.284  0.00  0.00    +0.041 A 
ENDBRANCH   2  24
ENDBRANCH  11   2
ENDBRANCH  22  11
ENDBRANCH  15  22
TORSDOF 10
ENDMDL
