MODEL 1
REMARK VINA RESULT:      -4.5      0.000      0.000
REMARK  Name = 11886303
REMARK  8 active torsions:
REMARK  status: ('A' for Active; 'I' for Inactive)
REMARK    1  A    between atoms: O_3  and  C_20
REMARK    2  A    between atoms: O_3  and  C_24
REMARK    3  A    between atoms: O_7  and  C_25
REMARK    4  A    between atoms: N_9  and  C_16
REMARK    5  A    between atoms: N_10  and  C_17
REMARK    6  A    between atoms: C_21  and  C_22
REMARK    7  A    between atoms: C_22  and  C_23
REMARK    8  A    between atoms: C_23  and  C_25
REMARK                            x       y       z     vdW  Elec       q    Type
REMARK                         _______ _______ _______ _____ _____    ______ ____
ROOT
ATOM      1  O   UNL     1      -1.666   3.549  26.504  0.00  0.00    -0.370 OA
ATOM      2  O   UNL     1      -1.809   3.490  23.364  0.00  0.00    -0.370 OA
ATOM     14  C   UNL     1      -2.482   2.762  24.408  0.00  0.00    +0.176 C 
ATOM     15  C   UNL     1      -1.472   2.528  25.514  0.00  0.00    +0.171 C 
ATOM     16  C   UNL     1      -3.549   3.635  25.039  0.00  0.00    +0.171 C 
ATOM     17  C   UNL     1      -0.130   2.703  24.838  0.00  0.00    +0.130 C 
ATOM     18  C   UNL     1      -2.788   4.365  26.140  0.00  0.00    +0.190 C 
ATOM     19  C   UNL     1      -0.445   3.713  23.750  0.00  0.00    +0.185 C 
ENDROOT
BRANCH  16   9
ATOM      9  N   UNL     1      -4.709   2.865  25.492  0.00  0.00    -0.187 N 
ATOM     11  N   UNL     1      -5.475   3.293  26.506  0.00  0.00    -0.041 NA
ATOM     12  N   UNL     1      -6.249   1.355  25.724  0.00  0.00    -0.071 NA
ATOM     13  N   UNL     1      -6.414   2.367  26.643  0.00  0.00    -0.020 NA
ATOM     20  C   UNL     1      -5.189   1.683  25.022  0.00  0.00    +0.342 A 
BRANCH  20   3
ATOM      3  O   UNL     1      -4.659   0.997  24.027  0.00  0.00    -0.423 OA
BRANCH   3  24
ATOM      5  O   UNL     1      -0.555  -1.207  25.356  0.00  0.00    -0.452 OA
ATOM      6  O   UNL     1      -1.461  -3.387  24.870  0.00  0.00    -0.453 OA
ATOM     24  C   UNL     1      -3.877  -0.131  24.228  0.00  0.00    +0.136 A 
ATOM     26  C   UNL     1      -2.574   0.006  24.713  0.00  0.00    +0.096 A 
ATOM     27  C   UNL     1      -4.405  -1.402  23.944  0.00  0.00    +0.050 A 
ATOM     28  C   UNL     1      -1.835  -1.145  24.897  0.00  0.00    +0.170 A 
ATOM     29  C   UNL     1      -2.352  -2.390  24.619  0.00  0.00    +0.166 A 
ATOM     30  C   UNL     1      -3.636  -2.552  24.141  0.00  0.00    +0.053 A 
ATOM     31  C   UNL     1      -0.325  -2.631  25.337  0.00  0.00    +0.466 C 
ENDBRANCH   3  24
ENDBRANCH  20   3
ENDBRANCH  16   9
BRANCH  17  10
ATOM      4  O   UNL     1       2.350   2.248  23.417  0.00  0.00    -0.276 OA
ATOM     10  N   UNL     1       0.339   1.459  24.277  0.00  0.00    -0.308 N 
ATOM     21  C   UNL     1       1.550   1.335  23.608  0.00  0.00    +0.214 C 
ATOM     32  H   UNL     1      -0.274   0.650  24.331  0.00  0.00    +0.149 HD
BRANCH  21  22
ATOM     22  C   UNL     1       1.780  -0.086  23.126  0.00  0.00    +0.107 C 
BRANCH  22  23
ATOM     23  C   UNL     1       3.137  -0.261  22.452  0.00  0.00    +0.129 C 
BRANCH  23  25
ATOM      8  O   UNL     1       4.554  -1.589  23.919  0.00  0.00    -0.251 OA
ATOM     25  C   UNL     1       4.240  -0.501  23.457  0.00  0.00    +0.305 C 
BRANCH  25   7
ATOM      7  O   UNL     1       4.863   0.658  23.796  0.00  0.00    -0.481 OA
ATOM     33  H   UNL     1       5.267   0.608  24.688  0.00  0.00    +0.295 HD
ENDBRANCH  25   7
ENDBRANCH  23  25
ENDBRANCH  22  23
ENDBRANCH  21  22
ENDBRANCH  17  10
TORSDOF 8
ENDMDL
MODEL 2
REMARK VINA RESULT:      -3.9      2.013      5.063
REMARK  Name = 11886303
REMARK  8 active torsions:
REMARK  status: ('A' for Active; 'I' for Inactive)
REMARK    1  A    between atoms: O_3  and  C_20
REMARK    2  A    between atoms: O_3  and  C_24
REMARK    3  A    between atoms: O_7  and  C_25
REMARK    4  A    between atoms: N_9  and  C_16
REMARK    5  A    between atoms: N_10  and  C_17
REMARK    6  A    between atoms: C_21  and  C_22
REMARK    7  A    between atoms: C_22  and  C_23
REMARK    8  A    between atoms: C_23  and  C_25
REMARK                            x       y       z     vdW  Elec       q    Type
REMARK                         _______ _______ _______ _____ _____    ______ ____
ROOT
ATOM      1  O   UNL     1      -4.447   2.843  23.309  0.00  0.00    -0.370 OA
ATOM      2  O   UNL     1      -4.945   2.423  26.386  0.00  0.00    -0.370 OA
ATOM     14  C   UNL     1      -3.768   2.639  25.585  0.00  0.00    +0.176 C 
ATOM     15  C   UNL     1      -3.973   1.897  24.279  0.00  0.00    +0.171 C 
ATOM     16  C   UNL     1      -3.676   4.099  25.188  0.00  0.00    +0.171 C 
ATOM     17  C   UNL     1      -5.050   0.882  24.590  0.00  0.00    +0.130 C 
ATOM     18  C   UNL     1      -4.477   4.154  23.892  0.00  0.00    +0.190 C 
ATOM     19  C   UNL     1      -5.860   1.588  25.661  0.00  0.00    +0.185 C 
ENDROOT
BRANCH  16   9
ATOM      9  N   UNL     1      -2.291   4.566  25.081  0.00  0.00    -0.187 N 
ATOM     11  N   UNL     1      -2.006   5.869  24.958  0.00  0.00    -0.041 NA
ATOM     12  N   UNL     1      -0.128   4.668  24.966  0.00  0.00    -0.071 NA
ATOM     13  N   UNL     1      -0.681   5.926  24.889  0.00  0.00    -0.020 NA
ATOM     20  C   UNL     1      -1.141   3.842  25.085  0.00  0.00    +0.342 A 
BRANCH  20   3
ATOM      3  O   UNL     1      -1.079   2.527  25.191  0.00  0.00    -0.423 OA
BRANCH   3  24
ATOM      5  O   UNL     1       3.145   1.191  23.231  0.00  0.00    -0.452 OA
ATOM      6  O   UNL     1       2.088  -0.503  21.881  0.00  0.00    -0.453 OA
ATOM     24  C   UNL     1      -0.307   1.745  24.343  0.00  0.00    +0.136 A 
ATOM     26  C   UNL     1       1.074   1.944  24.282  0.00  0.00    +0.096 A 
ATOM     27  C   UNL     1      -0.924   0.757  23.556  0.00  0.00    +0.050 A 
ATOM     28  C   UNL     1       1.800   1.142  23.425  0.00  0.00    +0.170 A 
ATOM     29  C   UNL     1       1.196   0.174  22.654  0.00  0.00    +0.166 A 
ATOM     30  C   UNL     1      -0.166  -0.043  22.696  0.00  0.00    +0.053 A 
ATOM     31  C   UNL     1       3.322   0.146  22.253  0.00  0.00    +0.466 C 
ENDBRANCH   3  24
ENDBRANCH  20   3
ENDBRANCH  16   9
BRANCH  17  10
ATOM      4  O   UNL     1      -4.006  -1.324  23.034  0.00  0.00    -0.276 OA
ATOM     10  N   UNL     1      -4.482  -0.347  25.089  0.00  0.00    -0.308 N 
ATOM     21  C   UNL     1      -4.004  -1.355  24.262  0.00  0.00    +0.214 C 
ATOM     32  H   UNL     1      -4.482  -0.500  26.094  0.00  0.00    +0.149 HD
BRANCH  21  22
ATOM     22  C   UNL     1      -3.466  -2.529  25.062  0.00  0.00    +0.107 C 
BRANCH  22  23
ATOM     23  C   UNL     1      -1.958  -2.696  24.911  0.00  0.00    +0.129 C 
BRANCH  23  25
ATOM      8  O   UNL     1      -1.692  -0.772  26.378  0.00  0.00    -0.251 OA
ATOM     25  C   UNL     1      -1.193  -1.667  25.711  0.00  0.00    +0.305 C 
BRANCH  25   7
ATOM      7  O   UNL     1       0.149  -1.854  25.604  0.00  0.00    -0.481 OA
ATOM     33  H   UNL     1       0.519  -1.401  24.817  0.00  0.00    +0.295 HD
ENDBRANCH  25   7
ENDBRANCH  23  25
ENDBRANCH  22  23
ENDBRANCH  21  22
ENDBRANCH  17  10
TORSDOF 8
ENDMDL
MODEL 3
REMARK VINA RESULT:      -3.5     17.540     19.770
REMARK  Name = 11886303
REMARK  8 active torsions:
REMARK  status: ('A' for Active; 'I' for Inactive)
REMARK    1  A    between atoms: O_3  and  C_20
REMARK    2  A    between atoms: O_3  and  C_24
REMARK    3  A    between atoms: O_7  and  C_25
REMARK    4  A    between atoms: N_9  and  C_16
REMARK    5  A    between atoms: N_10  and  C_17
REMARK    6  A    between atoms: C_21  and  C_22
REMARK    7  A    between atoms: C_22  and  C_23
REMARK    8  A    between atoms: C_23  and  C_25
REMARK                            x       y       z     vdW  Elec       q    Type
REMARK                         _______ _______ _______ _____ _____    ______ ____
ROOT
ATOM      1  O   UNL     1      15.538  -2.665  30.638  0.00  0.00    -0.370 OA
ATOM      2  O   UNL     1      17.004  -5.159  31.870  0.00  0.00    -0.370 OA
ATOM     14  C   UNL     1      16.468  -4.858  30.568  0.00  0.00    +0.176 C 
ATOM     15  C   UNL     1      15.201  -4.052  30.781  0.00  0.00    +0.171 C 
ATOM     16  C   UNL     1      17.402  -3.918  29.831  0.00  0.00    +0.171 C 
ATOM     17  C   UNL     1      14.803  -4.351  32.209  0.00  0.00    +0.130 C 
ATOM     18  C   UNL     1      16.918  -2.540  30.267  0.00  0.00    +0.190 C 
ATOM     19  C   UNL     1      16.145  -4.599  32.873  0.00  0.00    +0.185 C 
ENDROOT
BRANCH  16   9
ATOM      9  N   UNL     1      17.402  -4.147  28.384  0.00  0.00    -0.187 N 
ATOM     11  N   UNL     1      17.399  -3.123  27.519  0.00  0.00    -0.041 NA
ATOM     12  N   UNL     1      17.401  -5.060  26.417  0.00  0.00    -0.071 NA
ATOM     13  N   UNL     1      17.399  -3.687  26.318  0.00  0.00    -0.020 NA
ATOM     20  C   UNL     1      17.403  -5.323  27.703  0.00  0.00    +0.342 A 
BRANCH  20   3
ATOM      3  O   UNL     1      17.405  -6.518  28.264  0.00  0.00    -0.423 OA
BRANCH   3  24
ATOM      5  O   UNL     1      14.462  -8.573  25.010  0.00  0.00    -0.452 OA
ATOM      6  O   UNL     1      14.881 -10.778  25.888  0.00  0.00    -0.453 OA
ATOM     24  C   UNL     1      16.783  -7.616  27.686  0.00  0.00    +0.136 A 
ATOM     26  C   UNL     1      15.921  -7.434  26.601  0.00  0.00    +0.096 A 
ATOM     27  C   UNL     1      17.027  -8.901  28.198  0.00  0.00    +0.050 A 
ATOM     28  C   UNL     1      15.326  -8.555  26.061  0.00  0.00    +0.170 A 
ATOM     29  C   UNL     1      15.566  -9.815  26.563  0.00  0.00    +0.166 A 
ATOM     30  C   UNL     1      16.412 -10.022  27.632  0.00  0.00    +0.053 A 
ATOM     31  C   UNL     1      14.185  -9.985  24.904  0.00  0.00    +0.466 C 
ENDBRANCH   3  24
ENDBRANCH  20   3
ENDBRANCH  16   9
BRANCH  17  10
ATOM      4  O   UNL     1      11.919  -4.445  31.994  0.00  0.00    -0.276 OA
ATOM     10  N   UNL     1      13.960  -5.520  32.283  0.00  0.00    -0.308 N 
ATOM     21  C   UNL     1      12.577  -5.468  32.169  0.00  0.00    +0.214 C 
ATOM     32  H   UNL     1      14.400  -6.415  32.481  0.00  0.00    +0.149 HD
BRANCH  21  22
ATOM     22  C   UNL     1      11.953  -6.847  32.287  0.00  0.00    +0.107 C 
BRANCH  22  23
ATOM     23  C   UNL     1      12.023  -7.633  30.982  0.00  0.00    +0.129 C 
BRANCH  23  25
ATOM      8  O   UNL     1      13.323  -9.671  31.266  0.00  0.00    -0.251 OA
ATOM     25  C   UNL     1      13.257  -8.502  30.912  0.00  0.00    +0.305 C 
BRANCH  25   7
ATOM      7  O   UNL     1      14.313  -7.822  30.393  0.00  0.00    -0.481 OA
ATOM     33  H   UNL     1      14.060  -6.920  30.105  0.00  0.00    +0.295 HD
ENDBRANCH  25   7
ENDBRANCH  23  25
ENDBRANCH  22  23
ENDBRANCH  21  22
ENDBRANCH  17  10
TORSDOF 8
ENDMDL
MODEL 4
REMARK VINA RESULT:      -2.2      1.549      4.589
REMARK  Name = 11886303
REMARK  8 active torsions:
REMARK  status: ('A' for Active; 'I' for Inactive)
REMARK    1  A    between atoms: O_3  and  C_20
REMARK    2  A    between atoms: O_3  and  C_24
REMARK    3  A    between atoms: O_7  and  C_25
REMARK    4  A    between atoms: N_9  and  C_16
REMARK    5  A    between atoms: N_10  and  C_17
REMARK    6  A    between atoms: C_21  and  C_22
REMARK    7  A    between atoms: C_22  and  C_23
REMARK    8  A    between atoms: C_23  and  C_25
REMARK                            x       y       z     vdW  Elec       q    Type
REMARK                         _______ _______ _______ _____ _____    ______ ____
ROOT
ATOM      1  O   UNL     1      -2.824  -1.792  23.642  0.00  0.00    -0.370 OA
ATOM      2  O   UNL     1      -1.565  -0.893  26.380  0.00  0.00    -0.370 OA
ATOM     14  C   UNL     1      -2.384  -0.237  25.394  0.00  0.00    +0.176 C 
ATOM     15  C   UNL     1      -1.935  -0.736  24.035  0.00  0.00    +0.171 C 
ATOM     16  C   UNL     1      -3.820  -0.707  25.521  0.00  0.00    +0.171 C 
ATOM     17  C   UNL     1      -0.546  -1.285  24.277  0.00  0.00    +0.130 C 
ATOM     18  C   UNL     1      -3.859  -1.939  24.625  0.00  0.00    +0.190 C 
ATOM     19  C   UNL     1      -0.633  -1.759  25.716  0.00  0.00    +0.185 C 
ENDROOT
BRANCH  16   9
ATOM      9  N   UNL     1      -4.786   0.340  25.179  0.00  0.00    -0.187 N 
ATOM     11  N   UNL     1      -5.849   0.078  24.406  0.00  0.00    -0.041 NA
ATOM     12  N   UNL     1      -5.846   2.224  25.007  0.00  0.00    -0.071 NA
ATOM     13  N   UNL     1      -6.493   1.233  24.305  0.00  0.00    -0.020 NA
ATOM     20  C   UNL     1      -4.792   1.650  25.540  0.00  0.00    +0.342 A 
BRANCH  20   3
ATOM      3  O   UNL     1      -3.880   2.227  26.300  0.00  0.00    -0.423 OA
BRANCH   3  24
ATOM      5  O   UNL     1       0.018   3.458  23.699  0.00  0.00    -0.452 OA
ATOM      6  O   UNL     1      -0.218   5.785  24.277  0.00  0.00    -0.453 OA
ATOM     24  C   UNL     1      -2.971   3.152  25.806  0.00  0.00    +0.136 A 
ATOM     26  C   UNL     1      -1.930   2.726  24.977  0.00  0.00    +0.096 A 
ATOM     27  C   UNL     1      -3.108   4.509  26.143  0.00  0.00    +0.050 A 
ATOM     28  C   UNL     1      -1.051   3.683  24.510  0.00  0.00    +0.170 A 
ATOM     29  C   UNL     1      -1.186   5.013  24.840  0.00  0.00    +0.166 A 
ATOM     30  C   UNL     1      -2.206   5.458  25.656  0.00  0.00    +0.053 A 
ATOM     31  C   UNL     1       0.541   4.794  23.554  0.00  0.00    +0.466 C 
ENDBRANCH   3  24
ENDBRANCH  20   3
ENDBRANCH  16   9
BRANCH  17  10
ATOM      4  O   UNL     1       1.034  -0.714  21.921  0.00  0.00    -0.276 OA
ATOM     10  N   UNL     1       0.456  -0.257  24.125  0.00  0.00    -0.308 N 
ATOM     21  C   UNL     1       1.168  -0.057  22.950  0.00  0.00    +0.214 C 
ATOM     32  H   UNL     1       0.684   0.311  24.937  0.00  0.00    +0.149 HD
BRANCH  21  22
ATOM     22  C   UNL     1       2.153   1.091  23.081  0.00  0.00    +0.107 C 
BRANCH  22  23
ATOM     23  C   UNL     1       3.511   0.767  22.464  0.00  0.00    +0.129 C 
BRANCH  23  25
ATOM      8  O   UNL     1       5.372   0.764  24.033  0.00  0.00    -0.251 OA
ATOM     25  C   UNL     1       4.461   0.168  23.474  0.00  0.00    +0.305 C 
BRANCH  25   7
ATOM      7  O   UNL     1       4.182  -1.143  23.701  0.00  0.00    -0.481 OA
ATOM     33  H   UNL     1       3.982  -1.315  24.645  0.00  0.00    +0.295 HD
ENDBRANCH  25   7
ENDBRANCH  23  25
ENDBRANCH  22  23
ENDBRANCH  21  22
ENDBRANCH  17  10
TORSDOF 8
ENDMDL
MODEL 5
REMARK VINA RESULT:      -2.2      2.434      3.261
REMARK  Name = 11886303
REMARK  8 active torsions:
REMARK  status: ('A' for Active; 'I' for Inactive)
REMARK    1  A    between atoms: O_3  and  C_20
REMARK    2  A    between atoms: O_3  and  C_24
REMARK    3  A    between atoms: O_7  and  C_25
REMARK    4  A    between atoms: N_9  and  C_16
REMARK    5  A    between atoms: N_10  and  C_17
REMARK    6  A    between atoms: C_21  and  C_22
REMARK    7  A    between atoms: C_22  and  C_23
REMARK    8  A    between atoms: C_23  and  C_25
REMARK                            x       y       z     vdW  Elec       q    Type
REMARK                         _______ _______ _______ _____ _____    ______ ____
ROOT
ATOM      1  O   UNL     1      -2.772   4.961  24.720  0.00  0.00    -0.370 OA
ATOM      2  O   UNL     1      -1.713   2.322  23.377  0.00  0.00    -0.370 OA
ATOM     14  C   UNL     1      -2.524   2.598  24.534  0.00  0.00    +0.176 C 
ATOM     15  C   UNL     1      -1.976   3.858  25.175  0.00  0.00    +0.171 C 
ATOM     16  C   UNL     1      -3.930   2.966  24.102  0.00  0.00    +0.171 C 
ATOM     17  C   UNL     1      -0.568   3.970  24.636  0.00  0.00    +0.130 C 
ATOM     18  C   UNL     1      -3.842   4.474  23.897  0.00  0.00    +0.190 C 
ATOM     19  C   UNL     1      -0.693   3.326  23.268  0.00  0.00    +0.185 C 
ENDROOT
BRANCH  16   9
ATOM      9  N   UNL     1      -4.946   2.529  25.063  0.00  0.00    -0.187 N 
ATOM     11  N   UNL     1      -5.374   3.343  26.038  0.00  0.00    -0.041 NA
ATOM     12  N   UNL     1      -6.418   1.377  26.161  0.00  0.00    -0.071 NA
ATOM     13  N   UNL     1      -6.275   2.633  26.706  0.00  0.00    -0.020 NA
ATOM     20  C   UNL     1      -5.587   1.334  25.146  0.00  0.00    +0.342 A 
BRANCH  20   3
ATOM      3  O   UNL     1      -5.390   0.315  24.330  0.00  0.00    -0.423 OA
BRANCH   3  24
ATOM      5  O   UNL     1      -0.896  -0.748  25.793  0.00  0.00    -0.452 OA
ATOM      6  O   UNL     1      -1.027  -2.975  24.881  0.00  0.00    -0.453 OA
ATOM     24  C   UNL     1      -4.305  -0.541  24.452  0.00  0.00    +0.136 A 
ATOM     26  C   UNL     1      -3.148  -0.106  25.103  0.00  0.00    +0.096 A 
ATOM     27  C   UNL     1      -4.382  -1.839  23.920  0.00  0.00    +0.050 A 
ATOM     28  C   UNL     1      -2.095  -0.993  25.200  0.00  0.00    +0.170 A 
ATOM     29  C   UNL     1      -2.170  -2.265  24.679  0.00  0.00    +0.166 A 
ATOM     30  C   UNL     1      -3.301  -2.719  24.032  0.00  0.00    +0.053 A 
ATOM     31  C   UNL     1      -0.224  -2.007  25.589  0.00  0.00    +0.466 C 
ENDBRANCH   3  24
ENDBRANCH  20   3
ENDBRANCH  16   9
BRANCH  17  10
ATOM      4  O   UNL     1      -0.974   3.065  27.354  0.00  0.00    -0.276 OA
ATOM     10  N   UNL     1       0.370   3.254  25.467  0.00  0.00    -0.308 N 
ATOM     21  C   UNL     1       0.085   2.858  26.767  0.00  0.00    +0.214 C 
ATOM     32  H   UNL     1       1.300   3.078  25.096  0.00  0.00    +0.149 HD
BRANCH  21  22
ATOM     22  C   UNL     1       1.255   2.125  27.399  0.00  0.00    +0.107 C 
BRANCH  22  23
ATOM     23  C   UNL     1       1.903   2.922  28.527  0.00  0.00    +0.129 C 
BRANCH  23  25
ATOM      8  O   UNL     1       0.609   2.874  30.587  0.00  0.00    -0.251 OA
ATOM     25  C   UNL     1       1.496   2.407  29.888  0.00  0.00    +0.305 C 
BRANCH  25   7
ATOM      7  O   UNL     1       2.246   1.335  30.257  0.00  0.00    -0.481 OA
ATOM     33  H   UNL     1       2.486   1.367  31.207  0.00  0.00    +0.295 HD
ENDBRANCH  25   7
ENDBRANCH  23  25
ENDBRANCH  22  23
ENDBRANCH  21  22
ENDBRANCH  17  10
TORSDOF 8
ENDMDL
MODEL 6
REMARK VINA RESULT:      -2.0     17.043     19.868
REMARK  Name = 11886303
REMARK  8 active torsions:
REMARK  status: ('A' for Active; 'I' for Inactive)
REMARK    1  A    between atoms: O_3  and  C_20
REMARK    2  A    between atoms: O_3  and  C_24
REMARK    3  A    between atoms: O_7  and  C_25
REMARK    4  A    between atoms: N_9  and  C_16
REMARK    5  A    between atoms: N_10  and  C_17
REMARK    6  A    between atoms: C_21  and  C_22
REMARK    7  A    between atoms: C_22  and  C_23
REMARK    8  A    between atoms: C_23  and  C_25
REMARK                            x       y       z     vdW  Elec       q    Type
REMARK                         _______ _______ _______ _____ _____    ______ ____
ROOT
ATOM      1  O   UNL     1      15.775  -3.310  30.627  0.00  0.00    -0.370 OA
ATOM      2  O   UNL     1      16.993  -5.964  31.794  0.00  0.00    -0.370 OA
ATOM     14  C   UNL     1      16.316  -5.630  30.568  0.00  0.00    +0.176 C 
ATOM     15  C   UNL     1      15.245  -4.613  30.910  0.00  0.00    +0.171 C 
ATOM     16  C   UNL     1      17.263  -4.894  29.640  0.00  0.00    +0.171 C 
ATOM     17  C   UNL     1      15.031  -4.780  32.398  0.00  0.00    +0.130 C 
ATOM     18  C   UNL     1      17.082  -3.437  30.050  0.00  0.00    +0.190 C 
ATOM     19  C   UNL     1      16.402  -5.225  32.873  0.00  0.00    +0.185 C 
ENDROOT
BRANCH  16   9
ATOM      9  N   UNL     1      17.000  -5.179  28.227  0.00  0.00    -0.187 N 
ATOM     11  N   UNL     1      16.631  -4.208  27.381  0.00  0.00    -0.041 NA
ATOM     12  N   UNL     1      16.752  -6.158  26.309  0.00  0.00    -0.071 NA
ATOM     13  N   UNL     1      16.481  -4.812  26.209  0.00  0.00    -0.020 NA
ATOM     20  C   UNL     1      17.071  -6.364  27.565  0.00  0.00    +0.342 A 
BRANCH  20   3
ATOM      3  O   UNL     1      17.405  -7.515  28.116  0.00  0.00    -0.423 OA
BRANCH   3  24
ATOM      5  O   UNL     1      15.618  -9.792  32.001  0.00  0.00    -0.452 OA
ATOM      6  O   UNL     1      13.820 -10.760  30.721  0.00  0.00    -0.453 OA
ATOM     24  C   UNL     1      16.483  -8.340  28.744  0.00  0.00    +0.136 A 
ATOM     26  C   UNL     1      16.603  -8.600  30.111  0.00  0.00    +0.096 A 
ATOM     27  C   UNL     1      15.435  -8.905  27.997  0.00  0.00    +0.050 A 
ATOM     28  C   UNL     1      15.662  -9.427  30.691  0.00  0.00    +0.170 A 
ATOM     29  C   UNL     1      14.634  -9.979  29.959  0.00  0.00    +0.166 A 
ATOM     30  C   UNL     1      14.493  -9.738  28.608  0.00  0.00    +0.053 A 
ATOM     31  C   UNL     1      14.449 -10.636  32.013  0.00  0.00    +0.466 C 
ENDBRANCH   3  24
ENDBRANCH  20   3
ENDBRANCH  16   9
BRANCH  17  10
ATOM      4  O   UNL     1      12.163  -4.521  32.114  0.00  0.00    -0.276 OA
ATOM     10  N   UNL     1      14.032  -5.785  32.673  0.00  0.00    -0.308 N 
ATOM     21  C   UNL     1      12.670  -5.568  32.506  0.00  0.00    +0.214 C 
ATOM     32  H   UNL     1      14.341  -6.674  33.056  0.00  0.00    +0.149 HD
BRANCH  21  22
ATOM     22  C   UNL     1      11.859  -6.798  32.873  0.00  0.00    +0.107 C 
BRANCH  22  23
ATOM     23  C   UNL     1      11.175  -7.428  31.664  0.00  0.00    +0.129 C 
BRANCH  23  25
ATOM      8  O   UNL     1       9.997  -9.312  32.655  0.00  0.00    -0.251 OA
ATOM     25  C   UNL     1       9.967  -8.245  32.059  0.00  0.00    +0.305 C 
BRANCH  25   7
ATOM      7  O   UNL     1       8.813  -7.643  31.671  0.00  0.00    -0.481 OA
ATOM     33  H   UNL     1       8.542  -6.936  32.295  0.00  0.00    +0.295 HD
ENDBRANCH  25   7
ENDBRANCH  23  25
ENDBRANCH  22  23
ENDBRANCH  21  22
ENDBRANCH  17  10
TORSDOF 8
ENDMDL
MODEL 7
REMARK VINA RESULT:      -1.5      1.473      2.338
REMARK  Name = 11886303
REMARK  8 active torsions:
REMARK  status: ('A' for Active; 'I' for Inactive)
REMARK    1  A    between atoms: O_3  and  C_20
REMARK    2  A    between atoms: O_3  and  C_24
REMARK    3  A    between atoms: O_7  and  C_25
REMARK    4  A    between atoms: N_9  and  C_16
REMARK    5  A    between atoms: N_10  and  C_17
REMARK    6  A    between atoms: C_21  and  C_22
REMARK    7  A    between atoms: C_22  and  C_23
REMARK    8  A    between atoms: C_23  and  C_25
REMARK                            x       y       z     vdW  Elec       q    Type
REMARK                         _______ _______ _______ _____ _____    ______ ____
ROOT
ATOM      1  O   UNL     1      -1.611   3.807  26.508  0.00  0.00    -0.370 OA
ATOM      2  O   UNL     1      -1.414   3.595  23.377  0.00  0.00    -0.370 OA
ATOM     14  C   UNL     1      -2.344   3.095  24.356  0.00  0.00    +0.176 C 
ATOM     15  C   UNL     1      -1.541   2.712  25.583  0.00  0.00    +0.171 C 
ATOM     16  C   UNL     1      -3.252   4.215  24.823  0.00  0.00    +0.171 C 
ATOM     17  C   UNL     1      -0.127   2.550  25.069  0.00  0.00    +0.130 C 
ATOM     18  C   UNL     1      -2.475   4.825  25.984  0.00  0.00    +0.190 C 
ATOM     19  C   UNL     1      -0.086   3.537  23.918  0.00  0.00    +0.185 C 
ENDROOT
BRANCH  16   9
ATOM      9  N   UNL     1      -4.599   3.744  25.158  0.00  0.00    -0.187 N 
ATOM     11  N   UNL     1      -5.401   4.452  25.966  0.00  0.00    -0.041 NA
ATOM     12  N   UNL     1      -6.429   2.590  25.299  0.00  0.00    -0.071 NA
ATOM     13  N   UNL     1      -6.519   3.741  26.048  0.00  0.00    -0.020 NA
ATOM     20  C   UNL     1      -5.234   2.612  24.757  0.00  0.00    +0.342 A 
BRANCH  20   3
ATOM      3  O   UNL     1      -4.715   1.700  23.956  0.00  0.00    -0.423 OA
BRANCH   3  24
ATOM      5  O   UNL     1      -3.859  -3.018  23.269  0.00  0.00    -0.452 OA
ATOM      6  O   UNL     1      -3.270  -3.343  25.583  0.00  0.00    -0.453 OA
ATOM     24  C   UNL     1      -4.345   0.438  24.399  0.00  0.00    +0.136 A 
ATOM     26  C   UNL     1      -4.316  -0.632  23.502  0.00  0.00    +0.096 A 
ATOM     27  C   UNL     1      -4.002   0.249  25.749  0.00  0.00    +0.050 A 
ATOM     28  C   UNL     1      -3.943  -1.867  23.989  0.00  0.00    +0.170 A 
ATOM     29  C   UNL     1      -3.607  -2.052  25.312  0.00  0.00    +0.166 A 
ATOM     30  C   UNL     1      -3.627  -1.012  26.218  0.00  0.00    +0.053 A 
ATOM     31  C   UNL     1      -3.431  -3.949  24.284  0.00  0.00    +0.466 C 
ENDBRANCH   3  24
ENDBRANCH  20   3
ENDBRANCH  16   9
BRANCH  17  10
ATOM      4  O   UNL     1       2.039   1.631  23.385  0.00  0.00    -0.276 OA
ATOM     10  N   UNL     1       0.111   1.203  24.610  0.00  0.00    -0.308 N 
ATOM     21  C   UNL     1       1.183   0.854  23.800  0.00  0.00    +0.214 C 
ATOM     32  H   UNL     1      -0.571   0.488  24.852  0.00  0.00    +0.149 HD
BRANCH  21  22
ATOM     22  C   UNL     1       1.180  -0.629  23.474  0.00  0.00    +0.107 C 
BRANCH  22  23
ATOM     23  C   UNL     1      -0.116  -1.316  23.891  0.00  0.00    +0.129 C 
BRANCH  23  25
ATOM      8  O   UNL     1       0.441  -2.950  25.607  0.00  0.00    -0.251 OA
ATOM     25  C   UNL     1      -0.037  -1.868  25.296  0.00  0.00    +0.305 C 
BRANCH  25   7
ATOM      7  O   UNL     1      -0.567  -1.003  26.199  0.00  0.00    -0.481 OA
ATOM     33  H   UNL     1       0.001  -0.214  26.326  0.00  0.00    +0.295 HD
ENDBRANCH  25   7
ENDBRANCH  23  25
ENDBRANCH  22  23
ENDBRANCH  21  22
ENDBRANCH  17  10
TORSDOF 8
ENDMDL
MODEL 8
REMARK VINA RESULT:      -1.3      2.524      4.218
REMARK  Name = 11886303
REMARK  8 active torsions:
REMARK  status: ('A' for Active; 'I' for Inactive)
REMARK    1  A    between atoms: O_3  and  C_20
REMARK    2  A    between atoms: O_3  and  C_24
REMARK    3  A    between atoms: O_7  and  C_25
REMARK    4  A    between atoms: N_9  and  C_16
REMARK    5  A    between atoms: N_10  and  C_17
REMARK    6  A    between atoms: C_21  and  C_22
REMARK    7  A    between atoms: C_22  and  C_23
REMARK    8  A    between atoms: C_23  and  C_25
REMARK                            x       y       z     vdW  Elec       q    Type
REMARK                         _______ _______ _______ _____ _____    ______ ____
ROOT
ATOM      1  O   UNL     1      -0.370   0.633  26.073  0.00  0.00    -0.370 OA
ATOM      2  O   UNL     1      -1.156   2.150  23.433  0.00  0.00    -0.370 OA
ATOM     14  C   UNL     1      -1.053   0.760  23.793  0.00  0.00    +0.176 C 
ATOM     15  C   UNL     1       0.133   0.626  24.729  0.00  0.00    +0.171 C 
ATOM     16  C   UNL     1      -2.251   0.355  24.629  0.00  0.00    +0.171 C 
ATOM     17  C   UNL     1       0.955   1.868  24.471  0.00  0.00    +0.130 C 
ATOM     18  C   UNL     1      -1.803   0.679  26.050  0.00  0.00    +0.190 C 
ATOM     19  C   UNL     1      -0.103   2.882  24.079  0.00  0.00    +0.185 C 
ENDROOT
BRANCH  16   9
ATOM      9  N   UNL     1      -2.647  -1.038  24.406  0.00  0.00    -0.187 N 
ATOM     11  N   UNL     1      -1.743  -2.028  24.426  0.00  0.00    -0.041 NA
ATOM     12  N   UNL     1      -3.776  -2.849  24.023  0.00  0.00    -0.071 NA
ATOM     13  N   UNL     1      -2.440  -3.133  24.191  0.00  0.00    -0.020 NA
ATOM     20  C   UNL     1      -3.882  -1.548  24.160  0.00  0.00    +0.342 A 
BRANCH  20   3
ATOM      3  O   UNL     1      -4.989  -0.833  24.076  0.00  0.00    -0.423 OA
BRANCH   3  24
ATOM      5  O   UNL     1      -3.963   3.886  23.699  0.00  0.00    -0.452 OA
ATOM      6  O   UNL     1      -5.212   4.411  25.692  0.00  0.00    -0.453 OA
ATOM     24  C   UNL     1      -5.065   0.482  24.512  0.00  0.00    +0.136 A 
ATOM     26  C   UNL     1      -4.419   1.489  23.792  0.00  0.00    +0.096 A 
ATOM     27  C   UNL     1      -5.793   0.788  25.674  0.00  0.00    +0.050 A 
ATOM     28  C   UNL     1      -4.523   2.782  24.264  0.00  0.00    +0.170 A 
ATOM     29  C   UNL     1      -5.236   3.082  25.403  0.00  0.00    +0.166 A 
ATOM     30  C   UNL     1      -5.884   2.105  26.132  0.00  0.00    +0.053 A 
ATOM     31  C   UNL     1      -4.404   4.915  24.609  0.00  0.00    +0.466 C 
ENDBRANCH   3  24
ENDBRANCH  20   3
ENDBRANCH  16   9
BRANCH  17  10
ATOM      4  O   UNL     1       2.038  -0.657  23.562  0.00  0.00    -0.276 OA
ATOM     10  N   UNL     1       1.898   1.658  23.399  0.00  0.00    -0.308 N 
ATOM     21  C   UNL     1       2.365   0.402  23.031  0.00  0.00    +0.214 C 
ATOM     32  H   UNL     1       2.276   2.475  22.927  0.00  0.00    +0.149 HD
BRANCH  21  22
ATOM     22  C   UNL     1       3.346   0.484  21.876  0.00  0.00    +0.107 C 
BRANCH  22  23
ATOM     23  C   UNL     1       4.683  -0.175  22.197  0.00  0.00    +0.129 C 
BRANCH  23  25
ATOM      8  O   UNL     1       5.361   0.998  24.219  0.00  0.00    -0.251 OA
ATOM     25  C   UNL     1       5.042  -0.041  23.659  0.00  0.00    +0.305 C 
BRANCH  25   7
ATOM      7  O   UNL     1       4.966  -1.237  24.299  0.00  0.00    -0.481 OA
ATOM     33  H   UNL     1       4.678  -1.956  23.698  0.00  0.00    +0.295 HD
ENDBRANCH  25   7
ENDBRANCH  23  25
ENDBRANCH  22  23
ENDBRANCH  21  22
ENDBRANCH  17  10
TORSDOF 8
ENDMDL
MODEL 9
REMARK VINA RESULT:      -0.8      1.527      3.967
REMARK  Name = 11886303
REMARK  8 active torsions:
REMARK  status: ('A' for Active; 'I' for Inactive)
REMARK    1  A    between atoms: O_3  and  C_20
REMARK    2  A    between atoms: O_3  and  C_24
REMARK    3  A    between atoms: O_7  and  C_25
REMARK    4  A    between atoms: N_9  and  C_16
REMARK    5  A    between atoms: N_10  and  C_17
REMARK    6  A    between atoms: C_21  and  C_22
REMARK    7  A    between atoms: C_22  and  C_23
REMARK    8  A    between atoms: C_23  and  C_25
REMARK                            x       y       z     vdW  Elec       q    Type
REMARK                         _______ _______ _______ _____ _____    ______ ____
ROOT
ATOM      1  O   UNL     1      -3.401  -0.822  23.089  0.00  0.00    -0.370 OA
ATOM      2  O   UNL     1      -2.105  -1.246  25.923  0.00  0.00    -0.370 OA
ATOM     14  C   UNL     1      -2.682  -0.113  25.248  0.00  0.00    +0.176 C 
ATOM     15  C   UNL     1      -2.300  -0.220  23.785  0.00  0.00    +0.171 C 
ATOM     16  C   UNL     1      -4.194  -0.221  25.260  0.00  0.00    +0.171 C 
ATOM     17  C   UNL     1      -1.106  -1.148  23.777  0.00  0.00    +0.130 C 
ATOM     18  C   UNL     1      -4.491  -1.027  24.000  0.00  0.00    +0.190 C 
ATOM     19  C   UNL     1      -1.383  -2.042  24.971  0.00  0.00    +0.185 C 
ENDROOT
BRANCH  16   9
ATOM      9  N   UNL     1      -4.851   1.086  25.328  0.00  0.00    -0.187 N 
ATOM     11  N   UNL     1      -6.012   1.248  25.979  0.00  0.00    -0.041 NA
ATOM     12  N   UNL     1      -5.345   3.186  25.103  0.00  0.00    -0.071 NA
ATOM     13  N   UNL     1      -6.309   2.533  25.838  0.00  0.00    -0.020 NA
ATOM     20  C   UNL     1      -4.453   2.273  24.797  0.00  0.00    +0.342 A 
BRANCH  20   3
ATOM      3  O   UNL     1      -3.350   2.451  24.096  0.00  0.00    -0.423 OA
BRANCH   3  24
ATOM      5  O   UNL     1      -0.366   2.404  27.912  0.00  0.00    -0.452 OA
ATOM      6  O   UNL     1       1.525   3.033  26.558  0.00  0.00    -0.453 OA
ATOM     24  C   UNL     1      -2.104   2.607  24.687  0.00  0.00    +0.136 A 
ATOM     26  C   UNL     1      -1.957   2.396  26.060  0.00  0.00    +0.096 A 
ATOM     27  C   UNL     1      -1.001   2.975  23.897  0.00  0.00    +0.050 A 
ATOM     28  C   UNL     1      -0.699   2.563  26.603  0.00  0.00    +0.170 A 
ATOM     29  C   UNL     1       0.382   2.923  25.829  0.00  0.00    +0.166 A 
ATOM     30  C   UNL     1       0.263   3.137  24.471  0.00  0.00    +0.053 A 
ATOM     31  C   UNL     1       1.044   2.702  27.877  0.00  0.00    +0.466 C 
ENDBRANCH   3  24
ENDBRANCH  20   3
ENDBRANCH  16   9
BRANCH  17  10
ATOM      4  O   UNL     1       0.839  -0.492  21.737  0.00  0.00    -0.276 OA
ATOM     10  N   UNL     1       0.127  -0.416  23.948  0.00  0.00    -0.308 N 
ATOM     21  C   UNL     1       1.003  -0.147  22.904  0.00  0.00    +0.214 C 
ATOM     32  H   UNL     1       0.387  -0.131  24.889  0.00  0.00    +0.149 HD
BRANCH  21  22
ATOM     22  C   UNL     1       2.214   0.636  23.377  0.00  0.00    +0.107 C 
BRANCH  22  23
ATOM     23  C   UNL     1       3.492   0.231  22.650  0.00  0.00    +0.129 C 
BRANCH  23  25
ATOM      8  O   UNL     1       4.775  -1.487  23.802  0.00  0.00    -0.251 OA
ATOM     25  C   UNL     1       4.537  -0.304  23.600  0.00  0.00    +0.305 C 
BRANCH  25   7
ATOM      7  O   UNL     1       5.206   0.704  24.220  0.00  0.00    -0.481 OA
ATOM     33  H   UNL     1       5.707   1.255  23.583  0.00  0.00    +0.295 HD
ENDBRANCH  25   7
ENDBRANCH  23  25
ENDBRANCH  22  23
ENDBRANCH  21  22
ENDBRANCH  17  10
TORSDOF 8
ENDMDL
