MODEL 1
REMARK VINA RESULT:       2.5      0.000      0.000
REMARK  Name = 7165012
REMARK  8 active torsions:
REMARK  status: ('A' for Active; 'I' for Inactive)
REMARK    1  A    between atoms: S_1  and  N_8
REMARK    2  A    between atoms: S_1  and  C_25
REMARK    3  A    between atoms: N_9  and  C_24
REMARK    4  A    between atoms: C_12  and  C_16
REMARK    5  A    between atoms: C_13  and  C_23
REMARK    6  A    between atoms: C_24  and  C_26
REMARK    7  A    between atoms: C_24  and  C_28
REMARK    8  A    between atoms: C_26  and  C_27
REMARK                            x       y       z     vdW  Elec       q    Type
REMARK                         _______ _______ _______ _____ _____    ______ ____
ROOT
ATOM      3  O   UNL     1      -0.554  -1.554  23.489  0.00  0.00    -0.274 OA
ATOM      9  N   UNL     1      -2.348  -0.139  23.931  0.00  0.00    -0.302 N 
ATOM     23  C   UNL     1      -1.082  -0.445  23.464  0.00  0.00    +0.235 C 
ATOM     36  H   UNL     1      -2.700   0.810  23.846  0.00  0.00    +0.150 HD
ENDROOT
BRANCH  23  13
ATOM      2  O   UNL     1       1.352  -0.325  20.935  0.00  0.00    -0.275 OA
ATOM      7  N   UNL     1       1.050   0.542  23.073  0.00  0.00    -0.287 N 
ATOM      8  N   UNL     1      -0.405   2.224  24.870  0.00  0.00    -0.178 NA
ATOM     13  C   UNL     1      -0.389   0.749  22.874  0.00  0.00    +0.177 C 
ATOM     16  C   UNL     1       1.793  -0.073  22.059  0.00  0.00    +0.219 C 
ATOM     19  C   UNL     1      -0.900   2.057  23.472  0.00  0.00    +0.141 C 
ATOM     20  C   UNL     1       1.574   0.844  24.415  0.00  0.00    +0.125 C 
ATOM     22  C   UNL     1       1.083   2.193  24.923  0.00  0.00    +0.128 C 
BRANCH  16  12
ATOM     12  C   UNL     1       3.212  -0.433  22.387  0.00  0.00    +0.075 C 
ATOM     14  C   UNL     1       3.240  -1.442  23.537  0.00  0.00    +0.013 C 
ATOM     15  C   UNL     1       4.003   0.831  22.731  0.00  0.00    +0.013 C 
ATOM     17  C   UNL     1       4.669  -1.765  23.969  0.00  0.00    +0.001 C 
ATOM     18  C   UNL     1       5.430   0.503  23.164  0.00  0.00    +0.001 C 
ATOM     21  C   UNL     1       5.452  -0.501  24.312  0.00  0.00    +0.000 C 
ENDBRANCH  16  12
BRANCH   8   1
ATOM      1  S   UNL     1      -1.149   3.477  25.769  0.00  0.00    +0.029 S 
ATOM      4  O   UNL     1      -2.471   3.043  26.164  0.00  0.00    -0.158 OA
ATOM      5  O   UNL     1      -0.933   4.731  25.084  0.00  0.00    -0.158 OA
ATOM     25  C   UNL     1      -0.110   3.449  27.207  0.00  0.00    +0.215 C 
ENDBRANCH   8   1
ENDBRANCH  23  13
BRANCH   9  24
ATOM     24  C   UNL     1      -3.231  -1.118  24.524  0.00  0.00    +0.163 C 
BRANCH  24  28
ATOM      6  O   UNL     1      -3.605  -1.738  26.844  0.00  0.00    -0.274 OA
ATOM     11  N   UNL     1      -1.698  -0.574  26.312  0.00  0.00    -0.328 N 
ATOM     28  C   UNL     1      -2.901  -1.176  26.009  0.00  0.00    +0.231 C 
ATOM     38  H   UNL     1      -1.352  -0.554  27.266  0.00  0.00    +0.145 HD
ATOM     39  H   UNL     1      -1.115  -0.133  25.607  0.00  0.00    +0.145 HD
ENDBRANCH  24  28
BRANCH  24  26
ATOM     26  C   UNL     1      -4.710  -0.768  24.316  0.00  0.00    +0.069 C 
BRANCH  26  27
ATOM     10  N   UNL     1      -5.971   2.075  26.275  0.00  0.00    -0.360 N 
ATOM     27  C   UNL     1      -5.093   0.554  24.919  0.00  0.00    -0.020 A 
ATOM     29  C   UNL     1      -4.750   1.843  24.423  0.00  0.00    +0.003 A 
ATOM     30  C   UNL     1      -5.843   0.730  26.059  0.00  0.00    +0.087 A 
ATOM     31  C   UNL     1      -5.313   2.779  25.291  0.00  0.00    +0.047 A 
ATOM     32  C   UNL     1      -4.012   2.303  23.314  0.00  0.00    +0.010 A 
ATOM     33  C   UNL     1      -5.175   4.160  25.107  0.00  0.00    +0.026 A 
ATOM     34  C   UNL     1      -3.865   3.681  23.116  0.00  0.00    +0.001 A 
ATOM     35  C   UNL     1      -4.439   4.594  24.000  0.00  0.00    +0.002 A 
ATOM     37  H   UNL     1      -6.474   2.493  27.045  0.00  0.00    +0.165 HD
ENDBRANCH  26  27
ENDBRANCH  24  26
ENDBRANCH   9  24
TORSDOF 7
ENDMDL
MODEL 2
REMARK VINA RESULT:       2.9      1.480      2.141
REMARK  Name = 7165012
REMARK  8 active torsions:
REMARK  status: ('A' for Active; 'I' for Inactive)
REMARK    1  A    between atoms: S_1  and  N_8
REMARK    2  A    between atoms: S_1  and  C_25
REMARK    3  A    between atoms: N_9  and  C_24
REMARK    4  A    between atoms: C_12  and  C_16
REMARK    5  A    between atoms: C_13  and  C_23
REMARK    6  A    between atoms: C_24  and  C_26
REMARK    7  A    between atoms: C_24  and  C_28
REMARK    8  A    between atoms: C_26  and  C_27
REMARK                            x       y       z     vdW  Elec       q    Type
REMARK                         _______ _______ _______ _____ _____    ______ ____
ROOT
ATOM      3  O   UNL     1      -1.339   0.135  25.305  0.00  0.00    -0.274 OA
ATOM      9  N   UNL     1      -2.241  -0.744  23.349  0.00  0.00    -0.302 N 
ATOM     23  C   UNL     1      -1.466   0.135  24.084  0.00  0.00    +0.235 C 
ATOM     36  H   UNL     1      -2.263  -0.670  22.336  0.00  0.00    +0.150 HD
ENDROOT
BRANCH  23  13
ATOM      2  O   UNL     1       1.291  -0.395  21.973  0.00  0.00    -0.275 OA
ATOM      7  N   UNL     1       0.664   1.103  23.640  0.00  0.00    -0.287 N 
ATOM      8  N   UNL     1      -1.084   3.163  24.575  0.00  0.00    -0.178 NA
ATOM     13  C   UNL     1      -0.740   1.118  23.212  0.00  0.00    +0.177 C 
ATOM     16  C   UNL     1       1.562   0.249  22.989  0.00  0.00    +0.219 C 
ATOM     19  C   UNL     1      -1.374   2.505  23.267  0.00  0.00    +0.141 C 
ATOM     20  C   UNL     1       0.985   1.873  24.852  0.00  0.00    +0.125 C 
ATOM     22  C   UNL     1       0.382   3.270  24.813  0.00  0.00    +0.128 C 
BRANCH  16  12
ATOM     12  C   UNL     1       2.933   0.132  23.587  0.00  0.00    +0.075 C 
ATOM     14  C   UNL     1       3.895   1.085  22.875  0.00  0.00    +0.013 C 
ATOM     15  C   UNL     1       3.415  -1.317  23.503  0.00  0.00    +0.013 C 
ATOM     17  C   UNL     1       5.325   0.931  23.387  0.00  0.00    +0.001 C 
ATOM     18  C   UNL     1       4.846  -1.466  24.015  0.00  0.00    +0.001 C 
ATOM     21  C   UNL     1       5.801  -0.516  23.299  0.00  0.00    +0.000 C 
ENDBRANCH  16  12
BRANCH   8   1
ATOM      1  S   UNL     1      -1.990   4.580  24.901  0.00  0.00    +0.029 S 
ATOM      4  O   UNL     1      -3.087   4.656  23.963  0.00  0.00    -0.158 OA
ATOM      5  O   UNL     1      -1.075   5.682  25.094  0.00  0.00    -0.158 OA
ATOM     25  C   UNL     1      -2.653   4.133  26.485  0.00  0.00    +0.215 C 
ENDBRANCH   8   1
ENDBRANCH  23  13
BRANCH   9  24
ATOM     24  C   UNL     1      -3.022  -1.803  23.949  0.00  0.00    +0.163 C 
BRANCH  24  28
ATOM      6  O   UNL     1      -1.158  -2.866  25.091  0.00  0.00    -0.274 OA
ATOM     11  N   UNL     1      -2.867  -1.994  26.353  0.00  0.00    -0.328 N 
ATOM     28  C   UNL     1      -2.245  -2.298  25.161  0.00  0.00    +0.231 C 
ATOM     38  H   UNL     1      -2.448  -2.256  27.240  0.00  0.00    +0.145 HD
ATOM     39  H   UNL     1      -3.755  -1.503  26.396  0.00  0.00    +0.145 HD
ENDBRANCH  24  28
BRANCH  24  26
ATOM     26  C   UNL     1      -4.421  -1.329  24.365  0.00  0.00    +0.069 C 
BRANCH  26  27
ATOM     10  N   UNL     1      -4.499   2.240  23.492  0.00  0.00    -0.360 N 
ATOM     27  C   UNL     1      -4.596   0.158  24.254  0.00  0.00    -0.020 A 
ATOM     29  C   UNL     1      -5.257   1.006  25.188  0.00  0.00    +0.003 A 
ATOM     30  C   UNL     1      -4.142   0.946  23.222  0.00  0.00    +0.087 A 
ATOM     31  C   UNL     1      -5.181   2.306  24.686  0.00  0.00    +0.047 A 
ATOM     32  C   UNL     1      -5.913   0.790  26.416  0.00  0.00    +0.010 A 
ATOM     33  C   UNL     1      -5.732   3.406  25.353  0.00  0.00    +0.026 A 
ATOM     34  C   UNL     1      -6.468   1.881  27.094  0.00  0.00    +0.001 A 
ATOM     35  C   UNL     1      -6.378   3.169  26.569  0.00  0.00    +0.002 A 
ATOM     37  H   UNL     1      -4.293   3.033  22.900  0.00  0.00    +0.165 HD
ENDBRANCH  26  27
ENDBRANCH  24  26
ENDBRANCH   9  24
TORSDOF 7
ENDMDL
MODEL 3
REMARK VINA RESULT:       4.2      2.402      5.616
REMARK  Name = 7165012
REMARK  8 active torsions:
REMARK  status: ('A' for Active; 'I' for Inactive)
REMARK    1  A    between atoms: S_1  and  N_8
REMARK    2  A    between atoms: S_1  and  C_25
REMARK    3  A    between atoms: N_9  and  C_24
REMARK    4  A    between atoms: C_12  and  C_16
REMARK    5  A    between atoms: C_13  and  C_23
REMARK    6  A    between atoms: C_24  and  C_26
REMARK    7  A    between atoms: C_24  and  C_28
REMARK    8  A    between atoms: C_26  and  C_27
REMARK                            x       y       z     vdW  Elec       q    Type
REMARK                         _______ _______ _______ _____ _____    ______ ____
ROOT
ATOM      3  O   UNL     1       0.949   2.379  25.178  0.00  0.00    -0.274 OA
ATOM      9  N   UNL     1      -1.076   3.292  24.484  0.00  0.00    -0.302 N 
ATOM     23  C   UNL     1      -0.011   2.411  24.412  0.00  0.00    +0.235 C 
ATOM     36  H   UNL     1      -1.832   3.222  23.809  0.00  0.00    +0.150 HD
ENDROOT
BRANCH  23  13
ATOM      2  O   UNL     1      -2.934   1.185  22.901  0.00  0.00    -0.275 OA
ATOM      7  N   UNL     1      -0.960   0.321  23.779  0.00  0.00    -0.287 N 
ATOM      8  N   UNL     1       1.887   0.083  23.680  0.00  0.00    -0.178 NA
ATOM     13  C   UNL     1      -0.152   1.439  23.277  0.00  0.00    +0.177 C 
ATOM     16  C   UNL     1      -2.347   0.350  23.593  0.00  0.00    +0.219 C 
ATOM     19  C   UNL     1       1.204   1.005  22.726  0.00  0.00    +0.141 C 
ATOM     20  C   UNL     1      -0.257  -0.674  24.604  0.00  0.00    +0.125 C 
ATOM     22  C   UNL     1       1.052  -1.116  23.965  0.00  0.00    +0.128 C 
BRANCH  16  12
ATOM     12  C   UNL     1      -3.142  -0.715  24.289  0.00  0.00    +0.075 C 
ATOM     14  C   UNL     1      -2.899  -0.645  25.798  0.00  0.00    +0.013 C 
ATOM     15  C   UNL     1      -2.774  -2.090  23.726  0.00  0.00    +0.013 C 
ATOM     17  C   UNL     1      -3.615  -1.772  26.538  0.00  0.00    +0.001 C 
ATOM     18  C   UNL     1      -3.491  -3.214  24.470  0.00  0.00    +0.001 C 
ATOM     21  C   UNL     1      -3.243  -3.140  25.974  0.00  0.00    +0.000 C 
ENDBRANCH  16  12
BRANCH   8   1
ATOM      1  S   UNL     1       3.538  -0.229  23.345  0.00  0.00    +0.029 S 
ATOM      4  O   UNL     1       3.803  -1.630  23.584  0.00  0.00    -0.158 OA
ATOM      5  O   UNL     1       4.339   0.811  23.949  0.00  0.00    -0.158 OA
ATOM     25  C   UNL     1       3.525   0.036  21.591  0.00  0.00    +0.215 C 
ENDBRANCH   8   1
ENDBRANCH  23  13
BRANCH   9  24
ATOM     24  C   UNL     1      -1.192   4.312  25.501  0.00  0.00    +0.163 C 
BRANCH  24  28
ATOM      6  O   UNL     1       0.220   5.812  24.212  0.00  0.00    -0.274 OA
ATOM     11  N   UNL     1      -1.783   6.604  25.012  0.00  0.00    -0.328 N 
ATOM     28  C   UNL     1      -0.814   5.636  24.852  0.00  0.00    +0.231 C 
ATOM     38  H   UNL     1      -1.662   7.531  24.615  0.00  0.00    +0.145 HD
ATOM     39  H   UNL     1      -2.643   6.436  25.524  0.00  0.00    +0.145 HD
ENDBRANCH  24  28
BRANCH  24  26
ATOM     26  C   UNL     1      -2.607   4.388  26.090  0.00  0.00    +0.069 C 
BRANCH  26  27
ATOM     10  N   UNL     1      -4.817   3.189  23.409  0.00  0.00    -0.360 N 
ATOM     27  C   UNL     1      -3.647   3.761  25.205  0.00  0.00    -0.020 A 
ATOM     29  C   UNL     1      -4.707   2.906  25.619  0.00  0.00    +0.003 A 
ATOM     30  C   UNL     1      -3.740   3.915  23.842  0.00  0.00    +0.087 A 
ATOM     31  C   UNL     1      -5.426   2.562  24.472  0.00  0.00    +0.047 A 
ATOM     32  C   UNL     1      -5.125   2.391  26.862  0.00  0.00    +0.010 A 
ATOM     33  C   UNL     1      -6.546   1.724  24.507  0.00  0.00    +0.026 A 
ATOM     34  C   UNL     1      -6.245   1.552  26.912  0.00  0.00    +0.001 A 
ATOM     35  C   UNL     1      -6.943   1.225  25.751  0.00  0.00    +0.002 A 
ATOM     37  H   UNL     1      -5.121   3.120  22.447  0.00  0.00    +0.165 HD
ENDBRANCH  26  27
ENDBRANCH  24  26
ENDBRANCH   9  24
TORSDOF 7
ENDMDL
MODEL 4
REMARK VINA RESULT:       4.2      2.052      4.815
REMARK  Name = 7165012
REMARK  8 active torsions:
REMARK  status: ('A' for Active; 'I' for Inactive)
REMARK    1  A    between atoms: S_1  and  N_8
REMARK    2  A    between atoms: S_1  and  C_25
REMARK    3  A    between atoms: N_9  and  C_24
REMARK    4  A    between atoms: C_12  and  C_16
REMARK    5  A    between atoms: C_13  and  C_23
REMARK    6  A    between atoms: C_24  and  C_26
REMARK    7  A    between atoms: C_24  and  C_28
REMARK    8  A    between atoms: C_26  and  C_27
REMARK                            x       y       z     vdW  Elec       q    Type
REMARK                         _______ _______ _______ _____ _____    ______ ____
ROOT
ATOM      3  O   UNL     1      -0.947  -0.885  23.065  0.00  0.00    -0.274 OA
ATOM      9  N   UNL     1      -2.177  -0.693  25.032  0.00  0.00    -0.302 N 
ATOM     23  C   UNL     1      -1.032  -0.609  24.259  0.00  0.00    +0.235 C 
ATOM     36  H   UNL     1      -2.144  -0.422  26.010  0.00  0.00    +0.150 HD
ENDROOT
BRANCH  23  13
ATOM      2  O   UNL     1      -0.986   1.182  27.279  0.00  0.00    -0.275 OA
ATOM      7  N   UNL     1      -0.026   1.350  25.166  0.00  0.00    -0.287 N 
ATOM      8  N   UNL     1       1.711   0.295  23.155  0.00  0.00    -0.178 NA
ATOM     13  C   UNL     1       0.146  -0.102  25.040  0.00  0.00    +0.177 C 
ATOM     16  C   UNL     1      -0.673   1.860  26.297  0.00  0.00    +0.219 C 
ATOM     19  C   UNL     1       1.471  -0.501  24.395  0.00  0.00    +0.141 C 
ATOM     20  C   UNL     1       0.348   2.156  23.993  0.00  0.00    +0.125 C 
ATOM     22  C   UNL     1       1.710   1.756  23.442  0.00  0.00    +0.128 C 
BRANCH  16  12
ATOM     12  C   UNL     1      -0.992   3.326  26.287  0.00  0.00    +0.075 C 
ATOM     14  C   UNL     1      -2.495   3.534  26.485  0.00  0.00    +0.013 C 
ATOM     15  C   UNL     1      -0.507   3.954  24.978  0.00  0.00    +0.013 C 
ATOM     17  C   UNL     1      -2.878   5.008  26.386  0.00  0.00    +0.001 C 
ATOM     18  C   UNL     1      -0.895   5.428  24.883  0.00  0.00    +0.001 C 
ATOM     21  C   UNL     1      -2.394   5.629  25.079  0.00  0.00    +0.000 C 
ENDBRANCH  16  12
BRANCH   8   1
ATOM      1  S   UNL     1       2.992  -0.261  22.162  0.00  0.00    +0.029 S 
ATOM      4  O   UNL     1       2.546  -0.260  20.787  0.00  0.00    -0.158 OA
ATOM      5  O   UNL     1       3.576  -1.434  22.773  0.00  0.00    -0.158 OA
ATOM     25  C   UNL     1       4.121   1.091  22.375  0.00  0.00    +0.215 C 
ENDBRANCH   8   1
ENDBRANCH  23  13
BRANCH   9  24
ATOM     24  C   UNL     1      -3.452  -1.130  24.511  0.00  0.00    +0.163 C 
BRANCH  24  28
ATOM      6  O   UNL     1      -2.615  -3.334  25.103  0.00  0.00    -0.274 OA
ATOM     11  N   UNL     1      -4.436  -3.188  23.710  0.00  0.00    -0.328 N 
ATOM     28  C   UNL     1      -3.423  -2.651  24.477  0.00  0.00    +0.231 C 
ATOM     38  H   UNL     1      -4.539  -4.192  23.614  0.00  0.00    +0.145 HD
ATOM     39  H   UNL     1      -5.110  -2.611  23.217  0.00  0.00    +0.145 HD
ENDBRANCH  24  28
BRANCH  24  26
ATOM     26  C   UNL     1      -4.628  -0.635  25.363  0.00  0.00    +0.069 C 
BRANCH  26  27
ATOM     10  N   UNL     1      -5.864   2.827  25.344  0.00  0.00    -0.360 N 
ATOM     27  C   UNL     1      -4.943   0.817  25.144  0.00  0.00    -0.020 A 
ATOM     29  C   UNL     1      -4.338   1.681  24.189  0.00  0.00    +0.003 A 
ATOM     30  C   UNL     1      -5.877   1.550  25.839  0.00  0.00    +0.087 A 
ATOM     31  C   UNL     1      -4.933   2.935  24.335  0.00  0.00    +0.047 A 
ATOM     32  C   UNL     1      -3.337   1.516  23.211  0.00  0.00    +0.010 A 
ATOM     33  C   UNL     1      -4.577   4.037  23.549  0.00  0.00    +0.026 A 
ATOM     34  C   UNL     1      -2.970   2.609  22.417  0.00  0.00    +0.001 A 
ATOM     35  C   UNL     1      -3.582   3.850  22.586  0.00  0.00    +0.002 A 
ATOM     37  H   UNL     1      -6.452   3.581  25.671  0.00  0.00    +0.165 HD
ENDBRANCH  26  27
ENDBRANCH  24  26
ENDBRANCH   9  24
TORSDOF 7
ENDMDL
MODEL 5
REMARK VINA RESULT:       4.9      2.197      4.935
REMARK  Name = 7165012
REMARK  8 active torsions:
REMARK  status: ('A' for Active; 'I' for Inactive)
REMARK    1  A    between atoms: S_1  and  N_8
REMARK    2  A    between atoms: S_1  and  C_25
REMARK    3  A    between atoms: N_9  and  C_24
REMARK    4  A    between atoms: C_12  and  C_16
REMARK    5  A    between atoms: C_13  and  C_23
REMARK    6  A    between atoms: C_24  and  C_26
REMARK    7  A    between atoms: C_24  and  C_28
REMARK    8  A    between atoms: C_26  and  C_27
REMARK                            x       y       z     vdW  Elec       q    Type
REMARK                         _______ _______ _______ _____ _____    ______ ____
ROOT
ATOM      3  O   UNL     1      -0.746  -0.703  22.706  0.00  0.00    -0.274 OA
ATOM      9  N   UNL     1      -2.029  -0.992  24.626  0.00  0.00    -0.302 N 
ATOM     23  C   UNL     1      -0.877  -0.676  23.927  0.00  0.00    +0.235 C 
ATOM     36  H   UNL     1      -2.039  -0.919  25.639  0.00  0.00    +0.150 HD
ENDROOT
BRANCH  23  13
ATOM      2  O   UNL     1      -1.046   0.907  27.057  0.00  0.00    -0.275 OA
ATOM      7  N   UNL     1       0.091   1.190  25.047  0.00  0.00    -0.287 N 
ATOM      8  N   UNL     1       1.967   0.225  23.117  0.00  0.00    -0.178 NA
ATOM     13  C   UNL     1       0.242  -0.255  24.835  0.00  0.00    +0.177 C 
ATOM     16  C   UNL     1      -0.638   1.640  26.153  0.00  0.00    +0.219 C 
ATOM     19  C   UNL     1       1.607  -0.645  24.275  0.00  0.00    +0.141 C 
ATOM     20  C   UNL     1       0.579   2.062  23.967  0.00  0.00    +0.125 C 
ATOM     22  C   UNL     1       1.973   1.663  23.503  0.00  0.00    +0.128 C 
BRANCH  16  12
ATOM     12  C   UNL     1      -0.923   3.112  26.218  0.00  0.00    +0.075 C 
ATOM     14  C   UNL     1      -2.401   3.342  26.540  0.00  0.00    +0.013 C 
ATOM     15  C   UNL     1      -0.528   3.776  24.897  0.00  0.00    +0.013 C 
ATOM     17  C   UNL     1      -2.758   4.826  26.522  0.00  0.00    +0.001 C 
ATOM     18  C   UNL     1      -0.888   5.260  24.884  0.00  0.00    +0.001 C 
ATOM     21  C   UNL     1      -2.363   5.483  25.203  0.00  0.00    +0.000 C 
ENDBRANCH  16  12
BRANCH   8   1
ATOM      1  S   UNL     1       3.314  -0.298  22.197  0.00  0.00    +0.029 S 
ATOM      4  O   UNL     1       2.998  -0.159  20.792  0.00  0.00    -0.158 OA
ATOM      5  O   UNL     1       3.799  -1.542  22.749  0.00  0.00    -0.158 OA
ATOM     25  C   UNL     1       4.465   0.982  22.629  0.00  0.00    +0.215 C 
ENDBRANCH   8   1
ENDBRANCH  23  13
BRANCH   9  24
ATOM     24  C   UNL     1      -3.256  -1.404  23.983  0.00  0.00    +0.163 C 
BRANCH  24  28
ATOM      6  O   UNL     1      -3.933  -3.706  23.594  0.00  0.00    -0.274 OA
ATOM     11  N   UNL     1      -3.118  -3.135  25.665  0.00  0.00    -0.328 N 
ATOM     28  C   UNL     1      -3.495  -2.857  24.368  0.00  0.00    +0.231 C 
ATOM     38  H   UNL     1      -3.213  -4.071  26.045  0.00  0.00    +0.145 HD
ATOM     39  H   UNL     1      -2.737  -2.428  26.285  0.00  0.00    +0.145 HD
ENDBRANCH  24  28
BRANCH  24  26
ATOM     26  C   UNL     1      -4.451  -0.535  24.400  0.00  0.00    +0.069 C 
BRANCH  26  27
ATOM     10  N   UNL     1      -3.555   2.775  23.078  0.00  0.00    -0.360 N 
ATOM     27  C   UNL     1      -4.274   0.915  24.051  0.00  0.00    -0.020 A 
ATOM     29  C   UNL     1      -4.947   2.018  24.649  0.00  0.00    +0.003 A 
ATOM     30  C   UNL     1      -3.427   1.412  23.089  0.00  0.00    +0.087 A 
ATOM     31  C   UNL     1      -4.477   3.173  24.020  0.00  0.00    +0.047 A 
ATOM     32  C   UNL     1      -5.912   2.145  25.667  0.00  0.00    +0.010 A 
ATOM     33  C   UNL     1      -4.927   4.454  24.360  0.00  0.00    +0.026 A 
ATOM     34  C   UNL     1      -6.371   3.420  26.018  0.00  0.00    +0.001 A 
ATOM     35  C   UNL     1      -5.885   4.556  25.373  0.00  0.00    +0.002 A 
ATOM     37  H   UNL     1      -3.048   3.400  22.466  0.00  0.00    +0.165 HD
ENDBRANCH  26  27
ENDBRANCH  24  26
ENDBRANCH   9  24
TORSDOF 7
ENDMDL
MODEL 6
REMARK VINA RESULT:       5.9      2.436      5.471
REMARK  Name = 7165012
REMARK  8 active torsions:
REMARK  status: ('A' for Active; 'I' for Inactive)
REMARK    1  A    between atoms: S_1  and  N_8
REMARK    2  A    between atoms: S_1  and  C_25
REMARK    3  A    between atoms: N_9  and  C_24
REMARK    4  A    between atoms: C_12  and  C_16
REMARK    5  A    between atoms: C_13  and  C_23
REMARK    6  A    between atoms: C_24  and  C_26
REMARK    7  A    between atoms: C_24  and  C_28
REMARK    8  A    between atoms: C_26  and  C_27
REMARK                            x       y       z     vdW  Elec       q    Type
REMARK                         _______ _______ _______ _____ _____    ______ ____
ROOT
ATOM      3  O   UNL     1       2.306   2.500  23.534  0.00  0.00    -0.274 OA
ATOM      9  N   UNL     1       0.183   1.910  24.283  0.00  0.00    -0.302 N 
ATOM     23  C   UNL     1       1.341   1.740  23.544  0.00  0.00    +0.235 C 
ATOM     36  H   UNL     1      -0.551   1.210  24.234  0.00  0.00    +0.150 HD
ENDROOT
BRANCH  23  13
ATOM      2  O   UNL     1      -1.414  -0.151  22.463  0.00  0.00    -0.275 OA
ATOM      7  N   UNL     1       0.612  -0.527  23.544  0.00  0.00    -0.287 N 
ATOM      8  N   UNL     1       3.471  -0.500  23.505  0.00  0.00    -0.178 NA
ATOM     13  C   UNL     1       1.321   0.474  22.738  0.00  0.00    +0.177 C 
ATOM     16  C   UNL     1      -0.766  -0.690  23.364  0.00  0.00    +0.219 C 
ATOM     19  C   UNL     1       2.725   0.037  22.329  0.00  0.00    +0.141 C 
ATOM     20  C   UNL     1       1.388  -1.169  24.617  0.00  0.00    +0.125 C 
ATOM     22  C   UNL     1       2.748  -1.644  24.127  0.00  0.00    +0.128 C 
BRANCH  16  12
ATOM     12  C   UNL     1      -1.472  -1.584  24.340  0.00  0.00    +0.075 C 
ATOM     14  C   UNL     1      -2.826  -2.012  23.770  0.00  0.00    +0.013 C 
ATOM     15  C   UNL     1      -1.631  -0.865  25.682  0.00  0.00    +0.013 C 
ATOM     17  C   UNL     1      -3.620  -2.847  24.771  0.00  0.00    +0.001 C 
ATOM     18  C   UNL     1      -2.428  -1.704  26.679  0.00  0.00    +0.001 C 
ATOM     21  C   UNL     1      -3.778  -2.125  26.106  0.00  0.00    +0.000 C 
ENDBRANCH  16  12
BRANCH   8   1
ATOM      1  S   UNL     1       5.151  -0.731  23.267  0.00  0.00    +0.029 S 
ATOM      4  O   UNL     1       5.510  -0.218  21.963  0.00  0.00    -0.158 OA
ATOM      5  O   UNL     1       5.499  -2.072  23.680  0.00  0.00    -0.158 OA
ATOM     25  C   UNL     1       5.767   0.398  24.489  0.00  0.00    +0.215 C 
ENDBRANCH   8   1
ENDBRANCH  23  13
BRANCH   9  24
ATOM     24  C   UNL     1      -0.037   3.037  25.160  0.00  0.00    +0.163 C 
BRANCH  24  28
ATOM      6  O   UNL     1      -0.520   5.334  24.530  0.00  0.00    -0.274 OA
ATOM     11  N   UNL     1      -1.429   3.637  23.277  0.00  0.00    -0.328 N 
ATOM     28  C   UNL     1      -0.683   4.133  24.325  0.00  0.00    +0.231 C 
ATOM     38  H   UNL     1      -1.903   4.262  22.634  0.00  0.00    +0.145 HD
ATOM     39  H   UNL     1      -1.536   2.642  23.107  0.00  0.00    +0.145 HD
ENDBRANCH  24  28
BRANCH  24  26
ATOM     26  C   UNL     1      -0.930   2.677  26.356  0.00  0.00    +0.069 C 
BRANCH  26  27
ATOM     10  N   UNL     1      -4.075   4.579  26.368  0.00  0.00    -0.360 N 
ATOM     27  C   UNL     1      -2.324   3.222  26.234  0.00  0.00    -0.020 A 
ATOM     29  C   UNL     1      -3.448   2.556  25.667  0.00  0.00    +0.003 A 
ATOM     30  C   UNL     1      -2.742   4.463  26.654  0.00  0.00    +0.087 A 
ATOM     31  C   UNL     1      -4.533   3.429  25.764  0.00  0.00    +0.047 A 
ATOM     32  C   UNL     1      -3.645   1.291  25.079  0.00  0.00    +0.010 A 
ATOM     33  C   UNL     1      -5.811   3.099  25.300  0.00  0.00    +0.026 A 
ATOM     34  C   UNL     1      -4.919   0.946  24.611  0.00  0.00    +0.001 A 
ATOM     35  C   UNL     1      -5.984   1.838  24.721  0.00  0.00    +0.002 A 
ATOM     37  H   UNL     1      -4.643   5.391  26.568  0.00  0.00    +0.165 HD
ENDBRANCH  26  27
ENDBRANCH  24  26
ENDBRANCH   9  24
TORSDOF 7
ENDMDL
MODEL 7
REMARK VINA RESULT:       6.0      2.445      5.413
REMARK  Name = 7165012
REMARK  8 active torsions:
REMARK  status: ('A' for Active; 'I' for Inactive)
REMARK    1  A    between atoms: S_1  and  N_8
REMARK    2  A    between atoms: S_1  and  C_25
REMARK    3  A    between atoms: N_9  and  C_24
REMARK    4  A    between atoms: C_12  and  C_16
REMARK    5  A    between atoms: C_13  and  C_23
REMARK    6  A    between atoms: C_24  and  C_26
REMARK    7  A    between atoms: C_24  and  C_28
REMARK    8  A    between atoms: C_26  and  C_27
REMARK                            x       y       z     vdW  Elec       q    Type
REMARK                         _______ _______ _______ _____ _____    ______ ____
ROOT
ATOM      3  O   UNL     1       0.149   3.532  24.420  0.00  0.00    -0.274 OA
ATOM      9  N   UNL     1      -0.998   1.896  25.614  0.00  0.00    -0.302 N 
ATOM     23  C   UNL     1      -0.434   2.452  24.479  0.00  0.00    +0.235 C 
ATOM     36  H   UNL     1      -1.442   0.984  25.560  0.00  0.00    +0.150 HD
ENDROOT
BRANCH  23  13
ATOM      2  O   UNL     1      -3.367   1.271  22.950  0.00  0.00    -0.275 OA
ATOM      7  N   UNL     1      -1.351   0.392  23.712  0.00  0.00    -0.287 N 
ATOM      8  N   UNL     1       1.498   0.234  23.526  0.00  0.00    -0.178 NA
ATOM     13  C   UNL     1      -0.582   1.565  23.277  0.00  0.00    +0.177 C 
ATOM     16  C   UNL     1      -2.742   0.401  23.562  0.00  0.00    +0.219 C 
ATOM     19  C   UNL     1       0.769   1.208  22.662  0.00  0.00    +0.141 C 
ATOM     20  C   UNL     1      -0.603  -0.644  24.441  0.00  0.00    +0.125 C 
ATOM     22  C   UNL     1       0.699  -1.004  23.738  0.00  0.00    +0.128 C 
BRANCH  16  12
ATOM     12  C   UNL     1      -3.494  -0.734  24.194  0.00  0.00    +0.075 C 
ATOM     14  C   UNL     1      -2.727  -1.252  25.412  0.00  0.00    +0.013 C 
ATOM     15  C   UNL     1      -3.725  -1.842  23.164  0.00  0.00    +0.013 C 
ATOM     17  C   UNL     1      -3.409  -2.470  26.031  0.00  0.00    +0.001 C 
ATOM     18  C   UNL     1      -4.405  -3.059  23.788  0.00  0.00    +0.001 C 
ATOM     21  C   UNL     1      -3.635  -3.572  25.001  0.00  0.00    +0.000 C 
ENDBRANCH  16  12
BRANCH   8   1
ATOM      1  S   UNL     1       3.146  -0.011  23.128  0.00  0.00    +0.029 S 
ATOM      4  O   UNL     1       3.544  -1.323  23.586  0.00  0.00    -0.158 OA
ATOM      5  O   UNL     1       3.890   1.177  23.482  0.00  0.00    -0.158 OA
ATOM     25  C   UNL     1       3.004  -0.065  21.360  0.00  0.00    +0.215 C 
ENDBRANCH   8   1
ENDBRANCH  23  13
BRANCH   9  24
ATOM     24  C   UNL     1      -0.969   2.539  26.908  0.00  0.00    +0.163 C 
BRANCH  24  28
ATOM      6  O   UNL     1       1.385   3.049  26.580  0.00  0.00    -0.274 OA
ATOM     11  N   UNL     1       0.701   2.291  28.638  0.00  0.00    -0.328 N 
ATOM     28  C   UNL     1       0.492   2.646  27.321  0.00  0.00    +0.231 C 
ATOM     38  H   UNL     1       1.630   2.329  29.046  0.00  0.00    +0.145 HD
ATOM     39  H   UNL     1      -0.050   1.981  29.245  0.00  0.00    +0.145 HD
ENDBRANCH  24  28
BRANCH  24  26
ATOM     26  C   UNL     1      -1.621   3.928  26.881  0.00  0.00    +0.069 C 
BRANCH  26  27
ATOM     10  N   UNL     1      -3.849   4.771  24.083  0.00  0.00    -0.360 N 
ATOM     27  C   UNL     1      -2.691   4.056  25.836  0.00  0.00    -0.020 A 
ATOM     29  C   UNL     1      -3.858   3.249  25.714  0.00  0.00    +0.003 A 
ATOM     30  C   UNL     1      -2.714   4.981  24.818  0.00  0.00    +0.087 A 
ATOM     31  C   UNL     1      -4.567   3.719  24.607  0.00  0.00    +0.047 A 
ATOM     32  C   UNL     1      -4.380   2.162  26.442  0.00  0.00    +0.010 A 
ATOM     33  C   UNL     1      -5.777   3.154  24.189  0.00  0.00    +0.026 A 
ATOM     34  C   UNL     1      -5.590   1.586  26.036  0.00  0.00    +0.001 A 
ATOM     35  C   UNL     1      -6.276   2.076  24.927  0.00  0.00    +0.002 A 
ATOM     37  H   UNL     1      -4.122   5.309  23.271  0.00  0.00    +0.165 HD
ENDBRANCH  26  27
ENDBRANCH  24  26
ENDBRANCH   9  24
TORSDOF 7
ENDMDL
