MODEL 1
REMARK VINA RESULT:      -6.4      0.000      0.000
REMARK  Name = 75536689
REMARK  8 active torsions:
REMARK  status: ('A' for Active; 'I' for Inactive)
REMARK    1  A    between atoms: S_1  and  N_7
REMARK    2  A    between atoms: S_1  and  C_16
REMARK    3  A    between atoms: O_3  and  C_10
REMARK    4  A    between atoms: N_6  and  C_9
REMARK    5  A    between atoms: N_6  and  C_14
REMARK    6  A    between atoms: N_7  and  C_13
REMARK    7  A    between atoms: C_11  and  C_13
REMARK    8  A    between atoms: C_14  and  C_15
REMARK                            x       y       z     vdW  Elec       q    Type
REMARK                         _______ _______ _______ _____ _____    ______ ____
ROOT
ATOM      2  O   UNL     1      -0.347   3.323  25.618  0.00  0.00    -0.371 OA
ATOM      9  C   UNL     1       0.133   1.639  24.013  0.00  0.00    +0.111 C 
ATOM     10  C   UNL     1      -1.340   1.990  23.935  0.00  0.00    +0.164 C 
ATOM     11  C   UNL     1      -1.349   3.365  24.588  0.00  0.00    +0.164 C 
ATOM     12  C   UNL     1       0.500   2.185  25.384  0.00  0.00    +0.181 C 
ENDROOT
BRANCH  10   3
ATOM      3  O   UNL     1      -1.822   2.035  22.605  0.00  0.00    -0.388 OA
ATOM     27  H   UNL     1      -1.117   1.721  22.015  0.00  0.00    +0.210 HD
ENDBRANCH  10   3
BRANCH   9   6
ATOM      6  N   UNL     1       0.403   0.216  23.880  0.00  0.00    -0.305 NA
ATOM     26  H   UNL     1      -0.484  -0.284  23.800  0.00  0.00    +0.123 HD
BRANCH   6  14
ATOM     14  C   UNL     1       1.208  -0.058  22.696  0.00  0.00    +0.118 C 
BRANCH  14  15
ATOM      8  N   UNL     1       4.539  -1.418  23.872  0.00  0.00    -0.263 NA
ATOM     15  C   UNL     1       2.676  -0.132  23.022  0.00  0.00    -0.015 A 
ATOM     17  C   UNL     1       3.517   0.952  22.797  0.00  0.00    +0.008 A 
ATOM     18  C   UNL     1       3.231  -1.284  23.556  0.00  0.00    +0.115 A 
ATOM     21  C   UNL     1       4.868   0.853  23.109  0.00  0.00    +0.020 A 
ATOM     24  C   UNL     1       5.326  -0.342  23.639  0.00  0.00    +0.111 A 
ENDBRANCH  14  15
ENDBRANCH   6  14
ENDBRANCH   9   6
BRANCH  11  13
ATOM     13  C   UNL     1      -2.692   3.734  25.193  0.00  0.00    +0.140 C 
BRANCH  13   7
ATOM      7  N   UNL     1      -3.322   2.531  25.774  0.00  0.00    -0.187 NA
ATOM     28  H   UNL     1      -2.713   1.949  26.363  0.00  0.00    +0.148 HD
BRANCH   7   1
ATOM      1  S   UNL     1      -4.632   1.790  24.983  0.00  0.00    +0.058 S 
ATOM      4  O   UNL     1      -4.728   2.301  23.628  0.00  0.00    -0.153 OA
ATOM      5  O   UNL     1      -5.789   1.820  25.857  0.00  0.00    -0.153 OA
BRANCH   1  16
ATOM     16  C   UNL     1      -4.097   0.108  24.894  0.00  0.00    +0.105 A 
ATOM     19  C   UNL     1      -3.138  -0.367  25.789  0.00  0.00    +0.028 A 
ATOM     20  C   UNL     1      -4.631  -0.744  23.927  0.00  0.00    +0.028 A 
ATOM     22  C   UNL     1      -2.713  -1.694  25.717  0.00  0.00    +0.002 A 
ATOM     23  C   UNL     1      -4.204  -2.071  23.855  0.00  0.00    +0.002 A 
ATOM     25  C   UNL     1      -3.247  -2.545  24.750  0.00  0.00    +0.000 A 
ENDBRANCH   1  16
ENDBRANCH   7   1
ENDBRANCH  13   7
ENDBRANCH  11  13
TORSDOF 8
ENDMDL
MODEL 2
REMARK VINA RESULT:      -5.3      1.686      3.737
REMARK  Name = 75536689
REMARK  8 active torsions:
REMARK  status: ('A' for Active; 'I' for Inactive)
REMARK    1  A    between atoms: S_1  and  N_7
REMARK    2  A    between atoms: S_1  and  C_16
REMARK    3  A    between atoms: O_3  and  C_10
REMARK    4  A    between atoms: N_6  and  C_9
REMARK    5  A    between atoms: N_6  and  C_14
REMARK    6  A    between atoms: N_7  and  C_13
REMARK    7  A    between atoms: C_11  and  C_13
REMARK    8  A    between atoms: C_14  and  C_15
REMARK                            x       y       z     vdW  Elec       q    Type
REMARK                         _______ _______ _______ _____ _____    ______ ____
ROOT
ATOM      2  O   UNL     1      -1.910  -2.316  24.098  0.00  0.00    -0.371 OA
ATOM      9  C   UNL     1      -0.075  -0.842  24.416  0.00  0.00    +0.111 C 
ATOM     10  C   UNL     1      -1.251  -0.352  25.239  0.00  0.00    +0.164 C 
ATOM     11  C   UNL     1      -2.085  -1.622  25.344  0.00  0.00    +0.164 C 
ATOM     12  C   UNL     1      -0.766  -1.764  23.425  0.00  0.00    +0.181 C 
ENDROOT
BRANCH  10   3
ATOM      3  O   UNL     1      -0.864   0.132  26.512  0.00  0.00    -0.388 OA
ATOM     27  H   UNL     1      -0.767   1.097  26.455  0.00  0.00    +0.210 HD
ENDBRANCH  10   3
BRANCH   9   6
ATOM      6  N   UNL     1       0.671   0.226  23.770  0.00  0.00    -0.305 NA
ATOM     26  H   UNL     1       1.268   0.681  24.463  0.00  0.00    +0.123 HD
BRANCH   6  14
ATOM     14  C   UNL     1       1.507  -0.294  22.694  0.00  0.00    +0.118 C 
BRANCH  14  15
ATOM      8  N   UNL     1       4.911  -1.357  23.966  0.00  0.00    -0.263 NA
ATOM     15  C   UNL     1       2.970  -0.244  23.049  0.00  0.00    -0.015 A 
ATOM     17  C   UNL     1       3.728   0.897  22.810  0.00  0.00    +0.008 A 
ATOM     18  C   UNL     1       3.603  -1.335  23.624  0.00  0.00    +0.115 A 
ATOM     21  C   UNL     1       5.076   0.913  23.149  0.00  0.00    +0.020 A 
ATOM     24  C   UNL     1       5.615  -0.229  23.719  0.00  0.00    +0.111 A 
ENDBRANCH  14  15
ENDBRANCH   6  14
ENDBRANCH   9   6
BRANCH  11  13
ATOM     13  C   UNL     1      -3.561  -1.353  25.580  0.00  0.00    +0.140 C 
BRANCH  13   7
ATOM      7  N   UNL     1      -3.768   0.087  25.836  0.00  0.00    -0.187 NA
ATOM     28  H   UNL     1      -4.049   0.333  26.793  0.00  0.00    +0.148 HD
BRANCH   7   1
ATOM      1  S   UNL     1      -4.227   1.120  24.565  0.00  0.00    +0.058 S 
ATOM      4  O   UNL     1      -5.600   1.545  24.763  0.00  0.00    -0.153 OA
ATOM      5  O   UNL     1      -3.821   0.528  23.305  0.00  0.00    -0.153 OA
BRANCH   1  16
ATOM     16  C   UNL     1      -3.180   2.518  24.840  0.00  0.00    +0.105 A 
ATOM     19  C   UNL     1      -1.960   2.617  24.172  0.00  0.00    +0.028 A 
ATOM     20  C   UNL     1      -3.573   3.520  25.728  0.00  0.00    +0.028 A 
ATOM     22  C   UNL     1      -1.132   3.718  24.391  0.00  0.00    +0.002 A 
ATOM     23  C   UNL     1      -2.744   4.620  25.947  0.00  0.00    +0.002 A 
ATOM     25  C   UNL     1      -1.525   4.720  25.279  0.00  0.00    +0.000 A 
ENDBRANCH   1  16
ENDBRANCH   7   1
ENDBRANCH  13   7
ENDBRANCH  11  13
TORSDOF 8
ENDMDL
MODEL 3
REMARK VINA RESULT:      -5.0      2.721      5.668
REMARK  Name = 75536689
REMARK  8 active torsions:
REMARK  status: ('A' for Active; 'I' for Inactive)
REMARK    1  A    between atoms: S_1  and  N_7
REMARK    2  A    between atoms: S_1  and  C_16
REMARK    3  A    between atoms: O_3  and  C_10
REMARK    4  A    between atoms: N_6  and  C_9
REMARK    5  A    between atoms: N_6  and  C_14
REMARK    6  A    between atoms: N_7  and  C_13
REMARK    7  A    between atoms: C_11  and  C_13
REMARK    8  A    between atoms: C_14  and  C_15
REMARK                            x       y       z     vdW  Elec       q    Type
REMARK                         _______ _______ _______ _____ _____    ______ ____
ROOT
ATOM      2  O   UNL     1      -2.309   3.384  23.405  0.00  0.00    -0.371 OA
ATOM      9  C   UNL     1      -4.492   2.671  24.009  0.00  0.00    +0.111 C 
ATOM     10  C   UNL     1      -3.943   3.562  25.106  0.00  0.00    +0.164 C 
ATOM     11  C   UNL     1      -2.855   4.316  24.354  0.00  0.00    +0.164 C 
ATOM     12  C   UNL     1      -3.220   2.280  23.273  0.00  0.00    +0.181 C 
ENDROOT
BRANCH  10   3
ATOM      3  O   UNL     1      -4.919   4.438  25.639  0.00  0.00    -0.388 OA
ATOM     27  H   UNL     1      -4.655   5.350  25.434  0.00  0.00    +0.210 HD
ENDBRANCH  10   3
BRANCH   9   6
ATOM      6  N   UNL     1      -5.234   1.522  24.506  0.00  0.00    -0.305 NA
ATOM     26  H   UNL     1      -5.386   0.867  23.738  0.00  0.00    +0.123 HD
BRANCH   6  14
ATOM     14  C   UNL     1      -4.501   0.844  25.568  0.00  0.00    +0.118 C 
BRANCH  14  15
ATOM      8  N   UNL     1      -3.172  -2.693  25.810  0.00  0.00    -0.263 NA
ATOM     15  C   UNL     1      -4.145  -0.569  25.187  0.00  0.00    -0.015 A 
ATOM     17  C   UNL     1      -4.433  -1.065  23.920  0.00  0.00    +0.008 A 
ATOM     18  C   UNL     1      -3.519  -1.416  26.088  0.00  0.00    +0.115 A 
ATOM     21  C   UNL     1      -4.092  -2.373  23.597  0.00  0.00    +0.020 A 
ATOM     24  C   UNL     1      -3.469  -3.140  24.568  0.00  0.00    +0.111 A 
ENDBRANCH  14  15
ENDBRANCH   6  14
ENDBRANCH   9   6
BRANCH  11  13
ATOM     13  C   UNL     1      -1.750   4.836  25.257  0.00  0.00    +0.140 C 
BRANCH  13   7
ATOM      7  N   UNL     1      -0.541   4.004  25.091  0.00  0.00    -0.187 NA
ATOM     28  H   UNL     1      -0.143   3.980  24.144  0.00  0.00    +0.148 HD
BRANCH   7   1
ATOM      1  S   UNL     1      -0.276   2.673  26.116  0.00  0.00    +0.058 S 
ATOM      4  O   UNL     1      -1.494   2.377  26.846  0.00  0.00    -0.153 OA
ATOM      5  O   UNL     1       0.973   2.867  26.828  0.00  0.00    -0.153 OA
BRANCH   1  16
ATOM     16  C   UNL     1      -0.009   1.369  24.953  0.00  0.00    +0.105 A 
ATOM     19  C   UNL     1      -0.676   0.153  25.103  0.00  0.00    +0.028 A 
ATOM     20  C   UNL     1       0.872   1.554  23.887  0.00  0.00    +0.028 A 
ATOM     22  C   UNL     1      -0.463  -0.877  24.187  0.00  0.00    +0.002 A 
ATOM     23  C   UNL     1       1.086   0.523  22.972  0.00  0.00    +0.002 A 
ATOM     25  C   UNL     1       0.418  -0.692  23.122  0.00  0.00    +0.000 A 
ENDBRANCH   1  16
ENDBRANCH   7   1
ENDBRANCH  13   7
ENDBRANCH  11  13
TORSDOF 8
ENDMDL
MODEL 4
REMARK VINA RESULT:      -4.7      2.146      6.735
REMARK  Name = 75536689
REMARK  8 active torsions:
REMARK  status: ('A' for Active; 'I' for Inactive)
REMARK    1  A    between atoms: S_1  and  N_7
REMARK    2  A    between atoms: S_1  and  C_16
REMARK    3  A    between atoms: O_3  and  C_10
REMARK    4  A    between atoms: N_6  and  C_9
REMARK    5  A    between atoms: N_6  and  C_14
REMARK    6  A    between atoms: N_7  and  C_13
REMARK    7  A    between atoms: C_11  and  C_13
REMARK    8  A    between atoms: C_14  and  C_15
REMARK                            x       y       z     vdW  Elec       q    Type
REMARK                         _______ _______ _______ _____ _____    ______ ____
ROOT
ATOM      2  O   UNL     1      -1.515   2.404  22.975  0.00  0.00    -0.371 OA
ATOM      9  C   UNL     1      -3.108   2.759  24.701  0.00  0.00    +0.111 C 
ATOM     10  C   UNL     1      -1.763   2.442  25.327  0.00  0.00    +0.164 C 
ATOM     11  C   UNL     1      -0.820   2.772  24.178  0.00  0.00    +0.164 C 
ATOM     12  C   UNL     1      -2.910   2.242  23.285  0.00  0.00    +0.181 C 
ENDROOT
BRANCH  10   3
ATOM      3  O   UNL     1      -1.495   3.228  26.472  0.00  0.00    -0.388 OA
ATOM     27  H   UNL     1      -2.235   3.845  26.599  0.00  0.00    +0.210 HD
ENDBRANCH  10   3
BRANCH   9   6
ATOM      6  N   UNL     1      -4.231   2.133  25.380  0.00  0.00    -0.305 NA
ATOM     26  H   UNL     1      -4.910   2.852  25.633  0.00  0.00    +0.123 HD
BRANCH   6  14
ATOM     14  C   UNL     1      -4.883   1.150  24.521  0.00  0.00    +0.118 C 
BRANCH  14  15
ATOM      8  N   UNL     1      -3.118  -1.787  26.132  0.00  0.00    -0.263 NA
ATOM     15  C   UNL     1      -4.317  -0.230  24.721  0.00  0.00    -0.015 A 
ATOM     17  C   UNL     1      -4.447  -1.208  23.741  0.00  0.00    +0.008 A 
ATOM     18  C   UNL     1      -3.650  -0.567  25.889  0.00  0.00    +0.115 A 
ATOM     21  C   UNL     1      -3.913  -2.474  23.954  0.00  0.00    +0.020 A 
ATOM     24  C   UNL     1      -3.265  -2.711  25.155  0.00  0.00    +0.111 A 
ENDBRANCH  14  15
ENDBRANCH   6  14
ENDBRANCH   9   6
BRANCH  11  13
ATOM     13  C   UNL     1       0.502   2.028  24.254  0.00  0.00    +0.140 C 
BRANCH  13   7
ATOM      7  N   UNL     1       0.854   1.505  22.919  0.00  0.00    -0.187 NA
ATOM     28  H   UNL     1       0.468   2.023  22.121  0.00  0.00    +0.148 HD
BRANCH   7   1
ATOM      1  S   UNL     1       1.209  -0.147  22.718  0.00  0.00    +0.058 S 
ATOM      4  O   UNL     1       1.058  -0.504  21.320  0.00  0.00    -0.153 OA
ATOM      5  O   UNL     1       0.519  -0.906  23.744  0.00  0.00    -0.153 OA
BRANCH   1  16
ATOM     16  C   UNL     1       2.931  -0.198  23.110  0.00  0.00    +0.105 A 
ATOM     19  C   UNL     1       3.493  -1.361  23.637  0.00  0.00    +0.028 A 
ATOM     20  C   UNL     1       3.729   0.927  22.896  0.00  0.00    +0.028 A 
ATOM     22  C   UNL     1       4.852  -1.400  23.949  0.00  0.00    +0.002 A 
ATOM     23  C   UNL     1       5.088   0.887  23.210  0.00  0.00    +0.002 A 
ATOM     25  C   UNL     1       5.649  -0.276  23.735  0.00  0.00    +0.000 A 
ENDBRANCH   1  16
ENDBRANCH   7   1
ENDBRANCH  13   7
ENDBRANCH  11  13
TORSDOF 8
ENDMDL
MODEL 5
REMARK VINA RESULT:      -4.4      2.909      6.082
REMARK  Name = 75536689
REMARK  8 active torsions:
REMARK  status: ('A' for Active; 'I' for Inactive)
REMARK    1  A    between atoms: S_1  and  N_7
REMARK    2  A    between atoms: S_1  and  C_16
REMARK    3  A    between atoms: O_3  and  C_10
REMARK    4  A    between atoms: N_6  and  C_9
REMARK    5  A    between atoms: N_6  and  C_14
REMARK    6  A    between atoms: N_7  and  C_13
REMARK    7  A    between atoms: C_11  and  C_13
REMARK    8  A    between atoms: C_14  and  C_15
REMARK                            x       y       z     vdW  Elec       q    Type
REMARK                         _______ _______ _______ _____ _____    ______ ____
ROOT
ATOM      2  O   UNL     1       0.397   3.463  23.488  0.00  0.00    -0.371 OA
ATOM      9  C   UNL     1      -0.880   4.188  25.355  0.00  0.00    +0.111 C 
ATOM     10  C   UNL     1      -0.591   2.706  25.499  0.00  0.00    +0.164 C 
ATOM     11  C   UNL     1       0.611   2.550  24.577  0.00  0.00    +0.164 C 
ATOM     12  C   UNL     1      -0.623   4.402  23.872  0.00  0.00    +0.181 C 
ENDROOT
BRANCH  10   3
ATOM      3  O   UNL     1      -0.286   2.336  26.831  0.00  0.00    -0.388 OA
ATOM     27  H   UNL     1      -0.395   3.117  27.397  0.00  0.00    +0.210 HD
ENDBRANCH  10   3
BRANCH   9   6
ATOM      6  N   UNL     1      -2.227   4.562  25.756  0.00  0.00    -0.305 NA
ATOM     26  H   UNL     1      -2.232   5.546  26.026  0.00  0.00    +0.123 HD
BRANCH   6  14
ATOM     14  C   UNL     1      -3.173   4.367  24.663  0.00  0.00    +0.118 C 
BRANCH  14  15
ATOM      8  N   UNL     1      -5.902   2.753  26.732  0.00  0.00    -0.263 NA
ATOM     15  C   UNL     1      -4.304   3.456  25.058  0.00  0.00    -0.015 A 
ATOM     17  C   UNL     1      -4.800   2.503  24.175  0.00  0.00    +0.008 A 
ATOM     18  C   UNL     1      -4.884   3.540  26.314  0.00  0.00    +0.115 A 
ATOM     21  C   UNL     1      -5.845   1.675  24.568  0.00  0.00    +0.020 A 
ATOM     24  C   UNL     1      -6.357   1.839  25.845  0.00  0.00    +0.111 A 
ENDBRANCH  14  15
ENDBRANCH   6  14
ENDBRANCH   9   6
BRANCH  11  13
ATOM     13  C   UNL     1       0.777   1.140  24.040  0.00  0.00    +0.140 C 
BRANCH  13   7
ATOM      7  N   UNL     1      -0.514   0.427  24.112  0.00  0.00    -0.187 NA
ATOM     28  H   UNL     1      -1.343   0.980  23.865  0.00  0.00    +0.148 HD
BRANCH   7   1
ATOM      1  S   UNL     1      -0.704  -0.887  25.176  0.00  0.00    +0.058 S 
ATOM      4  O   UNL     1      -0.888  -0.390  26.526  0.00  0.00    -0.153 OA
ATOM      5  O   UNL     1       0.323  -1.873  24.895  0.00  0.00    -0.153 OA
BRANCH   1  16
ATOM     16  C   UNL     1      -2.240  -1.573  24.633  0.00  0.00    +0.105 A 
ATOM     19  C   UNL     1      -2.406  -2.957  24.581  0.00  0.00    +0.028 A 
ATOM     20  C   UNL     1      -3.284  -0.730  24.253  0.00  0.00    +0.028 A 
ATOM     22  C   UNL     1      -3.617  -3.498  24.150  0.00  0.00    +0.002 A 
ATOM     23  C   UNL     1      -4.495  -1.272  23.822  0.00  0.00    +0.002 A 
ATOM     25  C   UNL     1      -4.661  -2.656  23.770  0.00  0.00    +0.000 A 
ENDBRANCH   1  16
ENDBRANCH   7   1
ENDBRANCH  13   7
ENDBRANCH  11  13
TORSDOF 8
ENDMDL
MODEL 6
REMARK VINA RESULT:      -3.8     17.557     19.167
REMARK  Name = 75536689
REMARK  8 active torsions:
REMARK  status: ('A' for Active; 'I' for Inactive)
REMARK    1  A    between atoms: S_1  and  N_7
REMARK    2  A    between atoms: S_1  and  C_16
REMARK    3  A    between atoms: O_3  and  C_10
REMARK    4  A    between atoms: N_6  and  C_9
REMARK    5  A    between atoms: N_6  and  C_14
REMARK    6  A    between atoms: N_7  and  C_13
REMARK    7  A    between atoms: C_11  and  C_13
REMARK    8  A    between atoms: C_14  and  C_15
REMARK                            x       y       z     vdW  Elec       q    Type
REMARK                         _______ _______ _______ _____ _____    ______ ____
ROOT
ATOM      2  O   UNL     1      15.134  -7.812  27.921  0.00  0.00    -0.371 OA
ATOM      9  C   UNL     1      16.398  -7.155  26.020  0.00  0.00    +0.111 C 
ATOM     10  C   UNL     1      16.977  -8.441  26.578  0.00  0.00    +0.164 C 
ATOM     11  C   UNL     1      15.798  -8.968  27.384  0.00  0.00    +0.164 C 
ATOM     12  C   UNL     1      15.588  -6.651  27.203  0.00  0.00    +0.181 C 
ENDROOT
BRANCH  10   3
ATOM      3  O   UNL     1      17.372  -9.347  25.566  0.00  0.00    -0.388 OA
ATOM     27  H   UNL     1      16.899  -9.117  24.749  0.00  0.00    +0.210 HD
ENDBRANCH  10   3
BRANCH   9   6
ATOM      6  N   UNL     1      17.405  -6.204  25.577  0.00  0.00    -0.305 NA
ATOM     26  H   UNL     1      18.313  -6.670  25.549  0.00  0.00    +0.123 HD
BRANCH   6  14
ATOM     14  C   UNL     1      17.096  -5.692  24.247  0.00  0.00    +0.118 C 
BRANCH  14  15
ATOM      8  N   UNL     1      17.327  -2.094  25.401  0.00  0.00    -0.263 NA
ATOM     15  C   UNL     1      17.042  -4.188  24.226  0.00  0.00    -0.015 A 
ATOM     17  C   UNL     1      16.678  -3.499  23.074  0.00  0.00    +0.008 A 
ATOM     18  C   UNL     1      17.355  -3.445  25.353  0.00  0.00    +0.115 A 
ATOM     21  C   UNL     1      16.637  -2.110  23.084  0.00  0.00    +0.020 A 
ATOM     24  C   UNL     1      16.967  -1.460  24.262  0.00  0.00    +0.111 A 
ENDBRANCH  14  15
ENDBRANCH   6  14
ENDBRANCH   9   6
BRANCH  11  13
ATOM     13  C   UNL     1      16.209  -9.895  28.514  0.00  0.00    +0.140 C 
BRANCH  13   7
ATOM      7  N   UNL     1      15.148  -9.928  29.540  0.00  0.00    -0.187 NA
ATOM     28  H   UNL     1      14.185  -9.975  29.184  0.00  0.00    +0.148 HD
BRANCH   7   1
ATOM      1  S   UNL     1      15.414  -9.222  31.065  0.00  0.00    +0.058 S 
ATOM      4  O   UNL     1      16.732  -8.614  31.089  0.00  0.00    -0.153 OA
ATOM      5  O   UNL     1      15.027 -10.165  32.096  0.00  0.00    -0.153 OA
BRANCH   1  16
ATOM     16  C   UNL     1      14.215  -7.923  31.077  0.00  0.00    +0.105 A 
ATOM     19  C   UNL     1      14.626  -6.595  31.195  0.00  0.00    +0.028 A 
ATOM     20  C   UNL     1      12.858  -8.226  30.971  0.00  0.00    +0.028 A 
ATOM     22  C   UNL     1      13.680  -5.571  31.208  0.00  0.00    +0.002 A 
ATOM     23  C   UNL     1      11.912  -7.201  30.985  0.00  0.00    +0.002 A 
ATOM     25  C   UNL     1      12.323  -5.874  31.103  0.00  0.00    +0.000 A 
ENDBRANCH   1  16
ENDBRANCH   7   1
ENDBRANCH  13   7
ENDBRANCH  11  13
TORSDOF 8
ENDMDL
MODEL 7
REMARK VINA RESULT:      -3.6      1.802      4.163
REMARK  Name = 75536689
REMARK  8 active torsions:
REMARK  status: ('A' for Active; 'I' for Inactive)
REMARK    1  A    between atoms: S_1  and  N_7
REMARK    2  A    between atoms: S_1  and  C_16
REMARK    3  A    between atoms: O_3  and  C_10
REMARK    4  A    between atoms: N_6  and  C_9
REMARK    5  A    between atoms: N_6  and  C_14
REMARK    6  A    between atoms: N_7  and  C_13
REMARK    7  A    between atoms: C_11  and  C_13
REMARK    8  A    between atoms: C_14  and  C_15
REMARK                            x       y       z     vdW  Elec       q    Type
REMARK                         _______ _______ _______ _____ _____    ______ ____
ROOT
ATOM      2  O   UNL     1      -3.633  -2.230  24.872  0.00  0.00    -0.371 OA
ATOM      9  C   UNL     1      -1.283  -1.888  24.881  0.00  0.00    +0.111 C 
ATOM     10  C   UNL     1      -1.972  -0.593  25.268  0.00  0.00    +0.164 C 
ATOM     11  C   UNL     1      -3.332  -1.109  25.720  0.00  0.00    +0.164 C 
ATOM     12  C   UNL     1      -2.421  -2.649  24.222  0.00  0.00    +0.181 C 
ENDROOT
BRANCH  10   3
ATOM      3  O   UNL     1      -1.298   0.095  26.305  0.00  0.00    -0.388 OA
ATOM     27  H   UNL     1      -1.657  -0.207  27.156  0.00  0.00    +0.210 HD
ENDBRANCH  10   3
BRANCH   9   6
ATOM      6  N   UNL     1      -0.141  -1.701  24.000  0.00  0.00    -0.305 NA
ATOM     26  H   UNL     1      -0.184  -2.392  23.250  0.00  0.00    +0.123 HD
BRANCH   6  14
ATOM     14  C   UNL     1      -0.144  -0.366  23.413  0.00  0.00    +0.118 C 
BRANCH  14  15
ATOM      8  N   UNL     1       3.175   1.453  23.357  0.00  0.00    -0.263 NA
ATOM     15  C   UNL     1       1.235   0.059  22.984  0.00  0.00    -0.015 A 
ATOM     17  C   UNL     1       1.845  -0.505  21.870  0.00  0.00    +0.008 A 
ATOM     18  C   UNL     1       1.935   1.026  23.688  0.00  0.00    +0.115 A 
ATOM     21  C   UNL     1       3.120  -0.091  21.497  0.00  0.00    +0.020 A 
ATOM     24  C   UNL     1       3.736   0.881  22.267  0.00  0.00    +0.111 A 
ENDBRANCH  14  15
ENDBRANCH   6  14
ENDBRANCH   9   6
BRANCH  11  13
ATOM     13  C   UNL     1      -4.434  -0.070  25.609  0.00  0.00    +0.140 C 
BRANCH  13   7
ATOM      7  N   UNL     1      -4.101   0.895  24.542  0.00  0.00    -0.187 NA
ATOM     28  H   UNL     1      -3.286   0.656  23.963  0.00  0.00    +0.148 HD
BRANCH   7   1
ATOM      1  S   UNL     1      -4.518   2.535  24.717  0.00  0.00    +0.058 S 
ATOM      4  O   UNL     1      -5.130   2.740  26.017  0.00  0.00    -0.153 OA
ATOM      5  O   UNL     1      -5.194   2.981  23.514  0.00  0.00    -0.153 OA
BRANCH   1  16
ATOM     16  C   UNL     1      -2.930   3.312  24.734  0.00  0.00    +0.105 A 
ATOM     19  C   UNL     1      -1.824   2.652  24.198  0.00  0.00    +0.028 A 
ATOM     20  C   UNL     1      -2.782   4.585  25.287  0.00  0.00    +0.028 A 
ATOM     22  C   UNL     1      -0.571   3.263  24.215  0.00  0.00    +0.002 A 
ATOM     23  C   UNL     1      -1.528   5.196  25.303  0.00  0.00    +0.002 A 
ATOM     25  C   UNL     1      -0.423   4.535  24.768  0.00  0.00    +0.000 A 
ENDBRANCH   1  16
ENDBRANCH   7   1
ENDBRANCH  13   7
ENDBRANCH  11  13
TORSDOF 8
ENDMDL
MODEL 8
REMARK VINA RESULT:      -3.1     17.395     19.158
REMARK  Name = 75536689
REMARK  8 active torsions:
REMARK  status: ('A' for Active; 'I' for Inactive)
REMARK    1  A    between atoms: S_1  and  N_7
REMARK    2  A    between atoms: S_1  and  C_16
REMARK    3  A    between atoms: O_3  and  C_10
REMARK    4  A    between atoms: N_6  and  C_9
REMARK    5  A    between atoms: N_6  and  C_14
REMARK    6  A    between atoms: N_7  and  C_13
REMARK    7  A    between atoms: C_11  and  C_13
REMARK    8  A    between atoms: C_14  and  C_15
REMARK                            x       y       z     vdW  Elec       q    Type
REMARK                         _______ _______ _______ _____ _____    ______ ____
ROOT
ATOM      2  O   UNL     1      15.175  -8.314  27.857  0.00  0.00    -0.371 OA
ATOM      9  C   UNL     1      16.980  -7.335  29.050  0.00  0.00    +0.111 C 
ATOM     10  C   UNL     1      16.401  -8.471  29.873  0.00  0.00    +0.164 C 
ATOM     11  C   UNL     1      15.682  -9.275  28.799  0.00  0.00    +0.164 C 
ATOM     12  C   UNL     1      15.845  -7.062  28.076  0.00  0.00    +0.181 C 
ENDROOT
BRANCH  10   3
ATOM      3  O   UNL     1      17.397  -9.235  30.526  0.00  0.00    -0.388 OA
ATOM     27  H   UNL     1      18.155  -8.656  30.711  0.00  0.00    +0.210 HD
ENDBRANCH  10   3
BRANCH   9   6
ATOM      6  N   UNL     1      17.343  -6.168  29.839  0.00  0.00    -0.305 NA
ATOM     26  H   UNL     1      18.358  -6.140  29.942  0.00  0.00    +0.123 HD
BRANCH   6  14
ATOM     14  C   UNL     1      16.900  -4.939  29.192  0.00  0.00    +0.118 C 
BRANCH  14  15
ATOM      8  N   UNL     1      16.729  -1.477  30.715  0.00  0.00    -0.263 NA
ATOM     15  C   UNL     1      16.661  -3.837  30.189  0.00  0.00    -0.015 A 
ATOM     17  C   UNL     1      16.174  -4.114  31.461  0.00  0.00    +0.008 A 
ATOM     18  C   UNL     1      16.921  -2.514  29.867  0.00  0.00    +0.115 A 
ATOM     21  C   UNL     1      15.964  -3.075  32.361  0.00  0.00    +0.020 A 
ATOM     24  C   UNL     1      16.254  -1.786  31.943  0.00  0.00    +0.111 A 
ENDBRANCH  14  15
ENDBRANCH   6  14
ENDBRANCH   9   6
BRANCH  11  13
ATOM     13  C   UNL     1      14.539 -10.114  29.342  0.00  0.00    +0.140 C 
BRANCH  13   7
ATOM      7  N   UNL     1      14.391  -9.873  30.791  0.00  0.00    -0.187 NA
ATOM     28  H   UNL     1      15.195 -10.142  31.372  0.00  0.00    +0.148 HD
BRANCH   7   1
ATOM      1  S   UNL     1      12.845  -9.865  31.500  0.00  0.00    +0.058 S 
ATOM      4  O   UNL     1      12.929 -10.406  32.844  0.00  0.00    -0.153 OA
ATOM      5  O   UNL     1      11.889 -10.408  30.553  0.00  0.00    -0.153 OA
BRANCH   1  16
ATOM     16  C   UNL     1      12.515  -8.134  31.630  0.00  0.00    +0.105 A 
ATOM     19  C   UNL     1      13.212  -7.229  30.829  0.00  0.00    +0.028 A 
ATOM     20  C   UNL     1      11.560  -7.671  32.536  0.00  0.00    +0.028 A 
ATOM     22  C   UNL     1      12.955  -5.862  30.933  0.00  0.00    +0.002 A 
ATOM     23  C   UNL     1      11.304  -6.304  32.641  0.00  0.00    +0.002 A 
ATOM     25  C   UNL     1      12.000  -5.400  31.840  0.00  0.00    +0.000 A 
ENDBRANCH   1  16
ENDBRANCH   7   1
ENDBRANCH  13   7
ENDBRANCH  11  13
TORSDOF 8
ENDMDL
MODEL 9
REMARK VINA RESULT:      -3.0      1.842      2.316
REMARK  Name = 75536689
REMARK  8 active torsions:
REMARK  status: ('A' for Active; 'I' for Inactive)
REMARK    1  A    between atoms: S_1  and  N_7
REMARK    2  A    between atoms: S_1  and  C_16
REMARK    3  A    between atoms: O_3  and  C_10
REMARK    4  A    between atoms: N_6  and  C_9
REMARK    5  A    between atoms: N_6  and  C_14
REMARK    6  A    between atoms: N_7  and  C_13
REMARK    7  A    between atoms: C_11  and  C_13
REMARK    8  A    between atoms: C_14  and  C_15
REMARK                            x       y       z     vdW  Elec       q    Type
REMARK                         _______ _______ _______ _____ _____    ______ ____
ROOT
ATOM      2  O   UNL     1      -0.718   0.288  25.948  0.00  0.00    -0.371 OA
ATOM      9  C   UNL     1       0.641   0.015  24.020  0.00  0.00    +0.111 C 
ATOM     10  C   UNL     1       0.345   1.491  24.211  0.00  0.00    +0.164 C 
ATOM     11  C   UNL     1      -0.035   1.525  25.685  0.00  0.00    +0.164 C 
ATOM     12  C   UNL     1      -0.446  -0.623  24.869  0.00  0.00    +0.181 C 
ENDROOT
BRANCH  10   3
ATOM      3  O   UNL     1       1.464   2.312  23.936  0.00  0.00    -0.388 OA
ATOM     27  H   UNL     1       1.186   3.008  23.317  0.00  0.00    +0.210 HD
ENDBRANCH  10   3
BRANCH   9   6
ATOM      6  N   UNL     1       0.600  -0.414  22.631  0.00  0.00    -0.305 NA
ATOM     26  H   UNL     1      -0.251  -0.053  22.197  0.00  0.00    +0.123 HD
BRANCH   6  14
ATOM     14  C   UNL     1       1.755   0.084  21.893  0.00  0.00    +0.118 C 
BRANCH  14  15
ATOM      8  N   UNL     1       4.418  -1.574  24.013  0.00  0.00    -0.263 NA
ATOM     15  C   UNL     1       3.037  -0.127  22.653  0.00  0.00    -0.015 A 
ATOM     17  C   UNL     1       4.008   0.867  22.713  0.00  0.00    +0.008 A 
ATOM     18  C   UNL     1       3.288  -1.319  23.314  0.00  0.00    +0.115 A 
ATOM     21  C   UNL     1       5.182   0.643  23.423  0.00  0.00    +0.020 A 
ATOM     24  C   UNL     1       5.337  -0.583  24.049  0.00  0.00    +0.111 A 
ENDBRANCH  14  15
ENDBRANCH   6  14
ENDBRANCH   9   6
BRANCH  11  13
ATOM     13  C   UNL     1      -0.933   2.695  26.047  0.00  0.00    +0.140 C 
BRANCH  13   7
ATOM      7  N   UNL     1      -1.480   3.299  24.816  0.00  0.00    -0.187 NA
ATOM     28  H   UNL     1      -0.799   3.775  24.212  0.00  0.00    +0.148 HD
BRANCH   7   1
ATOM      1  S   UNL     1      -3.103   3.807  24.765  0.00  0.00    +0.058 S 
ATOM      4  O   UNL     1      -3.354   4.488  23.508  0.00  0.00    -0.153 OA
ATOM      5  O   UNL     1      -3.436   4.448  26.022  0.00  0.00    -0.153 OA
BRANCH   1  16
ATOM     16  C   UNL     1      -3.964   2.263  24.729  0.00  0.00    +0.105 A 
ATOM     19  C   UNL     1      -3.357   1.139  24.168  0.00  0.00    +0.028 A 
ATOM     20  C   UNL     1      -5.251   2.170  25.258  0.00  0.00    +0.028 A 
ATOM     22  C   UNL     1      -4.038  -0.078  24.136  0.00  0.00    +0.002 A 
ATOM     23  C   UNL     1      -5.931   0.953  25.226  0.00  0.00    +0.002 A 
ATOM     25  C   UNL     1      -5.325  -0.171  24.666  0.00  0.00    +0.000 A 
ENDBRANCH   1  16
ENDBRANCH   7   1
ENDBRANCH  13   7
ENDBRANCH  11  13
TORSDOF 8
ENDMDL
MODEL 10
REMARK VINA RESULT:      -2.5      2.508      6.658
REMARK  Name = 75536689
REMARK  8 active torsions:
REMARK  status: ('A' for Active; 'I' for Inactive)
REMARK    1  A    between atoms: S_1  and  N_7
REMARK    2  A    between atoms: S_1  and  C_16
REMARK    3  A    between atoms: O_3  and  C_10
REMARK    4  A    between atoms: N_6  and  C_9
REMARK    5  A    between atoms: N_6  and  C_14
REMARK    6  A    between atoms: N_7  and  C_13
REMARK    7  A    between atoms: C_11  and  C_13
REMARK    8  A    between atoms: C_14  and  C_15
REMARK                            x       y       z     vdW  Elec       q    Type
REMARK                         _______ _______ _______ _____ _____    ______ ____
ROOT
ATOM      2  O   UNL     1      -0.458   4.579  24.174  0.00  0.00    -0.371 OA
ATOM      9  C   UNL     1      -1.905   4.087  25.992  0.00  0.00    +0.111 C 
ATOM     10  C   UNL     1      -1.131   2.835  25.623  0.00  0.00    +0.164 C 
ATOM     11  C   UNL     1       0.052   3.432  24.874  0.00  0.00    +0.164 C 
ATOM     12  C   UNL     1      -1.735   4.926  24.736  0.00  0.00    +0.181 C 
ENDROOT
BRANCH  10   3
ATOM      3  O   UNL     1      -0.719   2.094  26.756  0.00  0.00    -0.388 OA
ATOM     27  H   UNL     1      -0.328   1.259  26.449  0.00  0.00    +0.210 HD
ENDBRANCH  10   3
BRANCH   9   6
ATOM      6  N   UNL     1      -3.300   3.835  26.320  0.00  0.00    -0.305 NA
ATOM     26  H   UNL     1      -3.676   4.646  26.813  0.00  0.00    +0.123 HD
BRANCH   6  14
ATOM     14  C   UNL     1      -4.089   3.606  25.116  0.00  0.00    +0.118 C 
BRANCH  14  15
ATOM      8  N   UNL     1      -3.153   0.545  23.093  0.00  0.00    -0.263 NA
ATOM     15  C   UNL     1      -4.013   2.172  24.663  0.00  0.00    -0.015 A 
ATOM     17  C   UNL     1      -4.691   1.167  25.343  0.00  0.00    +0.008 A 
ATOM     18  C   UNL     1      -3.264   1.812  23.553  0.00  0.00    +0.115 A 
ATOM     21  C   UNL     1      -4.602  -0.148  24.900  0.00  0.00    +0.020 A 
ATOM     24  C   UNL     1      -3.827  -0.404  23.781  0.00  0.00    +0.111 A 
ENDBRANCH  14  15
ENDBRANCH   6  14
ENDBRANCH   9   6
BRANCH  11  13
ATOM     13  C   UNL     1       0.687   2.469  23.887  0.00  0.00    +0.140 C 
BRANCH  13   7
ATOM      7  N   UNL     1       0.512   1.082  24.365  0.00  0.00    -0.187 NA
ATOM     28  H   UNL     1       0.593   0.948  25.381  0.00  0.00    +0.148 HD
BRANCH   7   1
ATOM      1  S   UNL     1       0.883  -0.225  23.342  0.00  0.00    +0.058 S 
ATOM      4  O   UNL     1       0.432   0.075  21.996  0.00  0.00    -0.153 OA
ATOM      5  O   UNL     1       0.479  -1.459  23.989  0.00  0.00    -0.153 OA
BRANCH   1  16
ATOM     16  C   UNL     1       2.650  -0.195  23.344  0.00  0.00    +0.105 A 
ATOM     19  C   UNL     1       3.366  -1.305  23.794  0.00  0.00    +0.028 A 
ATOM     20  C   UNL     1       3.329   0.939  22.898  0.00  0.00    +0.028 A 
ATOM     22  C   UNL     1       4.760  -1.281  23.798  0.00  0.00    +0.002 A 
ATOM     23  C   UNL     1       4.724   0.962  22.903  0.00  0.00    +0.002 A 
ATOM     25  C   UNL     1       5.439  -0.147  23.353  0.00  0.00    +0.000 A 
ENDBRANCH   1  16
ENDBRANCH   7   1
ENDBRANCH  13   7
ENDBRANCH  11  13
TORSDOF 8
ENDMDL
