MODEL 1
REMARK VINA RESULT:       3.9      0.000      0.000
REMARK  Name = 11885937
REMARK  7 active torsions:
REMARK  status: ('A' for Active; 'I' for Inactive)
REMARK    1  A    between atoms: O_3  and  C_14
REMARK    2  A    between atoms: O_3  and  C_18
REMARK    3  A    between atoms: O_6  and  C_28
REMARK    4  A    between atoms: O_6  and  C_29
REMARK    5  A    between atoms: N_7  and  C_13
REMARK    6  A    between atoms: N_8  and  C_21
REMARK    7  A    between atoms: C_17  and  C_19
REMARK                            x       y       z     vdW  Elec       q    Type
REMARK                         _______ _______ _______ _____ _____    ______ ____
ROOT
ATOM      3  O   UNL     1      -3.273 -10.534  11.894  0.00  0.00    -0.442 OA
ENDROOT
BRANCH   3  14
ATOM      1  O   UNL     1      -5.812 -10.402  10.779  0.00  0.00    -0.368 OA
ATOM      2  O   UNL     1      -6.285 -10.175  13.800  0.00  0.00    -0.368 OA
ATOM     11  C   UNL     1      -6.566  -9.264  12.717  0.00  0.00    +0.173 C 
ATOM     12  C   UNL     1      -5.426  -9.392  11.728  0.00  0.00    +0.192 C 
ATOM     13  C   UNL     1      -7.774  -9.734  11.943  0.00  0.00    +0.130 C 
ATOM     14  C   UNL     1      -4.285  -9.854  12.601  0.00  0.00    +0.235 C 
ATOM     15  C   UNL     1      -7.176 -10.780  11.018  0.00  0.00    +0.185 C 
ATOM     16  C   UNL     1      -4.987 -10.752  13.596  0.00  0.00    +0.207 C 
BRANCH  13   7
ATOM      4  O   UNL     1      -7.375  -9.142   9.162  0.00  0.00    -0.268 OA
ATOM      7  N   UNL     1      -8.372  -8.655  11.198  0.00  0.00    -0.302 N 
ATOM     17  C   UNL     1      -8.117  -8.447   9.849  0.00  0.00    +0.264 C 
ATOM     35  H   UNL     1      -8.965  -7.993  11.693  0.00  0.00    +0.150 HD
BRANCH  17  19
ATOM      9  N   UNL     1     -10.112  -7.391   8.998  0.00  0.00    -0.247 NA
ATOM     10  N   UNL     1      -8.691  -5.059   8.360  0.00  0.00    -0.259 NA
ATOM     19  C   UNL     1      -8.790  -7.274   9.233  0.00  0.00    +0.143 A 
ATOM     20  C   UNL     1      -8.092  -6.129   8.920  0.00  0.00    +0.143 A 
ATOM     24  C   UNL     1     -10.711  -6.322   8.438  0.00  0.00    +0.131 A 
ATOM     25  C   UNL     1     -10.013  -5.176   8.125  0.00  0.00    +0.130 A 
ENDBRANCH  17  19
ENDBRANCH  13   7
ENDBRANCH   3  14
BRANCH   3  18
ATOM      5  O   UNL     1      -2.182  -9.588  10.119  0.00  0.00    -0.226 OA
ATOM      8  N   UNL     1      -1.468  -9.252  12.324  0.00  0.00    -0.251 N 
ATOM     18  C   UNL     1      -2.280  -9.762  11.329  0.00  0.00    +0.405 C 
ATOM     36  H   UNL     1      -1.709  -9.510  13.277  0.00  0.00    +0.158 HD
BRANCH   8  21
ATOM     21  C   UNL     1      -0.338  -8.415  12.181  0.00  0.00    +0.037 A 
ATOM     22  C   UNL     1       0.641  -8.722  11.235  0.00  0.00    +0.027 A 
ATOM     23  C   UNL     1      -0.200  -7.284  12.985  0.00  0.00    +0.027 A 
ATOM     26  C   UNL     1       1.757  -7.896  11.092  0.00  0.00    +0.048 A 
ATOM     27  C   UNL     1       0.915  -6.459  12.843  0.00  0.00    +0.048 A 
ATOM     28  C   UNL     1       1.893  -6.765  11.897  0.00  0.00    +0.129 A 
BRANCH  28   6
ATOM      6  O   UNL     1       2.981  -5.959  11.757  0.00  0.00    -0.456 OA
BRANCH   6  29
ATOM     29  C   UNL     1       4.168  -6.372  12.341  0.00  0.00    +0.128 A 
ATOM     30  C   UNL     1       4.769  -7.561  11.930  0.00  0.00    +0.046 A 
ATOM     31  C   UNL     1       4.761  -5.598  13.338  0.00  0.00    +0.046 A 
ATOM     32  C   UNL     1       5.964  -7.978  12.517  0.00  0.00    +0.004 A 
ATOM     33  C   UNL     1       5.956  -6.014  13.926  0.00  0.00    +0.004 A 
ATOM     34  C   UNL     1       6.557  -7.205  13.516  0.00  0.00    +0.000 A 
ENDBRANCH   6  29
ENDBRANCH  28   6
ENDBRANCH   8  21
ENDBRANCH   3  18
TORSDOF 7
ENDMDL
MODEL 2
REMARK VINA RESULT:       5.7     14.778     16.818
REMARK  Name = 11885937
REMARK  7 active torsions:
REMARK  status: ('A' for Active; 'I' for Inactive)
REMARK    1  A    between atoms: O_3  and  C_14
REMARK    2  A    between atoms: O_3  and  C_18
REMARK    3  A    between atoms: O_6  and  C_28
REMARK    4  A    between atoms: O_6  and  C_29
REMARK    5  A    between atoms: N_7  and  C_13
REMARK    6  A    between atoms: N_8  and  C_21
REMARK    7  A    between atoms: C_17  and  C_19
REMARK                            x       y       z     vdW  Elec       q    Type
REMARK                         _______ _______ _______ _____ _____    ______ ____
ROOT
ATOM      3  O   UNL     1      -2.713   5.403  24.923  0.00  0.00    -0.442 OA
ENDROOT
BRANCH   3  14
ATOM      1  O   UNL     1      -3.404   2.983  26.096  0.00  0.00    -0.368 OA
ATOM      2  O   UNL     1      -6.076   4.203  25.215  0.00  0.00    -0.368 OA
ATOM     11  C   UNL     1      -5.409   2.982  24.831  0.00  0.00    +0.173 C 
ATOM     12  C   UNL     1      -3.925   3.286  24.790  0.00  0.00    +0.192 C 
ATOM     13  C   UNL     1      -5.539   1.952  25.927  0.00  0.00    +0.130 C 
ATOM     14  C   UNL     1      -3.902   4.769  24.511  0.00  0.00    +0.235 C 
ATOM     15  C   UNL     1      -4.428   2.356  26.882  0.00  0.00    +0.185 C 
ATOM     16  C   UNL     1      -5.106   5.259  25.284  0.00  0.00    +0.207 C 
BRANCH  13   7
ATOM      4  O   UNL     1      -3.048   0.532  25.786  0.00  0.00    -0.268 OA
ATOM      7  N   UNL     1      -5.336   0.618  25.420  0.00  0.00    -0.302 N 
ATOM     17  C   UNL     1      -4.087   0.012  25.392  0.00  0.00    +0.264 C 
ATOM     35  H   UNL     1      -6.131   0.123  25.024  0.00  0.00    +0.150 HD
BRANCH  17  19
ATOM      9  N   UNL     1      -4.698  -1.543  23.652  0.00  0.00    -0.247 NA
ATOM     10  N   UNL     1      -3.312  -3.622  24.925  0.00  0.00    -0.259 NA
ATOM     19  C   UNL     1      -4.042  -1.356  24.814  0.00  0.00    +0.143 A 
ATOM     20  C   UNL     1      -3.361  -2.377  25.439  0.00  0.00    +0.143 A 
ATOM     24  C   UNL     1      -4.651  -2.788  23.138  0.00  0.00    +0.131 A 
ATOM     25  C   UNL     1      -3.969  -3.809  23.763  0.00  0.00    +0.130 A 
ENDBRANCH  17  19
ENDBRANCH  13   7
ENDBRANCH   3  14
BRANCH   3  18
ATOM      5  O   UNL     1      -0.434   5.204  24.939  0.00  0.00    -0.226 OA
ATOM      8  N   UNL     1      -1.816   3.454  24.227  0.00  0.00    -0.251 N 
ATOM     18  C   UNL     1      -1.535   4.717  24.712  0.00  0.00    +0.405 C 
ATOM     36  H   UNL     1      -2.800   3.229  24.102  0.00  0.00    +0.158 HD
BRANCH   8  21
ATOM     21  C   UNL     1      -0.903   2.432  23.878  0.00  0.00    +0.037 A 
ATOM     22  C   UNL     1      -1.339   1.330  23.142  0.00  0.00    +0.027 A 
ATOM     23  C   UNL     1       0.432   2.526  24.269  0.00  0.00    +0.027 A 
ATOM     26  C   UNL     1      -0.438   0.322  22.796  0.00  0.00    +0.048 A 
ATOM     27  C   UNL     1       1.333   1.519  23.924  0.00  0.00    +0.048 A 
ATOM     28  C   UNL     1       0.898   0.417  23.189  0.00  0.00    +0.129 A 
BRANCH  28   6
ATOM      6  O   UNL     1       1.776  -0.566  22.850  0.00  0.00    -0.456 OA
BRANCH   6  29
ATOM     29  C   UNL     1       3.114  -0.364  23.149  0.00  0.00    +0.128 A 
ATOM     30  C   UNL     1       3.843  -1.365  23.791  0.00  0.00    +0.046 A 
ATOM     31  C   UNL     1       3.731   0.839  22.808  0.00  0.00    +0.046 A 
ATOM     32  C   UNL     1       5.190  -1.162  24.092  0.00  0.00    +0.004 A 
ATOM     33  C   UNL     1       5.078   1.042  23.110  0.00  0.00    +0.004 A 
ATOM     34  C   UNL     1       5.808   0.042  23.752  0.00  0.00    +0.000 A 
ENDBRANCH   6  29
ENDBRANCH  28   6
ENDBRANCH   8  21
ENDBRANCH   3  18
TORSDOF 7
ENDMDL
MODEL 3
REMARK VINA RESULT:       6.8     15.320     18.059
REMARK  Name = 11885937
REMARK  7 active torsions:
REMARK  status: ('A' for Active; 'I' for Inactive)
REMARK    1  A    between atoms: O_3  and  C_14
REMARK    2  A    between atoms: O_3  and  C_18
REMARK    3  A    between atoms: O_6  and  C_28
REMARK    4  A    between atoms: O_6  and  C_29
REMARK    5  A    between atoms: N_7  and  C_13
REMARK    6  A    between atoms: N_8  and  C_21
REMARK    7  A    between atoms: C_17  and  C_19
REMARK                            x       y       z     vdW  Elec       q    Type
REMARK                         _______ _______ _______ _____ _____    ______ ____
ROOT
ATOM      3  O   UNL     1      -5.121   0.653  24.237  0.00  0.00    -0.442 OA
ENDROOT
BRANCH   3  14
ATOM      1  O   UNL     1      -2.771   2.085  24.599  0.00  0.00    -0.368 OA
ATOM      2  O   UNL     1      -4.971   3.928  25.680  0.00  0.00    -0.368 OA
ATOM     11  C   UNL     1      -3.831   3.321  26.324  0.00  0.00    +0.173 C 
ATOM     12  C   UNL     1      -3.666   1.943  25.716  0.00  0.00    +0.192 C 
ATOM     13  C   UNL     1      -2.566   4.045  25.930  0.00  0.00    +0.130 C 
ATOM     14  C   UNL     1      -5.069   1.613  25.267  0.00  0.00    +0.235 C 
ATOM     15  C   UNL     1      -2.243   3.420  24.583  0.00  0.00    +0.185 C 
ATOM     16  C   UNL     1      -5.586   2.961  24.817  0.00  0.00    +0.207 C 
BRANCH  13   7
ATOM      4  O   UNL     1      -0.228   2.424  25.537  0.00  0.00    -0.268 OA
ATOM      7  N   UNL     1      -1.509   3.810  26.883  0.00  0.00    -0.302 N 
ATOM     17  C   UNL     1      -0.413   3.007  26.601  0.00  0.00    +0.264 C 
ATOM     35  H   UNL     1      -1.597   4.212  27.813  0.00  0.00    +0.150 HD
BRANCH  17  19
ATOM      9  N   UNL     1       0.086   2.490  28.904  0.00  0.00    -0.247 NA
ATOM     10  N   UNL     1       2.826   2.908  28.479  0.00  0.00    -0.259 NA
ATOM     19  C   UNL     1       0.574   2.845  27.699  0.00  0.00    +0.143 A 
ATOM     20  C   UNL     1       1.920   3.051  27.490  0.00  0.00    +0.143 A 
ATOM     24  C   UNL     1       0.990   2.347  29.892  0.00  0.00    +0.131 A 
ATOM     25  C   UNL     1       2.337   2.552  29.683  0.00  0.00    +0.130 A 
ENDBRANCH  17  19
ENDBRANCH  13   7
ENDBRANCH   3  14
BRANCH   3  18
ATOM      5  O   UNL     1      -4.283  -1.475  24.265  0.00  0.00    -0.226 OA
ATOM      8  N   UNL     1      -2.889   0.393  24.045  0.00  0.00    -0.251 N 
ATOM     18  C   UNL     1      -4.095  -0.267  24.189  0.00  0.00    +0.405 C 
ATOM     36  H   UNL     1      -2.934   1.407  24.000  0.00  0.00    +0.158 HD
BRANCH   8  21
ATOM     21  C   UNL     1      -1.595  -0.169  23.956  0.00  0.00    +0.037 A 
ATOM     22  C   UNL     1      -0.722   0.248  22.951  0.00  0.00    +0.027 A 
ATOM     23  C   UNL     1      -1.191  -1.141  24.871  0.00  0.00    +0.027 A 
ATOM     26  C   UNL     1       0.556  -0.305  22.862  0.00  0.00    +0.048 A 
ATOM     27  C   UNL     1       0.086  -1.694  24.783  0.00  0.00    +0.048 A 
ATOM     28  C   UNL     1       0.959  -1.277  23.779  0.00  0.00    +0.129 A 
BRANCH  28   6
ATOM      6  O   UNL     1       2.206  -1.815  23.693  0.00  0.00    -0.456 OA
BRANCH   6  29
ATOM     29  C   UNL     1       3.274  -0.945  23.544  0.00  0.00    +0.128 A 
ATOM     30  C   UNL     1       3.095   0.272  22.887  0.00  0.00    +0.046 A 
ATOM     31  C   UNL     1       4.527  -1.286  24.051  0.00  0.00    +0.046 A 
ATOM     32  C   UNL     1       4.170   1.148  22.737  0.00  0.00    +0.004 A 
ATOM     33  C   UNL     1       5.603  -0.411  23.901  0.00  0.00    +0.004 A 
ATOM     34  C   UNL     1       5.425   0.807  23.244  0.00  0.00    +0.000 A 
ENDBRANCH   6  29
ENDBRANCH  28   6
ENDBRANCH   8  21
ENDBRANCH   3  18
TORSDOF 7
ENDMDL
