MODEL 1
REMARK VINA RESULT:      -2.2      0.000      0.000
REMARK  Name = 11912395
REMARK  7 active torsions:
REMARK  status: ('A' for Active; 'I' for Inactive)
REMARK    1  A    between atoms: N_7  and  C_12
REMARK    2  A    between atoms: N_8  and  C_22
REMARK    3  A    between atoms: C_9  and  C_14
REMARK    4  A    between atoms: C_10  and  C_18
REMARK    5  A    between atoms: C_14  and  C_19
REMARK    6  A    between atoms: C_18  and  C_20
REMARK    7  A    between atoms: C_25  and  C_28
REMARK                            x       y       z     vdW  Elec       q    Type
REMARK                         _______ _______ _______ _____ _____    ______ ____
ROOT
ATOM      5  O   UNL     1      -0.104  -1.108  25.847  0.00  0.00    -0.252 OA
ATOM      6  N   UNL     1      -2.036  -1.000  24.582  0.00  0.00    -0.285 N 
ATOM      8  N   UNL     1       0.077  -0.800  23.554  0.00  0.00    -0.269 N 
ATOM      9  C   UNL     1      -4.659   0.222  24.571  0.00  0.00    +0.004 C 
ATOM     10  C   UNL     1      -3.726   0.316  23.335  0.00  0.00    +0.010 C 
ATOM     11  C   UNL     1      -3.864   0.017  25.873  0.00  0.00    +0.023 C 
ATOM     13  C   UNL     1      -2.776  -0.893  23.316  0.00  0.00    +0.113 C 
ATOM     17  C   UNL     1      -2.894  -1.158  25.758  0.00  0.00    +0.109 C 
ATOM     21  C   UNL     1      -0.634  -0.988  24.739  0.00  0.00    +0.306 C 
ATOM     30  H   UNL     1      -0.335  -1.126  22.687  0.00  0.00    +0.156 HD
ENDROOT
BRANCH   8  22
ATOM     22  C   UNL     1       1.341  -0.178  23.399  0.00  0.00    +0.035 A 
ATOM     23  C   UNL     1       2.509  -0.901  23.642  0.00  0.00    +0.035 A 
ATOM     24  C   UNL     1       1.416   1.157  23.005  0.00  0.00    +0.023 A 
ATOM     25  C   UNL     1       3.752  -0.287  23.489  0.00  0.00    +0.057 A 
ATOM     26  C   UNL     1       2.659   1.771  22.852  0.00  0.00    +0.002 A 
ATOM     27  C   UNL     1       3.828   1.048  23.095  0.00  0.00    +0.012 A 
BRANCH  25  28
ATOM      1  F   UNL     1       5.992  -0.820  22.839  0.00  0.00    -0.166 F 
ATOM      2  F   UNL     1       5.565  -0.794  24.965  0.00  0.00    -0.166 F 
ATOM      3  F   UNL     1       4.800  -2.408  23.726  0.00  0.00    -0.166 F 
ATOM     28  C   UNL     1       5.002  -1.059  23.749  0.00  0.00    +0.417 C 
ENDBRANCH  25  28
ENDBRANCH   8  22
BRANCH  10  18
ATOM     18  C   UNL     1      -2.932   1.624  23.249  0.00  0.00    +0.002 C 
ATOM     20  C   UNL     1      -2.575   1.955  21.815  0.00  0.00    +0.004 C 
ENDBRANCH  10  18
BRANCH   9  14
ATOM     14  C   UNL     1      -5.606   1.415  24.699  0.00  0.00    +0.099 C 
BRANCH  14  19
ATOM      4  O   UNL     1      -5.649   2.859  26.642  0.00  0.00    -0.276 OA
ATOM      7  N   UNL     1      -3.837   2.953  25.195  0.00  0.00    -0.312 N 
ATOM     19  C   UNL     1      -5.064   2.477  25.632  0.00  0.00    +0.214 C 
ATOM     29  H   UNL     1      -3.426   2.584  24.340  0.00  0.00    +0.149 HD
BRANCH   7  12
ATOM     12  C   UNL     1      -3.107   3.968  25.900  0.00  0.00    +0.073 C 
ATOM     15  C   UNL     1      -2.071   4.803  25.206  0.00  0.00    +0.024 C 
ATOM     16  C   UNL     1      -1.655   3.791  26.232  0.00  0.00    +0.024 C 
ENDBRANCH   7  12
ENDBRANCH  14  19
ENDBRANCH   9  14
TORSDOF 6
ENDMDL
MODEL 2
REMARK VINA RESULT:       0.7      4.525      8.147
REMARK  Name = 11912395
REMARK  7 active torsions:
REMARK  status: ('A' for Active; 'I' for Inactive)
REMARK    1  A    between atoms: N_7  and  C_12
REMARK    2  A    between atoms: N_8  and  C_22
REMARK    3  A    between atoms: C_9  and  C_14
REMARK    4  A    between atoms: C_10  and  C_18
REMARK    5  A    between atoms: C_14  and  C_19
REMARK    6  A    between atoms: C_18  and  C_20
REMARK    7  A    between atoms: C_25  and  C_28
REMARK                            x       y       z     vdW  Elec       q    Type
REMARK                         _______ _______ _______ _____ _____    ______ ____
ROOT
ATOM      5  O   UNL     1      -3.671  -1.434  23.914  0.00  0.00    -0.252 OA
ATOM      6  N   UNL     1      -1.464  -0.967  24.420  0.00  0.00    -0.285 N 
ATOM      8  N   UNL     1      -3.206   0.254  25.436  0.00  0.00    -0.269 N 
ATOM      9  C   UNL     1       1.106  -0.572  23.149  0.00  0.00    +0.004 C 
ATOM     10  C   UNL     1       0.551   0.455  24.170  0.00  0.00    +0.010 C 
ATOM     11  C   UNL     1      -0.022  -1.369  22.469  0.00  0.00    +0.023 C 
ATOM     13  C   UNL     1      -0.402  -0.254  25.146  0.00  0.00    +0.113 C 
ATOM     17  C   UNL     1      -0.966  -1.991  23.498  0.00  0.00    +0.109 C 
ATOM     21  C   UNL     1      -2.854  -0.767  24.554  0.00  0.00    +0.306 C 
ATOM     30  H   UNL     1      -2.585   0.459  26.211  0.00  0.00    +0.156 HD
ENDROOT
BRANCH   8  22
ATOM     22  C   UNL     1      -4.355   1.082  25.379  0.00  0.00    +0.035 A 
ATOM     23  C   UNL     1      -4.216   2.470  25.392  0.00  0.00    +0.035 A 
ATOM     24  C   UNL     1      -5.624   0.508  25.309  0.00  0.00    +0.023 A 
ATOM     25  C   UNL     1      -5.348   3.283  25.334  0.00  0.00    +0.057 A 
ATOM     26  C   UNL     1      -6.756   1.321  25.251  0.00  0.00    +0.002 A 
ATOM     27  C   UNL     1      -6.617   2.710  25.264  0.00  0.00    +0.012 A 
BRANCH  25  28
ATOM      1  F   UNL     1      -4.754   5.285  24.165  0.00  0.00    -0.166 F 
ATOM      2  F   UNL     1      -6.368   5.430  25.608  0.00  0.00    -0.166 F 
ATOM      3  F   UNL     1      -4.318   5.199  26.294  0.00  0.00    -0.166 F 
ATOM     28  C   UNL     1      -5.202   4.768  25.348  0.00  0.00    +0.417 C 
ENDBRANCH  25  28
ENDBRANCH   8  22
BRANCH  10  18
ATOM     18  C   UNL     1      -0.140   1.664  23.528  0.00  0.00    +0.002 C 
ATOM     20  C   UNL     1      -0.571   2.669  24.577  0.00  0.00    +0.004 C 
ENDBRANCH  10  18
BRANCH   9  14
ATOM     14  C   UNL     1       2.025   0.059  22.103  0.00  0.00    +0.099 C 
BRANCH  14  19
ATOM      4  O   UNL     1       4.100   1.273  22.399  0.00  0.00    -0.276 OA
ATOM      7  N   UNL     1       3.849  -0.811  23.390  0.00  0.00    -0.312 N 
ATOM     19  C   UNL     1       3.430   0.269  22.628  0.00  0.00    +0.214 C 
ATOM     29  H   UNL     1       3.230  -1.607  23.524  0.00  0.00    +0.149 HD
BRANCH   7  12
ATOM     12  C   UNL     1       5.145  -0.865  24.004  0.00  0.00    +0.073 C 
ATOM     15  C   UNL     1       5.805   0.374  24.534  0.00  0.00    +0.024 C 
ATOM     16  C   UNL     1       6.355  -0.306  23.315  0.00  0.00    +0.024 C 
ENDBRANCH   7  12
ENDBRANCH  14  19
ENDBRANCH   9  14
TORSDOF 6
ENDMDL
MODEL 3
REMARK VINA RESULT:       1.3      3.197      5.129
REMARK  Name = 11912395
REMARK  7 active torsions:
REMARK  status: ('A' for Active; 'I' for Inactive)
REMARK    1  A    between atoms: N_7  and  C_12
REMARK    2  A    between atoms: N_8  and  C_22
REMARK    3  A    between atoms: C_9  and  C_14
REMARK    4  A    between atoms: C_10  and  C_18
REMARK    5  A    between atoms: C_14  and  C_19
REMARK    6  A    between atoms: C_18  and  C_20
REMARK    7  A    between atoms: C_25  and  C_28
REMARK                            x       y       z     vdW  Elec       q    Type
REMARK                         _______ _______ _______ _____ _____    ______ ____
ROOT
ATOM      5  O   UNL     1      -5.029   0.537  26.335  0.00  0.00    -0.252 OA
ATOM      6  N   UNL     1      -4.904   2.292  24.836  0.00  0.00    -0.285 N 
ATOM      8  N   UNL     1      -4.538   0.077  24.115  0.00  0.00    -0.269 N 
ATOM      9  C   UNL     1      -3.793   4.950  24.562  0.00  0.00    +0.004 C 
ATOM     10  C   UNL     1      -3.566   3.871  23.472  0.00  0.00    +0.010 C 
ATOM     11  C   UNL     1      -4.065   4.322  25.941  0.00  0.00    +0.023 C 
ATOM     13  C   UNL     1      -4.729   2.866  23.493  0.00  0.00    +0.113 C 
ATOM     17  C   UNL     1      -5.187   3.286  25.873  0.00  0.00    +0.109 C 
ATOM     21  C   UNL     1      -4.846   0.924  25.179  0.00  0.00    +0.306 C 
ATOM     30  H   UNL     1      -4.813   0.355  23.180  0.00  0.00    +0.156 HD
ENDROOT
BRANCH   8  22
ATOM     22  C   UNL     1      -3.854  -1.163  24.174  0.00  0.00    +0.035 A 
ATOM     23  C   UNL     1      -2.535  -1.211  24.627  0.00  0.00    +0.035 A 
ATOM     24  C   UNL     1      -4.499  -2.334  23.780  0.00  0.00    +0.023 A 
ATOM     25  C   UNL     1      -1.863  -2.432  24.685  0.00  0.00    +0.057 A 
ATOM     26  C   UNL     1      -3.827  -3.556  23.838  0.00  0.00    +0.002 A 
ATOM     27  C   UNL     1      -2.508  -3.604  24.291  0.00  0.00    +0.012 A 
BRANCH  25  28
ATOM      1  F   UNL     1      -0.241  -1.777  26.318  0.00  0.00    -0.166 F 
ATOM      2  F   UNL     1      -0.017  -3.750  25.444  0.00  0.00    -0.166 F 
ATOM      3  F   UNL     1       0.433  -1.982  24.261  0.00  0.00    -0.166 F 
ATOM     28  C   UNL     1      -0.453  -2.485  25.169  0.00  0.00    +0.417 C 
ENDBRANCH  25  28
ENDBRANCH   8  22
BRANCH  10  18
ATOM     18  C   UNL     1      -2.223   3.141  23.586  0.00  0.00    +0.002 C 
ATOM     20  C   UNL     1      -2.152   1.973  22.624  0.00  0.00    +0.004 C 
ENDBRANCH  10  18
BRANCH   9  14
ATOM     14  C   UNL     1      -2.654   5.965  24.649  0.00  0.00    +0.099 C 
BRANCH  14  19
ATOM      4  O   UNL     1      -0.243   5.745  24.600  0.00  0.00    -0.276 OA
ATOM      7  N   UNL     1      -1.506   4.171  25.746  0.00  0.00    -0.312 N 
ATOM     19  C   UNL     1      -1.328   5.311  24.976  0.00  0.00    +0.214 C 
ATOM     29  H   UNL     1      -2.444   3.879  26.008  0.00  0.00    +0.149 HD
BRANCH   7  12
ATOM     12  C   UNL     1      -0.408   3.363  26.192  0.00  0.00    +0.073 C 
ATOM     15  C   UNL     1       0.282   2.408  25.261  0.00  0.00    +0.024 C 
ATOM     16  C   UNL     1      -0.561   1.883  26.386  0.00  0.00    +0.024 C 
ENDBRANCH   7  12
ENDBRANCH  14  19
ENDBRANCH   9  14
TORSDOF 6
ENDMDL
MODEL 4
REMARK VINA RESULT:       1.7      1.992      3.597
REMARK  Name = 11912395
REMARK  7 active torsions:
REMARK  status: ('A' for Active; 'I' for Inactive)
REMARK    1  A    between atoms: N_7  and  C_12
REMARK    2  A    between atoms: N_8  and  C_22
REMARK    3  A    between atoms: C_9  and  C_14
REMARK    4  A    between atoms: C_10  and  C_18
REMARK    5  A    between atoms: C_14  and  C_19
REMARK    6  A    between atoms: C_18  and  C_20
REMARK    7  A    between atoms: C_25  and  C_28
REMARK                            x       y       z     vdW  Elec       q    Type
REMARK                         _______ _______ _______ _____ _____    ______ ____
ROOT
ATOM      5  O   UNL     1       0.568   3.963  23.220  0.00  0.00    -0.252 OA
ATOM      6  N   UNL     1      -0.954   3.464  24.886  0.00  0.00    -0.285 N 
ATOM      8  N   UNL     1       0.910   2.068  24.513  0.00  0.00    -0.269 N 
ATOM      9  C   UNL     1      -3.804   3.316  25.367  0.00  0.00    +0.004 C 
ATOM     10  C   UNL     1      -2.868   2.134  25.729  0.00  0.00    +0.010 C 
ATOM     11  C   UNL     1      -3.214   4.190  24.245  0.00  0.00    +0.023 C 
ATOM     13  C   UNL     1      -1.454   2.666  26.015  0.00  0.00    +0.113 C 
ATOM     17  C   UNL     1      -1.785   4.627  24.568  0.00  0.00    +0.109 C 
ATOM     21  C   UNL     1       0.218   3.220  24.139  0.00  0.00    +0.306 C 
ATOM     30  H   UNL     1       0.846   1.757  25.476  0.00  0.00    +0.156 HD
ENDROOT
BRANCH   8  22
ATOM     22  C   UNL     1       1.708   1.239  23.687  0.00  0.00    +0.035 A 
ATOM     23  C   UNL     1       3.076   1.116  23.936  0.00  0.00    +0.035 A 
ATOM     24  C   UNL     1       1.128   0.547  22.625  0.00  0.00    +0.023 A 
ATOM     25  C   UNL     1       3.861   0.299  23.121  0.00  0.00    +0.057 A 
ATOM     26  C   UNL     1       1.913  -0.269  21.810  0.00  0.00    +0.002 A 
ATOM     27  C   UNL     1       3.280  -0.393  22.059  0.00  0.00    +0.012 A 
BRANCH  25  28
ATOM      1  F   UNL     1       6.051  -0.179  22.283  0.00  0.00    -0.166 F 
ATOM      2  F   UNL     1       5.901   1.315  23.849  0.00  0.00    -0.166 F 
ATOM      3  F   UNL     1       5.603  -0.787  24.322  0.00  0.00    -0.166 F 
ATOM     28  C   UNL     1       5.323   0.167  23.386  0.00  0.00    +0.417 C 
ENDBRANCH  25  28
ENDBRANCH   8  22
BRANCH  10  18
ATOM     18  C   UNL     1      -2.821   1.027  24.670  0.00  0.00    +0.002 C 
ATOM     20  C   UNL     1      -1.622   0.124  24.874  0.00  0.00    +0.004 C 
ENDBRANCH  10  18
BRANCH   9  14
ATOM     14  C   UNL     1      -5.223   2.872  25.014  0.00  0.00    +0.099 C 
BRANCH  14  19
ATOM      4  O   UNL     1      -6.060   1.118  26.459  0.00  0.00    -0.276 OA
ATOM      7  N   UNL     1      -5.011   0.549  24.468  0.00  0.00    -0.312 N 
ATOM     19  C   UNL     1      -5.491   1.438  25.419  0.00  0.00    +0.214 C 
ATOM     29  H   UNL     1      -4.545   0.901  23.636  0.00  0.00    +0.149 HD
BRANCH   7  12
ATOM     12  C   UNL     1      -5.136  -0.873  24.610  0.00  0.00    +0.073 C 
ATOM     15  C   UNL     1      -3.995  -1.707  25.116  0.00  0.00    +0.024 C 
ATOM     16  C   UNL     1      -4.423  -1.812  23.682  0.00  0.00    +0.024 C 
ENDBRANCH   7  12
ENDBRANCH  14  19
ENDBRANCH   9  14
TORSDOF 6
ENDMDL
