MODEL 1
REMARK VINA RESULT:      -2.4      0.000      0.000
REMARK  Name = 44716321
REMARK  8 active torsions:
REMARK  status: ('A' for Active; 'I' for Inactive)
REMARK    1  A    between atoms: N_2  and  C_17
REMARK    2  A    between atoms: N_3  and  C_14
REMARK    3  A    between atoms: N_5  and  C_23
REMARK    4  A    between atoms: N_5  and  C_24
REMARK    5  A    between atoms: N_5  and  C_25
REMARK    6  A    between atoms: C_7  and  C_13
REMARK    7  A    between atoms: C_8  and  C_14
REMARK    8  A    between atoms: C_16  and  C_18
REMARK                            x       y       z     vdW  Elec       q    Type
REMARK                         _______ _______ _______ _____ _____    ______ ____
ROOT
ATOM      2  N   UNL     1      16.994  -5.581  30.744  0.00  0.00    -0.270 N 
ATOM      4  N   UNL     1      17.055  -4.581  29.849  0.00  0.00    -0.171 NA
ATOM     13  C   UNL     1      16.992  -6.825  30.183  0.00  0.00    +0.044 A 
ATOM     15  C   UNL     1      17.055  -6.623  28.826  0.00  0.00    +0.053 A 
ATOM     16  C   UNL     1      17.091  -5.223  28.679  0.00  0.00    +0.093 A 
ATOM     17  C   UNL     1      16.939  -5.265  32.153  0.00  0.00    +0.172 C 
ENDROOT
BRANCH  13   7
ATOM      1  N   UNL     1      15.138  -9.602  31.963  0.00  0.00    -0.298 NA
ATOM      6  C   UNL     1      17.105  -9.460  30.261  0.00  0.00    +0.002 C 
ATOM      7  C   UNL     1      16.928  -8.105  31.003  0.00  0.00    +0.055 C 
ATOM      8  C   UNL     1      14.698 -10.104  30.636  0.00  0.00    +0.070 C 
ATOM      9  C   UNL     1      15.780  -9.838  29.567  0.00  0.00    +0.024 C 
ATOM     10  C   UNL     1      17.369 -10.528  31.344  0.00  0.00    +0.019 C 
ATOM     11  C   UNL     1      15.623  -8.204  31.842  0.00  0.00    +0.094 C 
ATOM     12  C   UNL     1      16.269 -10.445  32.417  0.00  0.00    +0.085 C 
BRANCH   8  14
ATOM     14  C   UNL     1      13.336  -9.543  30.222  0.00  0.00    +0.096 C 
BRANCH  14   3
ATOM      3  N   UNL     1      12.257 -10.314  30.817  0.00  0.00    -0.329 NA
ATOM     26  H   UNL     1      12.315 -11.280  30.498  0.00  0.00    +0.118 HD
ATOM     27  H   UNL     1      12.362 -10.346  31.830  0.00  0.00    +0.118 HD
ENDBRANCH  14   3
ENDBRANCH   8  14
ENDBRANCH  13   7
BRANCH  16  18
ATOM     18  C   UNL     1      17.159  -4.489  27.443  0.00  0.00    +0.002 A 
ATOM     19  C   UNL     1      17.042  -5.160  26.225  0.00  0.00    +0.012 A 
ATOM     20  C   UNL     1      17.340  -3.106  27.462  0.00  0.00    +0.012 A 
ATOM     21  C   UNL     1      17.106  -4.448  25.027  0.00  0.00    +0.024 A 
ATOM     22  C   UNL     1      17.405  -2.394  26.265  0.00  0.00    +0.024 A 
ATOM     23  C   UNL     1      17.288  -3.064  25.047  0.00  0.00    +0.029 A 
BRANCH  23   5
ATOM      5  N   UNL     1      17.353  -2.345  23.836  0.00  0.00    -0.336 N 
ATOM     24  C   UNL     1      17.386  -3.044  22.567  0.00  0.00    +0.129 C 
ATOM     25  C   UNL     1      17.379  -0.896  23.844  0.00  0.00    +0.129 C 
ENDBRANCH  23   5
ENDBRANCH  16  18
TORSDOF 5
ENDMDL
MODEL 2
REMARK VINA RESULT:      -1.8      1.866      2.465
REMARK  Name = 44716321
REMARK  8 active torsions:
REMARK  status: ('A' for Active; 'I' for Inactive)
REMARK    1  A    between atoms: N_2  and  C_17
REMARK    2  A    between atoms: N_3  and  C_14
REMARK    3  A    between atoms: N_5  and  C_23
REMARK    4  A    between atoms: N_5  and  C_24
REMARK    5  A    between atoms: N_5  and  C_25
REMARK    6  A    between atoms: C_7  and  C_13
REMARK    7  A    between atoms: C_8  and  C_14
REMARK    8  A    between atoms: C_16  and  C_18
REMARK                            x       y       z     vdW  Elec       q    Type
REMARK                         _______ _______ _______ _____ _____    ______ ____
ROOT
ATOM      2  N   UNL     1      16.532  -6.973  30.482  0.00  0.00    -0.270 N 
ATOM      4  N   UNL     1      17.065  -6.101  29.610  0.00  0.00    -0.171 NA
ATOM     13  C   UNL     1      15.465  -7.665  29.987  0.00  0.00    +0.044 A 
ATOM     15  C   UNL     1      15.289  -7.213  28.702  0.00  0.00    +0.053 A 
ATOM     16  C   UNL     1      16.302  -6.251  28.525  0.00  0.00    +0.093 A 
ATOM     17  C   UNL     1      17.108  -7.094  31.801  0.00  0.00    +0.172 C 
ENDROOT
BRANCH  13   7
ATOM      1  N   UNL     1      13.272  -8.750  32.873  0.00  0.00    -0.298 NA
ATOM      6  C   UNL     1      13.294  -9.133  30.297  0.00  0.00    +0.002 C 
ATOM      7  C   UNL     1      14.703  -8.704  30.796  0.00  0.00    +0.055 C 
ATOM      8  C   UNL     1      12.145  -8.015  32.241  0.00  0.00    +0.070 C 
ATOM      9  C   UNL     1      12.262  -8.060  30.702  0.00  0.00    +0.024 C 
ATOM     10  C   UNL     1      12.927 -10.425  31.058  0.00  0.00    +0.019 C 
ATOM     11  C   UNL     1      14.561  -8.302  32.291  0.00  0.00    +0.094 C 
ATOM     12  C   UNL     1      13.103 -10.191  32.569  0.00  0.00    +0.085 C 
BRANCH   8  14
ATOM     14  C   UNL     1      12.018  -6.583  32.762  0.00  0.00    +0.096 C 
BRANCH  14   3
ATOM      3  N   UNL     1      12.271  -5.623  31.699  0.00  0.00    -0.329 NA
ATOM     26  H   UNL     1      11.533  -4.921  31.694  0.00  0.00    +0.118 HD
ATOM     27  H   UNL     1      13.137  -5.117  31.878  0.00  0.00    +0.118 HD
ENDBRANCH  14   3
ENDBRANCH   8  14
ENDBRANCH  13   7
BRANCH  16  18
ATOM     18  C   UNL     1      16.552  -5.473  27.340  0.00  0.00    +0.002 A 
ATOM     19  C   UNL     1      16.209  -5.980  26.086  0.00  0.00    +0.012 A 
ATOM     20  C   UNL     1      17.138  -4.212  27.445  0.00  0.00    +0.012 A 
ATOM     21  C   UNL     1      16.451  -5.226  24.938  0.00  0.00    +0.024 A 
ATOM     22  C   UNL     1      17.381  -3.457  26.298  0.00  0.00    +0.024 A 
ATOM     23  C   UNL     1      17.037  -3.964  25.044  0.00  0.00    +0.029 A 
BRANCH  23   5
ATOM      5  N   UNL     1      17.282  -3.201  23.883  0.00  0.00    -0.336 N 
ATOM     24  C   UNL     1      17.405  -3.849  22.593  0.00  0.00    +0.129 C 
ATOM     25  C   UNL     1      17.405  -1.760  23.965  0.00  0.00    +0.129 C 
ENDBRANCH  23   5
ENDBRANCH  16  18
TORSDOF 5
ENDMDL
MODEL 3
REMARK VINA RESULT:       1.1     24.070     26.574
REMARK  Name = 44716321
REMARK  8 active torsions:
REMARK  status: ('A' for Active; 'I' for Inactive)
REMARK    1  A    between atoms: N_2  and  C_17
REMARK    2  A    between atoms: N_3  and  C_14
REMARK    3  A    between atoms: N_5  and  C_23
REMARK    4  A    between atoms: N_5  and  C_24
REMARK    5  A    between atoms: N_5  and  C_25
REMARK    6  A    between atoms: C_7  and  C_13
REMARK    7  A    between atoms: C_8  and  C_14
REMARK    8  A    between atoms: C_16  and  C_18
REMARK                            x       y       z     vdW  Elec       q    Type
REMARK                         _______ _______ _______ _____ _____    ______ ____
ROOT
ATOM      2  N   UNL     1      -3.183 -10.009  11.863  0.00  0.00    -0.270 N 
ATOM      4  N   UNL     1      -2.008  -9.634  12.396  0.00  0.00    -0.171 NA
ATOM     13  C   UNL     1      -3.362  -9.594  10.576  0.00  0.00    +0.044 A 
ATOM     15  C   UNL     1      -2.225  -8.898  10.245  0.00  0.00    +0.053 A 
ATOM     16  C   UNL     1      -1.427  -8.954  11.404  0.00  0.00    +0.093 A 
ATOM     17  C   UNL     1      -4.106 -10.781  12.662  0.00  0.00    +0.172 C 
ENDROOT
BRANCH  13   7
ATOM      1  N   UNL     1      -7.035 -10.441  10.246  0.00  0.00    -0.298 NA
ATOM      6  C   UNL     1      -5.412  -8.711   9.169  0.00  0.00    +0.002 C 
ATOM      7  C   UNL     1      -4.616  -9.903   9.771  0.00  0.00    +0.055 C 
ATOM      8  C   UNL     1      -7.353  -9.073  10.735  0.00  0.00    +0.070 C 
ATOM      9  C   UNL     1      -6.278  -8.066  10.272  0.00  0.00    +0.024 C 
ATOM     10  C   UNL     1      -6.380  -9.305   8.124  0.00  0.00    +0.019 C 
ATOM     11  C   UNL     1      -5.626 -10.780  10.565  0.00  0.00    +0.094 C 
ATOM     12  C   UNL     1      -7.189 -10.444   8.771  0.00  0.00    +0.085 C 
BRANCH   8  14
ATOM     14  C   UNL     1      -7.561  -9.030  12.250  0.00  0.00    +0.096 C 
BRANCH  14   3
ATOM      3  N   UNL     1      -8.679  -9.873  12.642  0.00  0.00    -0.329 NA
ATOM     26  H   UNL     1      -8.470 -10.842  12.408  0.00  0.00    +0.118 HD
ATOM     27  H   UNL     1      -8.803  -9.848  13.653  0.00  0.00    +0.118 HD
ENDBRANCH  14   3
ENDBRANCH   8  14
ENDBRANCH  13   7
BRANCH  16  18
ATOM     18  C   UNL     1      -0.123  -8.371  11.581  0.00  0.00    +0.002 A 
ATOM     19  C   UNL     1       0.091  -7.435  12.592  0.00  0.00    +0.012 A 
ATOM     20  C   UNL     1       0.926  -8.743  10.741  0.00  0.00    +0.012 A 
ATOM     21  C   UNL     1       1.355  -6.871  12.764  0.00  0.00    +0.024 A 
ATOM     22  C   UNL     1       2.190  -8.179  10.912  0.00  0.00    +0.024 A 
ATOM     23  C   UNL     1       2.405  -7.243  11.924  0.00  0.00    +0.029 A 
BRANCH  23   5
ATOM      5  N   UNL     1       3.683  -6.673  12.097  0.00  0.00    -0.336 N 
ATOM     24  C   UNL     1       4.859  -7.517  12.177  0.00  0.00    +0.129 C 
ATOM     25  C   UNL     1       3.839  -5.235  12.190  0.00  0.00    +0.129 C 
ENDBRANCH  23   5
ENDBRANCH  16  18
TORSDOF 5
ENDMDL
