MODEL 1
REMARK VINA RESULT:      -4.5      0.000      0.000
REMARK  Name = 51137081
REMARK  5 active torsions:
REMARK  status: ('A' for Active; 'I' for Inactive)
REMARK    1  A    between atoms: N_2  and  C_8
REMARK    2  A    between atoms: C_4  and  C_10
REMARK    3  A    between atoms: C_8  and  C_9
REMARK    4  A    between atoms: C_9  and  C_11
REMARK    5  A    between atoms: C_9  and  C_12
REMARK                            x       y       z     vdW  Elec       q    Type
REMARK                         _______ _______ _______ _____ _____    ______ ____
ROOT
ATOM      2  N   UNL     1       2.264   0.003  23.006  0.00  0.00    -0.301 NA
ATOM      4  C   UNL     1       0.077  -0.077  23.848  0.00  0.00    +0.060 C 
ATOM      5  C   UNL     1       1.403   0.687  23.972  0.00  0.00    +0.094 C 
ATOM      6  C   UNL     1       0.106  -0.679  22.432  0.00  0.00    +0.027 C 
ATOM      7  C   UNL     1       1.421  -0.205  21.829  0.00  0.00    +0.085 C 
ENDROOT
BRANCH   4  10
ATOM      1  S   UNL     1      -0.929   2.475  24.297  0.00  0.00    -0.072 S 
ATOM      3  N   UNL     1      -2.347   0.321  24.305  0.00  0.00    -0.244 NA
ATOM     10  C   UNL     1      -1.129   0.783  24.147  0.00  0.00    +0.084 A 
ATOM     13  C   UNL     1      -2.618   2.638  24.604  0.00  0.00    +0.039 A 
ATOM     14  C   UNL     1      -3.213   1.373  24.568  0.00  0.00    +0.078 A 
ATOM     15  C   UNL     1      -3.363   3.801  24.858  0.00  0.00    +0.017 A 
ATOM     16  C   UNL     1      -4.602   1.272  24.795  0.00  0.00    +0.029 A 
ATOM     17  C   UNL     1      -4.736   3.672  25.079  0.00  0.00    +0.001 A 
ATOM     18  C   UNL     1      -5.350   2.425  25.048  0.00  0.00    +0.002 A 
ENDBRANCH   4  10
BRANCH   2   8
ATOM      8  C   UNL     1       3.467   0.762  22.699  0.00  0.00    +0.087 C 
BRANCH   8   9
ATOM      9  C   UNL     1       4.752  -0.002  23.061  0.00  0.00    -0.003 C 
ATOM     11  C   UNL     1       5.619   0.854  23.986  0.00  0.00    +0.008 C 
ATOM     12  C   UNL     1       4.464  -1.351  23.727  0.00  0.00    +0.008 C 
ENDBRANCH   8   9
ENDBRANCH   2   8
TORSDOF 3
ENDMDL
MODEL 2
REMARK VINA RESULT:      -4.0      1.460      2.085
REMARK  Name = 51137081
REMARK  5 active torsions:
REMARK  status: ('A' for Active; 'I' for Inactive)
REMARK    1  A    between atoms: N_2  and  C_8
REMARK    2  A    between atoms: C_4  and  C_10
REMARK    3  A    between atoms: C_8  and  C_9
REMARK    4  A    between atoms: C_9  and  C_11
REMARK    5  A    between atoms: C_9  and  C_12
REMARK                            x       y       z     vdW  Elec       q    Type
REMARK                         _______ _______ _______ _____ _____    ______ ____
ROOT
ATOM      2  N   UNL     1       1.139  -0.203  23.594  0.00  0.00    -0.301 NA
ATOM      4  C   UNL     1      -0.574   0.409  25.072  0.00  0.00    +0.060 C 
ATOM      5  C   UNL     1       0.289   0.943  23.921  0.00  0.00    +0.094 C 
ATOM      6  C   UNL     1      -0.585  -1.117  24.876  0.00  0.00    +0.027 C 
ATOM      7  C   UNL     1       0.242  -1.358  23.621  0.00  0.00    +0.085 C 
ENDROOT
BRANCH   4  10
ATOM      1  S   UNL     1      -3.330   0.075  24.917  0.00  0.00    -0.072 S 
ATOM      3  N   UNL     1      -2.152   2.330  25.337  0.00  0.00    -0.244 NA
ATOM     10  C   UNL     1      -1.941   1.051  25.130  0.00  0.00    +0.084 A 
ATOM     13  C   UNL     1      -4.328   1.467  25.112  0.00  0.00    +0.039 A 
ATOM     14  C   UNL     1      -3.516   2.584  25.329  0.00  0.00    +0.078 A 
ATOM     15  C   UNL     1      -5.728   1.564  25.077  0.00  0.00    +0.017 A 
ATOM     16  C   UNL     1      -4.130   3.841  25.516  0.00  0.00    +0.029 A 
ATOM     17  C   UNL     1      -6.310   2.819  25.266  0.00  0.00    +0.001 A 
ATOM     18  C   UNL     1      -5.523   3.945  25.483  0.00  0.00    +0.002 A 
ENDBRANCH   4  10
BRANCH   2   8
ATOM      8  C   UNL     1       1.808  -0.050  22.310  0.00  0.00    +0.087 C 
BRANCH   8   9
ATOM      9  C   UNL     1       3.339  -0.107  22.435  0.00  0.00    -0.003 C 
ATOM     11  C   UNL     1       3.887   1.296  22.708  0.00  0.00    +0.008 C 
ATOM     12  C   UNL     1       3.803  -1.064  23.537  0.00  0.00    +0.008 C 
ENDBRANCH   8   9
ENDBRANCH   2   8
TORSDOF 3
ENDMDL
MODEL 3
REMARK VINA RESULT:      -3.4      3.275      5.736
REMARK  Name = 51137081
REMARK  5 active torsions:
REMARK  status: ('A' for Active; 'I' for Inactive)
REMARK    1  A    between atoms: N_2  and  C_8
REMARK    2  A    between atoms: C_4  and  C_10
REMARK    3  A    between atoms: C_8  and  C_9
REMARK    4  A    between atoms: C_9  and  C_11
REMARK    5  A    between atoms: C_9  and  C_12
REMARK                            x       y       z     vdW  Elec       q    Type
REMARK                         _______ _______ _______ _____ _____    ______ ____
ROOT
ATOM      2  N   UNL     1      -0.579   3.987  25.265  0.00  0.00    -0.301 NA
ATOM      4  C   UNL     1      -0.542   1.647  25.395  0.00  0.00    +0.060 C 
ATOM      5  C   UNL     1      -1.423   2.868  25.689  0.00  0.00    +0.094 C 
ATOM      6  C   UNL     1       0.419   2.116  24.289  0.00  0.00    +0.027 C 
ATOM      7  C   UNL     1       0.014   3.555  24.000  0.00  0.00    +0.085 C 
ENDROOT
BRANCH   4  10
ATOM      1  S   UNL     1      -0.596  -1.125  25.179  0.00  0.00    -0.072 S 
ATOM      3  N   UNL     1      -2.596   0.422  24.670  0.00  0.00    -0.244 NA
ATOM     10  C   UNL     1      -1.342   0.410  25.058  0.00  0.00    +0.084 A 
ATOM     13  C   UNL     1      -2.065  -1.869  24.669  0.00  0.00    +0.039 A 
ATOM     14  C   UNL     1      -3.025  -0.878  24.442  0.00  0.00    +0.078 A 
ATOM     15  C   UNL     1      -2.348  -3.231  24.482  0.00  0.00    +0.017 A 
ATOM     16  C   UNL     1      -4.312  -1.268  24.015  0.00  0.00    +0.029 A 
ATOM     17  C   UNL     1      -3.630  -3.590  24.059  0.00  0.00    +0.001 A 
ATOM     18  C   UNL     1      -4.601  -2.622  23.827  0.00  0.00    +0.002 A 
ENDBRANCH   4  10
BRANCH   2   8
ATOM      8  C   UNL     1      -1.328   5.228  25.131  0.00  0.00    +0.087 C 
BRANCH   8   9
ATOM      9  C   UNL     1      -2.842   5.022  25.309  0.00  0.00    -0.003 C 
ATOM     11  C   UNL     1      -3.398   4.230  24.123  0.00  0.00    +0.008 C 
ATOM     12  C   UNL     1      -3.186   4.303  26.616  0.00  0.00    +0.008 C 
ENDBRANCH   8   9
ENDBRANCH   2   8
TORSDOF 3
ENDMDL
MODEL 4
REMARK VINA RESULT:      -2.7      3.971      5.841
REMARK  Name = 51137081
REMARK  5 active torsions:
REMARK  status: ('A' for Active; 'I' for Inactive)
REMARK    1  A    between atoms: N_2  and  C_8
REMARK    2  A    between atoms: C_4  and  C_10
REMARK    3  A    between atoms: C_8  and  C_9
REMARK    4  A    between atoms: C_9  and  C_11
REMARK    5  A    between atoms: C_9  and  C_12
REMARK                            x       y       z     vdW  Elec       q    Type
REMARK                         _______ _______ _______ _____ _____    ______ ____
ROOT
ATOM      2  N   UNL     1      -3.036   4.684  24.987  0.00  0.00    -0.301 NA
ATOM      4  C   UNL     1      -3.941   2.587  24.456  0.00  0.00    +0.060 C 
ATOM      5  C   UNL     1      -2.710   3.475  24.228  0.00  0.00    +0.094 C 
ATOM      6  C   UNL     1      -4.541   3.086  25.783  0.00  0.00    +0.027 C 
ATOM      7  C   UNL     1      -3.609   4.199  26.243  0.00  0.00    +0.085 C 
ENDROOT
BRANCH   4  10
ATOM      1  S   UNL     1      -2.019   0.600  24.752  0.00  0.00    -0.072 S 
ATOM      3  N   UNL     1      -4.489   0.168  24.150  0.00  0.00    -0.244 NA
ATOM     10  C   UNL     1      -3.618   1.111  24.421  0.00  0.00    +0.084 A 
ATOM     13  C   UNL     1      -2.504  -1.038  24.517  0.00  0.00    +0.039 A 
ATOM     14  C   UNL     1      -3.866  -1.071  24.201  0.00  0.00    +0.078 A 
ATOM     15  C   UNL     1      -1.736  -2.209  24.607  0.00  0.00    +0.017 A 
ATOM     16  C   UNL     1      -4.476  -2.321  23.967  0.00  0.00    +0.029 A 
ATOM     17  C   UNL     1      -2.365  -3.434  24.371  0.00  0.00    +0.001 A 
ATOM     18  C   UNL     1      -3.718  -3.491  24.055  0.00  0.00    +0.002 A 
ENDBRANCH   4  10
BRANCH   2   8
ATOM      8  C   UNL     1      -1.875   5.536  25.201  0.00  0.00    +0.087 C 
BRANCH   8   9
ATOM      9  C   UNL     1      -0.550   4.778  25.019  0.00  0.00    -0.003 C 
ATOM     11  C   UNL     1      -0.561   3.506  25.871  0.00  0.00    +0.008 C 
ATOM     12  C   UNL     1      -0.276   4.416  23.557  0.00  0.00    +0.008 C 
ENDBRANCH   8   9
ENDBRANCH   2   8
TORSDOF 3
ENDMDL
MODEL 5
REMARK VINA RESULT:      -2.5      1.844      7.332
REMARK  Name = 51137081
REMARK  5 active torsions:
REMARK  status: ('A' for Active; 'I' for Inactive)
REMARK    1  A    between atoms: N_2  and  C_8
REMARK    2  A    between atoms: C_4  and  C_10
REMARK    3  A    between atoms: C_8  and  C_9
REMARK    4  A    between atoms: C_9  and  C_11
REMARK    5  A    between atoms: C_9  and  C_12
REMARK                            x       y       z     vdW  Elec       q    Type
REMARK                         _______ _______ _______ _____ _____    ______ ____
ROOT
ATOM      2  N   UNL     1      -3.479   3.836  25.974  0.00  0.00    -0.301 NA
ATOM      4  C   UNL     1      -1.281   3.089  25.644  0.00  0.00    +0.060 C 
ATOM      5  C   UNL     1      -2.731   2.598  25.746  0.00  0.00    +0.094 C 
ATOM      6  C   UNL     1      -1.397   4.558  25.201  0.00  0.00    +0.027 C 
ATOM      7  C   UNL     1      -2.891   4.807  25.051  0.00  0.00    +0.085 C 
ENDROOT
BRANCH   4  10
ATOM      1  S   UNL     1      -1.160   0.942  23.882  0.00  0.00    -0.072 S 
ATOM      3  N   UNL     1       0.866   2.378  24.579  0.00  0.00    -0.244 NA
ATOM     10  C   UNL     1      -0.427   2.222  24.749  0.00  0.00    +0.084 A 
ATOM     13  C   UNL     1       0.373   0.535  23.204  0.00  0.00    +0.039 A 
ATOM     14  C   UNL     1       1.339   1.418  23.696  0.00  0.00    +0.078 A 
ATOM     15  C   UNL     1       0.697  -0.491  22.303  0.00  0.00    +0.017 A 
ATOM     16  C   UNL     1       2.675   1.266  23.268  0.00  0.00    +0.029 A 
ATOM     17  C   UNL     1       2.027  -0.619  21.894  0.00  0.00    +0.001 A 
ATOM     18  C   UNL     1       3.005   0.248  22.370  0.00  0.00    +0.002 A 
ENDBRANCH   4  10
BRANCH   2   8
ATOM      8  C   UNL     1      -4.909   3.668  25.766  0.00  0.00    +0.087 C 
BRANCH   8   9
ATOM      9  C   UNL     1      -5.329   2.189  25.743  0.00  0.00    -0.003 C 
ATOM     11  C   UNL     1      -6.463   1.958  26.745  0.00  0.00    +0.008 C 
ATOM     12  C   UNL     1      -5.770   1.725  24.351  0.00  0.00    +0.008 C 
ENDBRANCH   8   9
ENDBRANCH   2   8
TORSDOF 3
ENDMDL
MODEL 6
REMARK VINA RESULT:      -2.0      3.775      5.122
REMARK  Name = 51137081
REMARK  5 active torsions:
REMARK  status: ('A' for Active; 'I' for Inactive)
REMARK    1  A    between atoms: N_2  and  C_8
REMARK    2  A    between atoms: C_4  and  C_10
REMARK    3  A    between atoms: C_8  and  C_9
REMARK    4  A    between atoms: C_9  and  C_11
REMARK    5  A    between atoms: C_9  and  C_12
REMARK                            x       y       z     vdW  Elec       q    Type
REMARK                         _______ _______ _______ _____ _____    ______ ____
ROOT
ATOM      2  N   UNL     1      -3.907  -2.030  25.173  0.00  0.00    -0.301 NA
ATOM      4  C   UNL     1      -4.226   0.292  25.217  0.00  0.00    +0.060 C 
ATOM      5  C   UNL     1      -3.379  -0.832  25.828  0.00  0.00    +0.094 C 
ATOM      6  C   UNL     1      -4.695  -0.266  23.862  0.00  0.00    +0.027 C 
ATOM      7  C   UNL     1      -4.070  -1.652  23.769  0.00  0.00    +0.085 C 
ENDROOT
BRANCH   4  10
ATOM      1  S   UNL     1      -4.338   3.059  25.462  0.00  0.00    -0.072 S 
ATOM      3  N   UNL     1      -2.218   1.731  24.838  0.00  0.00    -0.244 NA
ATOM     10  C   UNL     1      -3.490   1.609  25.140  0.00  0.00    +0.084 A 
ATOM     13  C   UNL     1      -2.894   3.957  25.178  0.00  0.00    +0.039 A 
ATOM     14  C   UNL     1      -1.862   3.072  24.855  0.00  0.00    +0.078 A 
ATOM     15  C   UNL     1      -2.690   5.345  25.236  0.00  0.00    +0.017 A 
ATOM     16  C   UNL     1      -0.580   3.597  24.582  0.00  0.00    +0.029 A 
ATOM     17  C   UNL     1      -1.412   5.838  24.962  0.00  0.00    +0.001 A 
ATOM     18  C   UNL     1      -0.369   4.977  24.638  0.00  0.00    +0.002 A 
ENDBRANCH   4  10
BRANCH   2   8
ATOM      8  C   UNL     1      -3.035  -3.184  25.338  0.00  0.00    +0.087 C 
BRANCH   8   9
ATOM      9  C   UNL     1      -1.557  -2.843  25.086  0.00  0.00    -0.003 C 
ATOM     11  C   UNL     1      -1.295  -2.757  23.580  0.00  0.00    +0.008 C 
ATOM     12  C   UNL     1      -1.135  -1.533  25.757  0.00  0.00    +0.008 C 
ENDBRANCH   8   9
ENDBRANCH   2   8
TORSDOF 3
ENDMDL
MODEL 7
REMARK VINA RESULT:      -1.2      1.670      6.973
REMARK  Name = 51137081
REMARK  5 active torsions:
REMARK  status: ('A' for Active; 'I' for Inactive)
REMARK    1  A    between atoms: N_2  and  C_8
REMARK    2  A    between atoms: C_4  and  C_10
REMARK    3  A    between atoms: C_8  and  C_9
REMARK    4  A    between atoms: C_9  and  C_11
REMARK    5  A    between atoms: C_9  and  C_12
REMARK                            x       y       z     vdW  Elec       q    Type
REMARK                         _______ _______ _______ _____ _____    ______ ____
ROOT
ATOM      2  N   UNL     1      -2.710   1.927  23.924  0.00  0.00    -0.301 NA
ATOM      4  C   UNL     1      -1.041   0.397  23.316  0.00  0.00    +0.060 C 
ATOM      5  C   UNL     1      -1.420   1.882  23.234  0.00  0.00    +0.094 C 
ATOM      6  C   UNL     1      -1.800  -0.132  24.545  0.00  0.00    +0.027 C 
ATOM      7  C   UNL     1      -2.538   1.078  25.103  0.00  0.00    +0.085 C 
ENDROOT
BRANCH   4  10
ATOM      1  S   UNL     1       1.057  -1.333  23.896  0.00  0.00    -0.072 S 
ATOM      3  N   UNL     1       1.345   1.059  22.976  0.00  0.00    -0.244 NA
ATOM     10  C   UNL     1       0.453   0.171  23.347  0.00  0.00    +0.084 A 
ATOM     13  C   UNL     1       2.666  -0.774  23.626  0.00  0.00    +0.039 A 
ATOM     14  C   UNL     1       2.619   0.532  23.131  0.00  0.00    +0.078 A 
ATOM     15  C   UNL     1       3.882  -1.444  23.837  0.00  0.00    +0.017 A 
ATOM     16  C   UNL     1       3.834   1.189  22.837  0.00  0.00    +0.029 A 
ATOM     17  C   UNL     1       5.069  -0.772  23.537  0.00  0.00    +0.001 A 
ATOM     18  C   UNL     1       5.048   0.528  23.044  0.00  0.00    +0.002 A 
ENDBRANCH   4  10
BRANCH   2   8
ATOM      8  C   UNL     1      -3.108   3.283  24.271  0.00  0.00    +0.087 C 
BRANCH   8   9
ATOM      9  C   UNL     1      -2.376   3.808  25.518  0.00  0.00    -0.003 C 
ATOM     11  C   UNL     1      -1.442   4.954  25.124  0.00  0.00    +0.008 C 
ATOM     12  C   UNL     1      -3.341   4.282  26.609  0.00  0.00    +0.008 C 
ENDBRANCH   8   9
ENDBRANCH   2   8
TORSDOF 3
ENDMDL
MODEL 8
REMARK VINA RESULT:      -1.2      1.540      6.996
REMARK  Name = 51137081
REMARK  5 active torsions:
REMARK  status: ('A' for Active; 'I' for Inactive)
REMARK    1  A    between atoms: N_2  and  C_8
REMARK    2  A    between atoms: C_4  and  C_10
REMARK    3  A    between atoms: C_8  and  C_9
REMARK    4  A    between atoms: C_9  and  C_11
REMARK    5  A    between atoms: C_9  and  C_12
REMARK                            x       y       z     vdW  Elec       q    Type
REMARK                         _______ _______ _______ _____ _____    ______ ____
ROOT
ATOM      2  N   UNL     1      -4.778   0.997  24.909  0.00  0.00    -0.301 NA
ATOM      4  C   UNL     1      -2.923   0.165  23.740  0.00  0.00    +0.060 C 
ATOM      5  C   UNL     1      -3.659   1.466  24.090  0.00  0.00    +0.094 C 
ATOM      6  C   UNL     1      -3.302  -0.812  24.868  0.00  0.00    +0.027 C 
ATOM      7  C   UNL     1      -4.199  -0.009  25.800  0.00  0.00    +0.085 C 
ENDROOT
BRANCH   4  10
ATOM      1  S   UNL     1      -0.672   1.707  24.272  0.00  0.00    -0.072 S 
ATOM      3  N   UNL     1      -0.671  -0.438  22.841  0.00  0.00    -0.244 NA
ATOM     10  C   UNL     1      -1.438   0.362  23.544  0.00  0.00    +0.084 A 
ATOM     13  C   UNL     1       0.833   1.202  23.601  0.00  0.00    +0.039 A 
ATOM     14  C   UNL     1       0.635   0.031  22.864  0.00  0.00    +0.078 A 
ATOM     15  C   UNL     1       2.099   1.798  23.718  0.00  0.00    +0.017 A 
ATOM     16  C   UNL     1       1.744  -0.562  22.223  0.00  0.00    +0.029 A 
ATOM     17  C   UNL     1       3.180   1.191  23.074  0.00  0.00    +0.001 A 
ATOM     18  C   UNL     1       3.007   0.026  22.335  0.00  0.00    +0.002 A 
ENDBRANCH   4  10
BRANCH   2   8
ATOM      8  C   UNL     1      -5.424   2.078  25.639  0.00  0.00    +0.087 C 
BRANCH   8   9
ATOM      9  C   UNL     1      -4.838   3.455  25.286  0.00  0.00    -0.003 C 
ATOM     11  C   UNL     1      -5.904   4.536  25.485  0.00  0.00    +0.008 C 
ATOM     12  C   UNL     1      -3.599   3.796  26.118  0.00  0.00    +0.008 C 
ENDBRANCH   8   9
ENDBRANCH   2   8
TORSDOF 3
ENDMDL
MODEL 9
REMARK VINA RESULT:      -1.2      1.312      7.285
REMARK  Name = 51137081
REMARK  5 active torsions:
REMARK  status: ('A' for Active; 'I' for Inactive)
REMARK    1  A    between atoms: N_2  and  C_8
REMARK    2  A    between atoms: C_4  and  C_10
REMARK    3  A    between atoms: C_8  and  C_9
REMARK    4  A    between atoms: C_9  and  C_11
REMARK    5  A    between atoms: C_9  and  C_12
REMARK                            x       y       z     vdW  Elec       q    Type
REMARK                         _______ _______ _______ _____ _____    ______ ____
ROOT
ATOM      2  N   UNL     1      -2.642   0.455  24.632  0.00  0.00    -0.301 NA
ATOM      4  C   UNL     1      -0.731  -0.433  23.603  0.00  0.00    +0.060 C 
ATOM      5  C   UNL     1      -1.449   0.891  23.904  0.00  0.00    +0.094 C 
ATOM      6  C   UNL     1      -1.225  -1.400  24.693  0.00  0.00    +0.027 C 
ATOM      7  C   UNL     1      -2.165  -0.572  25.558  0.00  0.00    +0.085 C 
ENDROOT
BRANCH   4  10
ATOM      1  S   UNL     1       1.434   1.226  23.065  0.00  0.00    -0.072 S 
ATOM      3  N   UNL     1       1.626  -1.244  23.779  0.00  0.00    -0.244 NA
ATOM     10  C   UNL     1       0.770  -0.283  23.521  0.00  0.00    +0.084 A 
ATOM     13  C   UNL     1       3.019   0.565  23.216  0.00  0.00    +0.039 A 
ATOM     14  C   UNL     1       2.920  -0.773  23.608  0.00  0.00    +0.078 A 
ATOM     15  C   UNL     1       4.260   1.185  23.002  0.00  0.00    +0.017 A 
ATOM     16  C   UNL     1       4.107  -1.514  23.793  0.00  0.00    +0.029 A 
ATOM     17  C   UNL     1       5.420   0.429  23.193  0.00  0.00    +0.001 A 
ATOM     18  C   UNL     1       5.346  -0.904  23.583  0.00  0.00    +0.002 A 
ENDBRANCH   4  10
BRANCH   2   8
ATOM      8  C   UNL     1      -3.307   1.554  25.318  0.00  0.00    +0.087 C 
BRANCH   8   9
ATOM      9  C   UNL     1      -4.357   2.247  24.434  0.00  0.00    -0.003 C 
ATOM     11  C   UNL     1      -5.745   2.085  25.057  0.00  0.00    +0.008 C 
ATOM     12  C   UNL     1      -4.057   3.734  24.223  0.00  0.00    +0.008 C 
ENDBRANCH   8   9
ENDBRANCH   2   8
TORSDOF 3
ENDMDL
MODEL 10
REMARK VINA RESULT:      -0.7      3.700      4.946
REMARK  Name = 51137081
REMARK  5 active torsions:
REMARK  status: ('A' for Active; 'I' for Inactive)
REMARK    1  A    between atoms: N_2  and  C_8
REMARK    2  A    between atoms: C_4  and  C_10
REMARK    3  A    between atoms: C_8  and  C_9
REMARK    4  A    between atoms: C_9  and  C_11
REMARK    5  A    between atoms: C_9  and  C_12
REMARK                            x       y       z     vdW  Elec       q    Type
REMARK                         _______ _______ _______ _____ _____    ______ ____
ROOT
ATOM      2  N   UNL     1       0.617   2.967  26.534  0.00  0.00    -0.301 NA
ATOM      4  C   UNL     1      -0.173   1.474  24.908  0.00  0.00    +0.060 C 
ATOM      5  C   UNL     1       0.242   1.560  26.383  0.00  0.00    +0.094 C 
ATOM      6  C   UNL     1      -0.592   2.907  24.537  0.00  0.00    +0.027 C 
ATOM      7  C   UNL     1      -0.418   3.713  25.818  0.00  0.00    +0.085 C 
ENDROOT
BRANCH   4  10
ATOM      1  S   UNL     1      -2.789   0.905  24.157  0.00  0.00    -0.072 S 
ATOM      3  N   UNL     1      -1.028  -0.871  24.785  0.00  0.00    -0.244 NA
ATOM     10  C   UNL     1      -1.225   0.420  24.653  0.00  0.00    +0.084 A 
ATOM     13  C   UNL     1      -3.276  -0.748  24.106  0.00  0.00    +0.039 A 
ATOM     14  C   UNL     1      -2.196  -1.554  24.476  0.00  0.00    +0.078 A 
ATOM     15  C   UNL     1      -4.525  -1.291  23.765  0.00  0.00    +0.017 A 
ATOM     16  C   UNL     1      -2.374  -2.954  24.502  0.00  0.00    +0.029 A 
ATOM     17  C   UNL     1      -4.674  -2.680  23.798  0.00  0.00    +0.001 A 
ATOM     18  C   UNL     1      -3.613  -3.503  24.162  0.00  0.00    +0.002 A 
ENDBRANCH   4  10
BRANCH   2   8
ATOM      8  C   UNL     1       0.723   3.368  27.930  0.00  0.00    +0.087 C 
BRANCH   8   9
ATOM      9  C   UNL     1       1.635   2.432  28.741  0.00  0.00    -0.003 C 
ATOM     11  C   UNL     1       3.069   2.966  28.725  0.00  0.00    +0.008 C 
ATOM     12  C   UNL     1       1.164   2.263  30.188  0.00  0.00    +0.008 C 
ENDBRANCH   8   9
ENDBRANCH   2   8
TORSDOF 3
ENDMDL
