MODEL 1
REMARK VINA RESULT:      -0.1      0.000      0.000
REMARK  Name = 45361282
REMARK  9 active torsions:
REMARK  status: ('A' for Active; 'I' for Inactive)
REMARK    1  A    between atoms: O_2  and  C_11
REMARK    2  A    between atoms: O_3  and  C_18
REMARK    3  A    between atoms: N_5  and  C_9
REMARK    4  A    between atoms: N_6  and  C_19
REMARK    5  A    between atoms: N_7  and  C_15
REMARK    6  A    between atoms: N_8  and  C_30
REMARK    7  A    between atoms: C_10  and  C_15
REMARK    8  A    between atoms: C_12  and  C_18
REMARK    9  A    between atoms: C_20  and  C_23
REMARK                            x       y       z     vdW  Elec       q    Type
REMARK                         _______ _______ _______ _____ _____    ______ ____
ROOT
ATOM      1  O   UNL     1      -4.186  -0.061  25.856  0.00  0.00    -0.365 OA
ATOM      9  C   UNL     1      -2.774  -1.016  24.194  0.00  0.00    +0.118 C 
ATOM     10  C   UNL     1      -2.932  -0.760  25.699  0.00  0.00    +0.155 C 
ATOM     11  C   UNL     1      -3.597   0.100  23.569  0.00  0.00    +0.165 C 
ATOM     12  C   UNL     1      -4.756   0.180  24.555  0.00  0.00    +0.174 C 
ENDROOT
BRANCH   9   5
ATOM      5  N   UNL     1      -1.413  -1.133  23.702  0.00  0.00    -0.292 NA
ATOM      6  N   UNL     1       1.381  -0.549  23.598  0.00  0.00    -0.327 N 
ATOM     13  C   UNL     1      -0.943   0.154  23.175  0.00  0.00    +0.104 C 
ATOM     14  C   UNL     1      -0.517  -1.592  24.770  0.00  0.00    +0.104 C 
ATOM     16  C   UNL     1       0.471   0.030  22.602  0.00  0.00    +0.120 C 
ATOM     17  C   UNL     1       0.911  -1.774  24.250  0.00  0.00    +0.120 C 
BRANCH   6  19
ATOM     19  C   UNL     1       2.754  -0.329  23.438  0.00  0.00    +0.030 A 
ATOM     21  C   UNL     1       3.668  -1.291  23.868  0.00  0.00    +0.023 A 
ATOM     22  C   UNL     1       3.208   0.850  22.849  0.00  0.00    +0.023 A 
ATOM     24  C   UNL     1       5.037  -1.072  23.709  0.00  0.00    +0.002 A 
ATOM     25  C   UNL     1       4.576   1.069  22.689  0.00  0.00    +0.002 A 
ATOM     26  C   UNL     1       5.491   0.108  23.120  0.00  0.00    +0.000 A 
ENDBRANCH   6  19
ENDBRANCH   9   5
BRANCH  11   2
ATOM      2  O   UNL     1      -2.879   1.326  23.546  0.00  0.00    -0.388 OA
ATOM     31  H   UNL     1      -3.442   1.989  23.112  0.00  0.00    +0.210 HD
ENDBRANCH  11   2
BRANCH  10  15
ATOM     15  C   UNL     1      -1.855   0.090  26.363  0.00  0.00    +0.137 C 
BRANCH  15   7
ATOM      4  O   UNL     1       0.202   2.071  26.661  0.00  0.00    -0.269 OA
ATOM      7  N   UNL     1      -1.885   1.436  25.873  0.00  0.00    -0.308 N 
ATOM     20  C   UNL     1      -0.839   2.334  26.064  0.00  0.00    +0.261 C 
ATOM     32  H   UNL     1      -2.714   1.734  25.367  0.00  0.00    +0.149 HD
BRANCH  20  23
ATOM      8  N   UNL     1      -2.164   4.458  25.704  0.00  0.00    -0.346 N 
ATOM     23  C   UNL     1      -1.037   3.701  25.517  0.00  0.00    +0.104 A 
ATOM     27  C   UNL     1      -0.158   4.435  24.751  0.00  0.00    +0.032 A 
ATOM     28  C   UNL     1      -2.017   5.665  25.070  0.00  0.00    +0.086 A 
ATOM     29  C   UNL     1      -0.777   5.677  24.468  0.00  0.00    +0.020 A 
ATOM     30  C   UNL     1      -3.336   4.062  26.453  0.00  0.00    +0.149 C 
ENDBRANCH  20  23
ENDBRANCH  15   7
ENDBRANCH  10  15
BRANCH  12  18
ATOM     18  C   UNL     1      -5.506   1.500  24.574  0.00  0.00    +0.190 C 
BRANCH  18   3
ATOM      3  O   UNL     1      -6.025   1.715  25.877  0.00  0.00    -0.392 OA
ATOM     33  H   UNL     1      -6.978   1.527  25.840  0.00  0.00    +0.210 HD
ENDBRANCH  18   3
ENDBRANCH  12  18
TORSDOF 8
ENDMDL
MODEL 2
REMARK VINA RESULT:       0.3      1.901      4.605
REMARK  Name = 45361282
REMARK  9 active torsions:
REMARK  status: ('A' for Active; 'I' for Inactive)
REMARK    1  A    between atoms: O_2  and  C_11
REMARK    2  A    between atoms: O_3  and  C_18
REMARK    3  A    between atoms: N_5  and  C_9
REMARK    4  A    between atoms: N_6  and  C_19
REMARK    5  A    between atoms: N_7  and  C_15
REMARK    6  A    between atoms: N_8  and  C_30
REMARK    7  A    between atoms: C_10  and  C_15
REMARK    8  A    between atoms: C_12  and  C_18
REMARK    9  A    between atoms: C_20  and  C_23
REMARK                            x       y       z     vdW  Elec       q    Type
REMARK                         _______ _______ _______ _____ _____    ______ ____
ROOT
ATOM      1  O   UNL     1      -5.448   3.355  24.416  0.00  0.00    -0.365 OA
ATOM      9  C   UNL     1      -3.143   3.084  23.887  0.00  0.00    +0.118 C 
ATOM     10  C   UNL     1      -4.489   2.357  24.002  0.00  0.00    +0.155 C 
ATOM     11  C   UNL     1      -3.300   4.251  24.850  0.00  0.00    +0.165 C 
ATOM     12  C   UNL     1      -4.765   4.606  24.623  0.00  0.00    +0.174 C 
ENDROOT
BRANCH   9   5
ATOM      5  N   UNL     1      -1.955   2.272  24.086  0.00  0.00    -0.292 NA
ATOM      6  N   UNL     1       0.695   1.352  23.548  0.00  0.00    -0.327 N 
ATOM     13  C   UNL     1      -1.678   1.463  22.893  0.00  0.00    +0.104 C 
ATOM     14  C   UNL     1      -0.797   3.119  24.395  0.00  0.00    +0.104 C 
ATOM     16  C   UNL     1      -0.462   0.561  23.111  0.00  0.00    +0.120 C 
ATOM     17  C   UNL     1       0.449   2.272  24.663  0.00  0.00    +0.120 C 
BRANCH   6  19
ATOM     19  C   UNL     1       1.971   0.807  23.367  0.00  0.00    +0.030 A 
ATOM     21  C   UNL     1       2.176  -0.562  23.544  0.00  0.00    +0.023 A 
ATOM     22  C   UNL     1       3.037   1.630  23.006  0.00  0.00    +0.023 A 
ATOM     24  C   UNL     1       3.448  -1.105  23.363  0.00  0.00    +0.002 A 
ATOM     25  C   UNL     1       4.308   1.087  22.825  0.00  0.00    +0.002 A 
ATOM     26  C   UNL     1       4.515  -0.281  23.003  0.00  0.00    +0.000 A 
ENDBRANCH   6  19
ENDBRANCH   9   5
BRANCH  11   2
ATOM      2  O   UNL     1      -3.091   3.847  26.196  0.00  0.00    -0.388 OA
ATOM     31  H   UNL     1      -3.519   2.982  26.315  0.00  0.00    +0.210 HD
ENDBRANCH  11   2
BRANCH  10  15
ATOM     15  C   UNL     1      -4.564   1.214  25.008  0.00  0.00    +0.137 C 
BRANCH  15   7
ATOM      4  O   UNL     1      -3.630  -1.030  26.536  0.00  0.00    -0.269 OA
ATOM      7  N   UNL     1      -3.928   0.035  24.498  0.00  0.00    -0.308 N 
ATOM     20  C   UNL     1      -3.505  -1.009  25.315  0.00  0.00    +0.261 C 
ATOM     32  H   UNL     1      -3.787  -0.026  23.494  0.00  0.00    +0.149 HD
BRANCH  20  23
ATOM      8  N   UNL     1      -1.498  -2.423  24.704  0.00  0.00    -0.346 N 
ATOM     23  C   UNL     1      -2.839  -2.149  24.634  0.00  0.00    +0.104 A 
ATOM     27  C   UNL     1      -3.424  -3.109  23.837  0.00  0.00    +0.032 A 
ATOM     28  C   UNL     1      -1.218  -3.542  23.965  0.00  0.00    +0.086 A 
ATOM     29  C   UNL     1      -2.399  -3.990  23.413  0.00  0.00    +0.020 A 
ATOM     30  C   UNL     1      -0.515  -1.659  25.440  0.00  0.00    +0.149 C 
ENDBRANCH  20  23
ENDBRANCH  15   7
ENDBRANCH  10  15
BRANCH  12  18
ATOM     18  C   UNL     1      -5.436   5.361  25.757  0.00  0.00    +0.190 C 
BRANCH  18   3
ATOM      3  O   UNL     1      -6.677   4.740  26.050  0.00  0.00    -0.392 OA
ATOM     33  H   UNL     1      -7.013   5.145  26.868  0.00  0.00    +0.210 HD
ENDBRANCH  18   3
ENDBRANCH  12  18
TORSDOF 8
ENDMDL
MODEL 3
REMARK VINA RESULT:       1.0      1.722      4.577
REMARK  Name = 45361282
REMARK  9 active torsions:
REMARK  status: ('A' for Active; 'I' for Inactive)
REMARK    1  A    between atoms: O_2  and  C_11
REMARK    2  A    between atoms: O_3  and  C_18
REMARK    3  A    between atoms: N_5  and  C_9
REMARK    4  A    between atoms: N_6  and  C_19
REMARK    5  A    between atoms: N_7  and  C_15
REMARK    6  A    between atoms: N_8  and  C_30
REMARK    7  A    between atoms: C_10  and  C_15
REMARK    8  A    between atoms: C_12  and  C_18
REMARK    9  A    between atoms: C_20  and  C_23
REMARK                            x       y       z     vdW  Elec       q    Type
REMARK                         _______ _______ _______ _____ _____    ______ ____
ROOT
ATOM      1  O   UNL     1      -5.086   3.818  24.679  0.00  0.00    -0.365 OA
ATOM      9  C   UNL     1      -2.825   3.973  25.409  0.00  0.00    +0.118 C 
ATOM     10  C   UNL     1      -3.748   4.049  24.185  0.00  0.00    +0.155 C 
ATOM     11  C   UNL     1      -3.599   3.080  26.366  0.00  0.00    +0.165 C 
ATOM     12  C   UNL     1      -5.025   3.542  26.092  0.00  0.00    +0.174 C 
ENDROOT
BRANCH   9   5
ATOM      5  N   UNL     1      -1.454   3.568  25.154  0.00  0.00    -0.292 NA
ATOM      6  N   UNL     1       0.625   1.970  24.022  0.00  0.00    -0.327 N 
ATOM     13  C   UNL     1      -1.222   2.201  25.637  0.00  0.00    +0.104 C 
ATOM     14  C   UNL     1      -1.151   3.649  23.720  0.00  0.00    +0.104 C 
ATOM     16  C   UNL     1       0.235   1.783  25.425  0.00  0.00    +0.120 C 
ATOM     17  C   UNL     1       0.308   3.280  23.445  0.00  0.00    +0.120 C 
BRANCH   6  19
ATOM     19  C   UNL     1       1.725   1.248  23.545  0.00  0.00    +0.030 A 
ATOM     21  C   UNL     1       2.920   1.907  23.256  0.00  0.00    +0.023 A 
ATOM     22  C   UNL     1       1.627  -0.130  23.359  0.00  0.00    +0.023 A 
ATOM     24  C   UNL     1       4.016   1.187  22.780  0.00  0.00    +0.002 A 
ATOM     25  C   UNL     1       2.723  -0.850  22.884  0.00  0.00    +0.002 A 
ATOM     26  C   UNL     1       3.918  -0.192  22.594  0.00  0.00    +0.000 A 
ENDBRANCH   6  19
ENDBRANCH   9   5
BRANCH  11   2
ATOM      2  O   UNL     1      -3.450   1.706  26.032  0.00  0.00    -0.388 OA
ATOM     31  H   UNL     1      -3.062   1.256  26.802  0.00  0.00    +0.210 HD
ENDBRANCH  11   2
BRANCH  10  15
ATOM     15  C   UNL     1      -3.495   3.035  23.075  0.00  0.00    +0.137 C 
BRANCH  15   7
ATOM      4  O   UNL     1      -1.897   0.722  22.491  0.00  0.00    -0.269 OA
ATOM      7  N   UNL     1      -3.723   1.698  23.537  0.00  0.00    -0.308 N 
ATOM     20  C   UNL     1      -2.893   0.631  23.203  0.00  0.00    +0.261 C 
ATOM     32  H   UNL     1      -4.530   1.537  24.133  0.00  0.00    +0.149 HD
BRANCH  20  23
ATOM      8  N   UNL     1      -2.508  -1.454  24.583  0.00  0.00    -0.346 N 
ATOM     23  C   UNL     1      -3.282  -0.698  23.741  0.00  0.00    +0.104 A 
ATOM     27  C   UNL     1      -4.449  -1.391  23.506  0.00  0.00    +0.032 A 
ATOM     28  C   UNL     1      -3.163  -2.617  24.889  0.00  0.00    +0.086 A 
ATOM     29  C   UNL     1      -4.374  -2.606  24.232  0.00  0.00    +0.020 A 
ATOM     30  C   UNL     1      -1.198  -1.093  25.081  0.00  0.00    +0.149 C 
ENDBRANCH  20  23
ENDBRANCH  15   7
ENDBRANCH  10  15
BRANCH  12  18
ATOM     18  C   UNL     1      -6.114   2.549  26.456  0.00  0.00    +0.190 C 
BRANCH  18   3
ATOM      3  O   UNL     1      -6.486   1.829  25.291  0.00  0.00    -0.392 OA
ATOM     33  H   UNL     1      -7.392   1.505  25.432  0.00  0.00    +0.210 HD
ENDBRANCH  18   3
ENDBRANCH  12  18
TORSDOF 8
ENDMDL
MODEL 4
REMARK VINA RESULT:       2.8      2.091      6.355
REMARK  Name = 45361282
REMARK  9 active torsions:
REMARK  status: ('A' for Active; 'I' for Inactive)
REMARK    1  A    between atoms: O_2  and  C_11
REMARK    2  A    between atoms: O_3  and  C_18
REMARK    3  A    between atoms: N_5  and  C_9
REMARK    4  A    between atoms: N_6  and  C_19
REMARK    5  A    between atoms: N_7  and  C_15
REMARK    6  A    between atoms: N_8  and  C_30
REMARK    7  A    between atoms: C_10  and  C_15
REMARK    8  A    between atoms: C_12  and  C_18
REMARK    9  A    between atoms: C_20  and  C_23
REMARK                            x       y       z     vdW  Elec       q    Type
REMARK                         _______ _______ _______ _____ _____    ______ ____
ROOT
ATOM      1  O   UNL     1       3.186   0.950  23.466  0.00  0.00    -0.365 OA
ATOM      9  C   UNL     1       1.044   0.449  22.555  0.00  0.00    +0.118 C 
ATOM     10  C   UNL     1       1.834   1.455  23.402  0.00  0.00    +0.155 C 
ATOM     11  C   UNL     1       1.820  -0.845  22.749  0.00  0.00    +0.165 C 
ATOM     12  C   UNL     1       3.248  -0.315  22.779  0.00  0.00    +0.174 C 
ENDROOT
BRANCH   9   5
ATOM      5  N   UNL     1      -0.381   0.365  22.822  0.00  0.00    -0.292 NA
ATOM      6  N   UNL     1      -2.837   1.046  24.112  0.00  0.00    -0.327 N 
ATOM     13  C   UNL     1      -0.621  -0.028  24.216  0.00  0.00    +0.104 C 
ATOM     14  C   UNL     1      -1.034   1.650  22.547  0.00  0.00    +0.104 C 
ATOM     16  C   UNL     1      -2.119  -0.176  24.495  0.00  0.00    +0.120 C 
ATOM     17  C   UNL     1      -2.545   1.559  22.770  0.00  0.00    +0.120 C 
BRANCH   6  19
ATOM     19  C   UNL     1      -4.091   1.279  24.687  0.00  0.00    +0.030 A 
ATOM     21  C   UNL     1      -4.572   0.426  25.681  0.00  0.00    +0.023 A 
ATOM     22  C   UNL     1      -4.861   2.363  24.268  0.00  0.00    +0.023 A 
ATOM     24  C   UNL     1      -5.823   0.658  26.253  0.00  0.00    +0.002 A 
ATOM     25  C   UNL     1      -6.111   2.596  24.840  0.00  0.00    +0.002 A 
ATOM     26  C   UNL     1      -6.592   1.743  25.833  0.00  0.00    +0.000 A 
ENDBRANCH   6  19
ENDBRANCH   9   5
BRANCH  11   2
ATOM      2  O   UNL     1       1.495  -1.466  23.986  0.00  0.00    -0.388 OA
ATOM     31  H   UNL     1       0.806  -2.129  23.811  0.00  0.00    +0.210 HD
ENDBRANCH  11   2
BRANCH  10  15
ATOM     15  C   UNL     1       1.362   1.660  24.837  0.00  0.00    +0.137 C 
BRANCH  15   7
ATOM      4  O   UNL     1      -0.154   2.383  27.166  0.00  0.00    -0.269 OA
ATOM      7  N   UNL     1       0.256   2.570  24.891  0.00  0.00    -0.308 N 
ATOM     20  C   UNL     1      -0.425   2.863  26.069  0.00  0.00    +0.261 C 
ATOM     32  H   UNL     1      -0.033   3.011  24.023  0.00  0.00    +0.149 HD
BRANCH  20  23
ATOM      8  N   UNL     1      -1.571   4.929  25.164  0.00  0.00    -0.346 N 
ATOM     23  C   UNL     1      -1.566   3.807  25.952  0.00  0.00    +0.104 A 
ATOM     27  C   UNL     1      -2.786   3.733  26.586  0.00  0.00    +0.032 A 
ATOM     28  C   UNL     1      -2.776   5.570  25.285  0.00  0.00    +0.086 A 
ATOM     29  C   UNL     1      -3.552   4.848  26.165  0.00  0.00    +0.020 A 
ATOM     30  C   UNL     1      -0.481   5.380  24.326  0.00  0.00    +0.149 C 
ENDBRANCH  20  23
ENDBRANCH  15   7
ENDBRANCH  10  15
BRANCH  12  18
ATOM     18  C   UNL     1       4.262  -1.210  23.469  0.00  0.00    +0.190 C 
BRANCH  18   3
ATOM      3  O   UNL     1       5.117  -0.406  24.265  0.00  0.00    -0.392 OA
ATOM     33  H   UNL     1       5.955  -0.889  24.363  0.00  0.00    +0.210 HD
ENDBRANCH  18   3
ENDBRANCH  12  18
TORSDOF 8
ENDMDL
