MODEL 1
REMARK VINA RESULT:      -8.9      0.000      0.000
REMARK  Name = 51137969
REMARK  7 active torsions:
REMARK  status: ('A' for Active; 'I' for Inactive)
REMARK    1  A    between atoms: N_4  and  C_21
REMARK    2  A    between atoms: C_5  and  C_6
REMARK    3  A    between atoms: C_6  and  C_12
REMARK    4  A    between atoms: C_8  and  C_16
REMARK    5  A    between atoms: C_12  and  C_17
REMARK    6  A    between atoms: C_12  and  C_18
REMARK    7  A    between atoms: C_21  and  C_22
REMARK                            x       y       z     vdW  Elec       q    Type
REMARK                         _______ _______ _______ _____ _____    ______ ____
ROOT
ATOM      2  N   UNL     1      -1.066   0.011  24.768  0.00  0.00    -0.299 NA
ATOM      3  N   UNL     1      -1.976   4.948  25.313  0.00  0.00    -0.360 N 
ATOM      5  C   UNL     1      -2.525   0.156  24.690  0.00  0.00    +0.085 C 
ATOM      7  C   UNL     1      -3.076   1.550  25.012  0.00  0.00    -0.021 A 
ATOM      8  C   UNL     1      -0.323   0.808  23.802  0.00  0.00    +0.145 C 
ATOM      9  C   UNL     1      -2.307   2.750  25.040  0.00  0.00    +0.008 A 
ATOM     10  C   UNL     1       0.171   2.116  24.417  0.00  0.00    +0.065 C 
ATOM     11  C   UNL     1      -0.923   3.057  24.797  0.00  0.00    -0.020 A 
ATOM     13  C   UNL     1      -2.936   3.964  25.337  0.00  0.00    +0.047 A 
ATOM     14  C   UNL     1      -4.470   1.695  25.228  0.00  0.00    +0.006 A 
ATOM     15  C   UNL     1      -0.764   4.414  24.985  0.00  0.00    +0.087 A 
ATOM     19  C   UNL     1      -4.304   4.080  25.591  0.00  0.00    +0.026 A 
ATOM     20  C   UNL     1      -5.065   2.921  25.519  0.00  0.00    +0.002 A 
ATOM     24  H   UNL     1      -0.732   0.176  25.716  0.00  0.00    +0.123 HD
ATOM     25  H   UNL     1      -2.147   5.926  25.496  0.00  0.00    +0.165 HD
ENDROOT
BRANCH   8  16
ATOM      1  O   UNL     1       0.998  -1.180  23.841  0.00  0.00    -0.274 OA
ATOM      4  N   UNL     1       1.739   0.643  22.597  0.00  0.00    -0.303 N 
ATOM     16  C   UNL     1       0.859  -0.033  23.424  0.00  0.00    +0.231 C 
ATOM     26  H   UNL     1       1.513   1.586  22.293  0.00  0.00    +0.150 HD
BRANCH   4  21
ATOM     21  C   UNL     1       2.968   0.062  22.108  0.00  0.00    +0.193 C 
BRANCH  21  22
ATOM     22  C   UNL     1       4.091   0.384  22.990  0.00  0.00    -0.087 C 
ATOM     23  C   UNL     1       5.015   0.644  23.710  0.00  0.00    +0.005 C 
ENDBRANCH  21  22
ENDBRANCH   4  21
ENDBRANCH   8  16
BRANCH   5   6
ATOM      6  C   UNL     1      -3.075  -0.928  25.634  0.00  0.00    +0.026 C 
BRANCH   6  12
ATOM     12  C   UNL     1      -3.428  -2.229  24.908  0.00  0.00    -0.015 C 
ATOM     17  C   UNL     1      -2.142  -2.895  24.412  0.00  0.00    +0.007 C 
ATOM     18  C   UNL     1      -4.382  -2.009  23.733  0.00  0.00    +0.007 C 
ENDBRANCH   6  12
ENDBRANCH   5   6
TORSDOF 5
ENDMDL
