MODEL 1
REMARK VINA RESULT:      13.2      0.000      0.000
REMARK  Name = 40777714
REMARK  16 active torsions:
REMARK  status: ('A' for Active; 'I' for Inactive)
REMARK    1  A    between atoms: O_2  and  C_28
REMARK    2  A    between atoms: N_4  and  C_9
REMARK    3  A    between atoms: N_5  and  C_22
REMARK    4  A    between atoms: C_7  and  C_10
REMARK    5  A    between atoms: C_13  and  C_14
REMARK    6  A    between atoms: C_13  and  C_18
REMARK    7  A    between atoms: C_13  and  C_19
REMARK    8  A    between atoms: C_13  and  C_20
REMARK    9  A    between atoms: C_14  and  C_17
REMARK   10  A    between atoms: C_15  and  C_21
REMARK   11  A    between atoms: C_16  and  C_24
REMARK   12  A    between atoms: C_18  and  C_28
REMARK   13  A    between atoms: C_23  and  C_25
REMARK   14  A    between atoms: C_23  and  C_31
REMARK   15  A    between atoms: C_23  and  C_32
REMARK   16  A    between atoms: C_23  and  C_33
REMARK                            x       y       z     vdW  Elec       q    Type
REMARK                         _______ _______ _______ _____ _____    ______ ____
ROOT
ATOM      7  C   UNL     1      -2.426   0.287  24.668  0.00  0.00    +0.047 C 
ATOM      8  C   UNL     1      -3.300   0.575  23.429  0.00  0.00    +0.039 C 
ATOM      9  C   UNL     1      -4.752   0.383  23.888  0.00  0.00    +0.097 C 
ATOM     11  C   UNL     1      -3.341  -0.541  25.523  0.00  0.00    -0.021 C 
ATOM     12  C   UNL     1      -4.607  -0.482  25.096  0.00  0.00    -0.009 C 
ENDROOT
BRANCH   7  10
ATOM      5  N   UNL     1       1.001  -0.784  23.946  0.00  0.00    -0.236 N 
ATOM      6  N   UNL     1       0.408  -1.969  23.728  0.00  0.00    -0.171 NA
ATOM     10  C   UNL     1      -1.109  -0.371  24.329  0.00  0.00    +0.003 A 
ATOM     15  C   UNL     1       0.137   0.207  24.308  0.00  0.00    +0.046 A 
ATOM     16  C   UNL     1      -0.882  -1.711  23.963  0.00  0.00    +0.064 A 
ATOM     21  C   UNL     1       0.565   1.591  24.600  0.00  0.00    +0.066 C 
ATOM     24  C   UNL     1      -1.874  -2.791  23.824  0.00  0.00    +0.068 C 
BRANCH   5  22
ATOM     22  C   UNL     1       2.383  -0.662  23.793  0.00  0.00    +0.066 A 
ATOM     25  C   UNL     1       5.145  -0.414  23.494  0.00  0.00    -0.042 A 
ATOM     26  C   UNL     1       3.222  -1.712  24.168  0.00  0.00    +0.028 A 
ATOM     27  C   UNL     1       2.925   0.511  23.269  0.00  0.00    +0.028 A 
ATOM     29  C   UNL     1       4.603  -1.587  24.018  0.00  0.00    +0.006 A 
ATOM     30  C   UNL     1       4.306   0.635  23.120  0.00  0.00    +0.006 A 
BRANCH  25  23
ATOM     23  C   UNL     1       6.622  -0.281  23.335  0.00  0.00    -0.013 C 
ATOM     31  C   UNL     1       7.385  -1.108  24.417  0.00  0.00    +0.015 C 
ATOM     32  C   UNL     1       7.075   1.205  23.474  0.00  0.00    +0.015 C 
ATOM     33  C   UNL     1       7.195  -0.765  21.962  0.00  0.00    +0.015 C 
ENDBRANCH  25  23
ENDBRANCH   5  22
ENDBRANCH   7  10
BRANCH   9   4
ATOM      1  O   UNL     1      -5.707   1.097  26.503  0.00  0.00    -0.276 OA
ATOM      4  N   UNL     1      -5.384   1.619  24.266  0.00  0.00    -0.309 N 
ATOM     17  C   UNL     1      -5.813   1.874  25.557  0.00  0.00    +0.214 C 
ATOM     34  H   UNL     1      -5.551   2.317  23.546  0.00  0.00    +0.149 HD
BRANCH  17  14
ATOM     14  C   UNL     1      -6.446   3.248  25.716  0.00  0.00    +0.102 C 
BRANCH  14  13
ATOM     13  C   UNL     1      -5.482   4.439  25.479  0.00  0.00    -0.017 C 
ATOM     19  C   UNL     1      -4.851   4.350  24.073  0.00  0.00    +0.012 C 
ATOM     20  C   UNL     1      -6.312   5.740  25.531  0.00  0.00    +0.012 C 
BRANCH  13  18
ATOM     18  C   UNL     1      -4.334   4.498  26.515  0.00  0.00    +0.127 C 
BRANCH  18  28
ATOM      3  O   UNL     1      -2.548   2.982  25.905  0.00  0.00    -0.251 OA
ATOM     28  C   UNL     1      -2.970   4.129  25.974  0.00  0.00    +0.305 C 
BRANCH  28   2
ATOM      2  O   UNL     1      -2.250   5.209  25.579  0.00  0.00    -0.481 OA
ATOM     35  H   UNL     1      -2.718   5.727  24.890  0.00  0.00    +0.295 HD
ENDBRANCH  28   2
ENDBRANCH  18  28
ENDBRANCH  13  18
ENDBRANCH  14  13
ENDBRANCH  17  14
ENDBRANCH   9   4
TORSDOF 9
ENDMDL
MODEL 2
REMARK VINA RESULT:      13.5      1.412      2.704
REMARK  Name = 40777714
REMARK  16 active torsions:
REMARK  status: ('A' for Active; 'I' for Inactive)
REMARK    1  A    between atoms: O_2  and  C_28
REMARK    2  A    between atoms: N_4  and  C_9
REMARK    3  A    between atoms: N_5  and  C_22
REMARK    4  A    between atoms: C_7  and  C_10
REMARK    5  A    between atoms: C_13  and  C_14
REMARK    6  A    between atoms: C_13  and  C_18
REMARK    7  A    between atoms: C_13  and  C_19
REMARK    8  A    between atoms: C_13  and  C_20
REMARK    9  A    between atoms: C_14  and  C_17
REMARK   10  A    between atoms: C_15  and  C_21
REMARK   11  A    between atoms: C_16  and  C_24
REMARK   12  A    between atoms: C_18  and  C_28
REMARK   13  A    between atoms: C_23  and  C_25
REMARK   14  A    between atoms: C_23  and  C_31
REMARK   15  A    between atoms: C_23  and  C_32
REMARK   16  A    between atoms: C_23  and  C_33
REMARK                            x       y       z     vdW  Elec       q    Type
REMARK                         _______ _______ _______ _____ _____    ______ ____
ROOT
ATOM      7  C   UNL     1      -1.725   0.882  23.610  0.00  0.00    +0.047 C 
ATOM      8  C   UNL     1      -1.677   2.174  24.451  0.00  0.00    +0.039 C 
ATOM      9  C   UNL     1      -2.571   3.184  23.719  0.00  0.00    +0.097 C 
ATOM     11  C   UNL     1      -2.149   1.390  22.262  0.00  0.00    -0.021 C 
ATOM     12  C   UNL     1      -2.613   2.643  22.329  0.00  0.00    -0.009 C 
ENDROOT
BRANCH   7  10
ATOM      5  N   UNL     1       1.688  -0.448  23.595  0.00  0.00    -0.236 N 
ATOM      6  N   UNL     1       1.050  -1.628  23.662  0.00  0.00    -0.171 NA
ATOM     10  C   UNL     1      -0.421   0.117  23.616  0.00  0.00    +0.003 A 
ATOM     15  C   UNL     1       0.852   0.629  23.564  0.00  0.00    +0.046 A 
ATOM     16  C   UNL     1      -0.239  -1.277  23.674  0.00  0.00    +0.064 A 
ATOM     21  C   UNL     1       1.329   2.025  23.492  0.00  0.00    +0.066 C 
ATOM     24  C   UNL     1      -1.274  -2.323  23.745  0.00  0.00    +0.068 C 
BRANCH   5  22
ATOM     22  C   UNL     1       3.082  -0.415  23.562  0.00  0.00    +0.066 A 
ATOM     25  C   UNL     1       5.870  -0.343  23.504  0.00  0.00    -0.042 A 
ATOM     26  C   UNL     1       3.817  -1.522  23.986  0.00  0.00    +0.028 A 
ATOM     27  C   UNL     1       3.742   0.728  23.109  0.00  0.00    +0.028 A 
ATOM     29  C   UNL     1       5.211  -1.486  23.957  0.00  0.00    +0.006 A 
ATOM     30  C   UNL     1       5.135   0.763  23.080  0.00  0.00    +0.006 A 
BRANCH  25  23
ATOM     23  C   UNL     1       7.361  -0.306  23.473  0.00  0.00    -0.013 C 
ATOM     31  C   UNL     1       7.922  -1.086  22.244  0.00  0.00    +0.015 C 
ATOM     32  C   UNL     1       7.970  -0.950  24.757  0.00  0.00    +0.015 C 
ATOM     33  C   UNL     1       7.995   1.121  23.384  0.00  0.00    +0.015 C 
ENDBRANCH  25  23
ENDBRANCH   5  22
ENDBRANCH   7  10
BRANCH   9   4
ATOM      1  O   UNL     1      -3.348   4.023  26.357  0.00  0.00    -0.276 OA
ATOM      4  N   UNL     1      -3.907   3.229  24.249  0.00  0.00    -0.309 N 
ATOM     17  C   UNL     1      -4.186   3.650  25.539  0.00  0.00    +0.214 C 
ATOM     34  H   UNL     1      -4.672   2.907  23.662  0.00  0.00    +0.149 HD
BRANCH  17  14
ATOM     14  C   UNL     1      -5.670   3.616  25.870  0.00  0.00    +0.102 C 
BRANCH  14  13
ATOM     13  C   UNL     1      -6.273   2.194  26.009  0.00  0.00    -0.017 C 
ATOM     19  C   UNL     1      -7.357   2.174  27.107  0.00  0.00    +0.012 C 
ATOM     20  C   UNL     1      -6.961   1.837  24.674  0.00  0.00    +0.012 C 
BRANCH  13  18
ATOM     18  C   UNL     1      -5.213   1.124  26.365  0.00  0.00    +0.127 C 
BRANCH  18  28
ATOM      3  O   UNL     1      -5.017   0.511  24.030  0.00  0.00    -0.251 OA
ATOM     28  C   UNL     1      -4.758   0.269  25.202  0.00  0.00    +0.305 C 
BRANCH  28   2
ATOM      2  O   UNL     1      -4.033  -0.808  25.593  0.00  0.00    -0.481 OA
ATOM     35  H   UNL     1      -3.251  -0.548  26.125  0.00  0.00    +0.295 HD
ENDBRANCH  28   2
ENDBRANCH  18  28
ENDBRANCH  13  18
ENDBRANCH  14  13
ENDBRANCH  17  14
ENDBRANCH   9   4
TORSDOF 9
ENDMDL
