MODEL 1
REMARK VINA RESULT:       3.9      0.000      0.000
REMARK  Name = 51137521
REMARK  9 active torsions:
REMARK  status: ('A' for Active; 'I' for Inactive)
REMARK    1  A    between atoms: O_2  and  C_27
REMARK    2  A    between atoms: N_4  and  C_12
REMARK    3  A    between atoms: N_7  and  C_24
REMARK    4  A    between atoms: N_7  and  C_28
REMARK    5  A    between atoms: N_7  and  C_29
REMARK    6  A    between atoms: C_8  and  C_13
REMARK    7  A    between atoms: C_12  and  C_14
REMARK    8  A    between atoms: C_15  and  C_18
REMARK    9  A    between atoms: C_21  and  C_27
REMARK                            x       y       z     vdW  Elec       q    Type
REMARK                         _______ _______ _______ _____ _____    ______ ____
ROOT
ATOM      4  N   UNL     1      -5.624   2.458  25.835  0.00  0.00    -0.297 NA
ATOM      8  C   UNL     1      -3.845   3.984  25.771  0.00  0.00    +0.092 C 
ATOM      9  C   UNL     1      -4.902   4.382  24.726  0.00  0.00    +0.029 C 
ATOM     10  C   UNL     1      -4.196   2.538  26.147  0.00  0.00    +0.097 C 
ATOM     11  C   UNL     1      -5.768   3.141  24.550  0.00  0.00    +0.085 C 
ENDROOT
BRANCH   8  13
ATOM      1  O   UNL     1      -1.761   3.013  24.925  0.00  0.00    -0.420 OA
ATOM      5  N   UNL     1      -1.675   5.227  25.238  0.00  0.00    -0.112 NA
ATOM      6  N   UNL     1      -0.445   4.814  24.762  0.00  0.00    -0.107 NA
ATOM     13  C   UNL     1      -2.412   4.143  25.316  0.00  0.00    +0.222 A 
ATOM     15  C   UNL     1      -0.541   3.516  24.595  0.00  0.00    +0.248 A 
BRANCH  15  18
ATOM     18  C   UNL     1       0.423   2.564  24.124  0.00  0.00    +0.039 A 
ATOM     22  C   UNL     1       1.624   3.005  23.568  0.00  0.00    +0.015 A 
ATOM     23  C   UNL     1       0.161   1.198  24.225  0.00  0.00    +0.015 A 
ATOM     24  C   UNL     1       2.300   0.712  23.211  0.00  0.00    +0.029 A 
ATOM     25  C   UNL     1       2.562   2.079  23.111  0.00  0.00    +0.024 A 
ATOM     26  C   UNL     1       1.099   0.272  23.768  0.00  0.00    +0.024 A 
BRANCH  24   7
ATOM      7  N   UNL     1       3.248  -0.224  22.748  0.00  0.00    -0.336 N 
ATOM     28  C   UNL     1       3.549  -1.409  23.527  0.00  0.00    +0.129 C 
ATOM     29  C   UNL     1       3.939  -0.008  21.492  0.00  0.00    +0.129 C 
ENDBRANCH  24   7
ENDBRANCH  15  18
ENDBRANCH   8  13
BRANCH   4  12
ATOM     12  C   UNL     1      -6.107   1.085  25.789  0.00  0.00    +0.119 C 
BRANCH  12  14
ATOM     14  C   UNL     1      -5.014   0.119  25.417  0.00  0.00    -0.033 A 
ATOM     16  C   UNL     1      -4.860  -0.282  24.091  0.00  0.00    +0.006 A 
ATOM     17  C   UNL     1      -4.156  -0.375  26.400  0.00  0.00    +0.006 A 
ATOM     19  C   UNL     1      -3.848  -1.178  23.746  0.00  0.00    +0.015 A 
ATOM     20  C   UNL     1      -3.144  -1.271  26.056  0.00  0.00    +0.015 A 
ATOM     21  C   UNL     1      -2.989  -1.672  24.728  0.00  0.00    +0.059 A 
BRANCH  21  27
ATOM      3  O   UNL     1      -2.029  -3.508  23.532  0.00  0.00    -0.245 OA
ATOM     27  C   UNL     1      -1.933  -2.605  24.369  0.00  0.00    +0.337 C 
BRANCH  27   2
ATOM      2  O   UNL     1      -0.784  -2.384  25.065  0.00  0.00    -0.477 OA
ATOM     30  H   UNL     1      -0.376  -1.522  24.833  0.00  0.00    +0.295 HD
ENDBRANCH  27   2
ENDBRANCH  21  27
ENDBRANCH  12  14
ENDBRANCH   4  12
TORSDOF 7
ENDMDL
MODEL 2
REMARK VINA RESULT:       4.4      2.212      4.842
REMARK  Name = 51137521
REMARK  9 active torsions:
REMARK  status: ('A' for Active; 'I' for Inactive)
REMARK    1  A    between atoms: O_2  and  C_27
REMARK    2  A    between atoms: N_4  and  C_12
REMARK    3  A    between atoms: N_7  and  C_24
REMARK    4  A    between atoms: N_7  and  C_28
REMARK    5  A    between atoms: N_7  and  C_29
REMARK    6  A    between atoms: C_8  and  C_13
REMARK    7  A    between atoms: C_12  and  C_14
REMARK    8  A    between atoms: C_15  and  C_18
REMARK    9  A    between atoms: C_21  and  C_27
REMARK                            x       y       z     vdW  Elec       q    Type
REMARK                         _______ _______ _______ _____ _____    ______ ____
ROOT
ATOM      4  N   UNL     1      -6.188   2.571  25.365  0.00  0.00    -0.297 NA
ATOM      8  C   UNL     1      -5.598   0.357  24.869  0.00  0.00    +0.092 C 
ATOM      9  C   UNL     1      -6.172   0.429  26.294  0.00  0.00    +0.029 C 
ATOM     10  C   UNL     1      -5.278   1.813  24.505  0.00  0.00    +0.097 C 
ATOM     11  C   UNL     1      -6.120   1.905  26.666  0.00  0.00    +0.085 C 
ENDROOT
BRANCH   8  13
ATOM      1  O   UNL     1      -3.212   0.018  24.433  0.00  0.00    -0.420 OA
ATOM      5  N   UNL     1      -4.351  -1.874  24.794  0.00  0.00    -0.112 NA
ATOM      6  N   UNL     1      -3.029  -2.208  24.564  0.00  0.00    -0.107 NA
ATOM     13  C   UNL     1      -4.411  -0.565  24.708  0.00  0.00    +0.222 A 
ATOM     15  C   UNL     1      -2.402  -1.073  24.358  0.00  0.00    +0.248 A 
BRANCH  15  18
ATOM     18  C   UNL     1      -1.021  -0.811  24.073  0.00  0.00    +0.039 A 
ATOM     22  C   UNL     1      -0.043  -1.727  24.461  0.00  0.00    +0.015 A 
ATOM     23  C   UNL     1      -0.657   0.358  23.406  0.00  0.00    +0.015 A 
ATOM     24  C   UNL     1       1.665  -0.303  23.516  0.00  0.00    +0.029 A 
ATOM     25  C   UNL     1       1.300  -1.472  24.184  0.00  0.00    +0.024 A 
ATOM     26  C   UNL     1       0.686   0.612  23.127  0.00  0.00    +0.024 A 
BRANCH  24   7
ATOM      7  N   UNL     1       3.023  -0.045  23.236  0.00  0.00    -0.336 N 
ATOM     28  C   UNL     1       4.041  -1.017  23.584  0.00  0.00    +0.129 C 
ATOM     29  C   UNL     1       3.419   1.198  22.605  0.00  0.00    +0.129 C 
ENDBRANCH  24   7
ENDBRANCH  15  18
ENDBRANCH   8  13
BRANCH   4  12
ATOM     12  C   UNL     1      -5.832   3.980  25.446  0.00  0.00    +0.119 C 
BRANCH  12  14
ATOM     14  C   UNL     1      -4.350   4.194  25.293  0.00  0.00    -0.033 A 
ATOM     16  C   UNL     1      -3.519   4.145  26.412  0.00  0.00    +0.006 A 
ATOM     17  C   UNL     1      -3.808   4.439  24.031  0.00  0.00    +0.006 A 
ATOM     19  C   UNL     1      -2.146   4.343  26.270  0.00  0.00    +0.015 A 
ATOM     20  C   UNL     1      -2.435   4.637  23.890  0.00  0.00    +0.015 A 
ATOM     21  C   UNL     1      -1.603   4.589  25.009  0.00  0.00    +0.059 A 
BRANCH  21  27
ATOM      3  O   UNL     1       0.364   5.822  24.433  0.00  0.00    -0.245 OA
ATOM     27  C   UNL     1      -0.171   4.794  24.860  0.00  0.00    +0.337 C 
BRANCH  27   2
ATOM      2  O   UNL     1       0.554   3.710  25.251  0.00  0.00    -0.477 OA
ATOM     30  H   UNL     1       0.265   3.374  26.126  0.00  0.00    +0.295 HD
ENDBRANCH  27   2
ENDBRANCH  21  27
ENDBRANCH  12  14
ENDBRANCH   4  12
TORSDOF 7
ENDMDL
MODEL 3
REMARK VINA RESULT:       4.4      2.217      4.711
REMARK  Name = 51137521
REMARK  9 active torsions:
REMARK  status: ('A' for Active; 'I' for Inactive)
REMARK    1  A    between atoms: O_2  and  C_27
REMARK    2  A    between atoms: N_4  and  C_12
REMARK    3  A    between atoms: N_7  and  C_24
REMARK    4  A    between atoms: N_7  and  C_28
REMARK    5  A    between atoms: N_7  and  C_29
REMARK    6  A    between atoms: C_8  and  C_13
REMARK    7  A    between atoms: C_12  and  C_14
REMARK    8  A    between atoms: C_15  and  C_18
REMARK    9  A    between atoms: C_21  and  C_27
REMARK                            x       y       z     vdW  Elec       q    Type
REMARK                         _______ _______ _______ _____ _____    ______ ____
ROOT
ATOM      4  N   UNL     1      -6.180   2.643  25.359  0.00  0.00    -0.297 NA
ATOM      8  C   UNL     1      -5.620   0.421  24.859  0.00  0.00    +0.092 C 
ATOM      9  C   UNL     1      -6.171   0.502  26.293  0.00  0.00    +0.029 C 
ATOM     10  C   UNL     1      -5.291   1.873  24.486  0.00  0.00    +0.097 C 
ATOM     11  C   UNL     1      -6.098   1.979  26.660  0.00  0.00    +0.085 C 
ENDROOT
BRANCH   8  13
ATOM      1  O   UNL     1      -3.237   0.059  24.424  0.00  0.00    -0.420 OA
ATOM      5  N   UNL     1      -4.403  -1.824  24.739  0.00  0.00    -0.112 NA
ATOM      6  N   UNL     1      -3.086  -2.172  24.507  0.00  0.00    -0.107 NA
ATOM     13  C   UNL     1      -4.445  -0.513  24.682  0.00  0.00    +0.222 A 
ATOM     15  C   UNL     1      -2.442  -1.041  24.328  0.00  0.00    +0.248 A 
BRANCH  15  18
ATOM     18  C   UNL     1      -1.057  -0.792  24.053  0.00  0.00    +0.039 A 
ATOM     22  C   UNL     1      -0.680   0.360  23.361  0.00  0.00    +0.015 A 
ATOM     23  C   UNL     1      -0.087  -1.698  24.480  0.00  0.00    +0.015 A 
ATOM     24  C   UNL     1       1.638  -0.304  23.521  0.00  0.00    +0.029 A 
ATOM     25  C   UNL     1       0.668   0.603  23.094  0.00  0.00    +0.024 A 
ATOM     26  C   UNL     1       1.260  -1.455  24.214  0.00  0.00    +0.024 A 
BRANCH  24   7
ATOM      7  N   UNL     1       3.001  -0.059  23.251  0.00  0.00    -0.336 N 
ATOM     28  C   UNL     1       4.007  -1.041  23.604  0.00  0.00    +0.129 C 
ATOM     29  C   UNL     1       3.412   1.182  22.625  0.00  0.00    +0.129 C 
ENDBRANCH  24   7
ENDBRANCH  15  18
ENDBRANCH   8  13
BRANCH   4  12
ATOM     12  C   UNL     1      -5.808   4.048  25.431  0.00  0.00    +0.119 C 
BRANCH  12  14
ATOM     14  C   UNL     1      -4.324   4.244  25.278  0.00  0.00    -0.033 A 
ATOM     16  C   UNL     1      -3.792   4.607  24.041  0.00  0.00    +0.006 A 
ATOM     17  C   UNL     1      -3.480   4.062  26.374  0.00  0.00    +0.006 A 
ATOM     19  C   UNL     1      -2.416   4.788  23.899  0.00  0.00    +0.015 A 
ATOM     20  C   UNL     1      -2.104   4.244  26.232  0.00  0.00    +0.015 A 
ATOM     21  C   UNL     1      -1.572   4.607  24.994  0.00  0.00    +0.059 A 
BRANCH  21  27
ATOM      3  O   UNL     1       0.408   5.810  24.400  0.00  0.00    -0.245 OA
ATOM     27  C   UNL     1      -0.138   4.797  24.847  0.00  0.00    +0.337 C 
BRANCH  27   2
ATOM      2  O   UNL     1       0.576   3.715  25.264  0.00  0.00    -0.477 OA
ATOM     30  H   UNL     1       0.714   3.721  26.235  0.00  0.00    +0.295 HD
ENDBRANCH  27   2
ENDBRANCH  21  27
ENDBRANCH  12  14
ENDBRANCH   4  12
TORSDOF 7
ENDMDL
MODEL 4
REMARK VINA RESULT:       7.9      2.446      5.767
REMARK  Name = 51137521
REMARK  9 active torsions:
REMARK  status: ('A' for Active; 'I' for Inactive)
REMARK    1  A    between atoms: O_2  and  C_27
REMARK    2  A    between atoms: N_4  and  C_12
REMARK    3  A    between atoms: N_7  and  C_24
REMARK    4  A    between atoms: N_7  and  C_28
REMARK    5  A    between atoms: N_7  and  C_29
REMARK    6  A    between atoms: C_8  and  C_13
REMARK    7  A    between atoms: C_12  and  C_14
REMARK    8  A    between atoms: C_15  and  C_18
REMARK    9  A    between atoms: C_21  and  C_27
REMARK                            x       y       z     vdW  Elec       q    Type
REMARK                         _______ _______ _______ _____ _____    ______ ____
ROOT
ATOM      4  N   UNL     1      -0.875   5.396  24.994  0.00  0.00    -0.297 NA
ATOM      8  C   UNL     1       0.530   3.560  24.598  0.00  0.00    +0.092 C 
ATOM      9  C   UNL     1       0.559   4.502  23.382  0.00  0.00    +0.029 C 
ATOM     10  C   UNL     1      -0.703   4.000  25.400  0.00  0.00    +0.097 C 
ATOM     11  C   UNL     1      -0.664   5.396  23.546  0.00  0.00    +0.085 C 
ENDROOT
BRANCH   8  13
ATOM      1  O   UNL     1      -0.674   1.439  24.373  0.00  0.00    -0.420 OA
ATOM      5  N   UNL     1       1.502   1.312  23.866  0.00  0.00    -0.112 NA
ATOM      6  N   UNL     1       0.950   0.056  23.697  0.00  0.00    -0.107 NA
ATOM     13  C   UNL     1       0.518   2.087  24.261  0.00  0.00    +0.222 A 
ATOM     15  C   UNL     1      -0.321   0.178  24.005  0.00  0.00    +0.248 A 
BRANCH  15  18
ATOM     18  C   UNL     1      -1.375  -0.795  24.011  0.00  0.00    +0.039 A 
ATOM     22  C   UNL     1      -2.702  -0.385  23.882  0.00  0.00    +0.015 A 
ATOM     23  C   UNL     1      -1.072  -2.150  24.145  0.00  0.00    +0.015 A 
ATOM     24  C   UNL     1      -3.425  -2.687  24.021  0.00  0.00    +0.029 A 
ATOM     25  C   UNL     1      -3.727  -1.331  23.887  0.00  0.00    +0.024 A 
ATOM     26  C   UNL     1      -2.098  -3.096  24.150  0.00  0.00    +0.024 A 
BRANCH  24   7
ATOM      7  N   UNL     1      -4.462  -3.643  24.027  0.00  0.00    -0.336 N 
ATOM     28  C   UNL     1      -4.342  -4.850  24.822  0.00  0.00    +0.129 C 
ATOM     29  C   UNL     1      -5.656  -3.435  23.233  0.00  0.00    +0.129 C 
ENDBRANCH  24   7
ENDBRANCH  15  18
ENDBRANCH   8  13
BRANCH   4  12
ATOM     12  C   UNL     1      -2.180   5.925  25.362  0.00  0.00    +0.119 C 
BRANCH  12  14
ATOM     14  C   UNL     1      -3.237   4.854  25.371  0.00  0.00    -0.033 A 
ATOM     16  C   UNL     1      -3.610   4.232  24.179  0.00  0.00    +0.006 A 
ATOM     17  C   UNL     1      -3.844   4.483  26.571  0.00  0.00    +0.006 A 
ATOM     19  C   UNL     1      -4.590   3.240  24.187  0.00  0.00    +0.015 A 
ATOM     20  C   UNL     1      -4.824   3.490  26.579  0.00  0.00    +0.015 A 
ATOM     21  C   UNL     1      -5.197   2.868  25.386  0.00  0.00    +0.059 A 
BRANCH  21  27
ATOM      3  O   UNL     1      -6.578   1.173  24.415  0.00  0.00    -0.245 OA
ATOM     27  C   UNL     1      -6.218   1.833  25.395  0.00  0.00    +0.337 C 
BRANCH  27   2
ATOM      2  O   UNL     1      -6.762   1.649  26.630  0.00  0.00    -0.477 OA
ATOM     30  H   UNL     1      -6.145   1.186  27.235  0.00  0.00    +0.295 HD
ENDBRANCH  27   2
ENDBRANCH  21  27
ENDBRANCH  12  14
ENDBRANCH   4  12
TORSDOF 7
ENDMDL
