MODEL 1
REMARK VINA RESULT:      -1.7      0.000      0.000
REMARK  Name = 45783471
REMARK  11 active torsions:
REMARK  status: ('A' for Active; 'I' for Inactive)
REMARK    1  A    between atoms: O_2  and  C_26
REMARK    2  A    between atoms: O_4  and  C_30
REMARK    3  A    between atoms: O_4  and  C_31
REMARK    4  A    between atoms: N_5  and  C_14
REMARK    5  A    between atoms: N_9  and  C_28
REMARK    6  A    between atoms: N_9  and  C_29
REMARK    7  A    between atoms: C_10  and  C_15
REMARK    8  A    between atoms: C_14  and  C_16
REMARK    9  A    between atoms: C_19  and  C_22
REMARK   10  A    between atoms: C_23  and  C_26
REMARK   11  A    between atoms: C_29  and  C_30
REMARK                            x       y       z     vdW  Elec       q    Type
REMARK                         _______ _______ _______ _____ _____    ______ ____
ROOT
ATOM      1  O   UNL     1      -2.516   3.040  25.789  0.00  0.00    -0.336 OA
ATOM      6  N   UNL     1      -2.348   2.122  23.753  0.00  0.00    -0.190 NA
ATOM      7  N   UNL     1      -1.195   2.592  25.673  0.00  0.00    -0.056 NA
ATOM     15  C   UNL     1      -3.126   2.725  24.616  0.00  0.00    +0.245 A 
ATOM     19  C   UNL     1      -1.174   2.062  24.445  0.00  0.00    +0.204 A 
ENDROOT
BRANCH  19  22
ATOM      8  N   UNL     1       2.379   1.595  23.450  0.00  0.00    -0.240 NA
ATOM     22  C   UNL     1       0.003   1.466  23.883  0.00  0.00    +0.041 A 
ATOM     24  C   UNL     1      -0.054   0.232  23.245  0.00  0.00    +0.016 A 
ATOM     25  C   UNL     1       1.232   2.101  23.958  0.00  0.00    +0.124 A 
ATOM     27  C   UNL     1       1.104  -0.321  22.709  0.00  0.00    +0.044 A 
ATOM     28  C   UNL     1       2.284   0.394  22.836  0.00  0.00    +0.119 A 
BRANCH  28   9
ATOM      9  N   UNL     1       3.455  -0.184  22.286  0.00  0.00    -0.327 N 
ATOM     32  H   UNL     1       3.336  -1.058  21.787  0.00  0.00    +0.148 HD
BRANCH   9  29
ATOM     29  C   UNL     1       4.744   0.413  22.418  0.00  0.00    +0.131 C 
BRANCH  29  30
ATOM     30  C   UNL     1       5.135   0.488  23.883  0.00  0.00    +0.178 C 
BRANCH  30   4
ATOM      4  O   UNL     1       5.708  -0.750  24.285  0.00  0.00    -0.381 OA
ATOM     31  C   UNL     1       4.837  -1.839  24.015  0.00  0.00    +0.194 C 
ENDBRANCH  30   4
ENDBRANCH  29  30
ENDBRANCH   9  29
ENDBRANCH  28   9
ENDBRANCH  19  22
BRANCH  15  10
ATOM      5  N   UNL     1      -5.434   2.475  25.513  0.00  0.00    -0.287 NA
ATOM     10  C   UNL     1      -4.584   3.112  24.487  0.00  0.00    +0.146 C 
ATOM     11  C   UNL     1      -4.816   4.623  24.671  0.00  0.00    +0.030 C 
ATOM     12  C   UNL     1      -5.855   4.734  25.778  0.00  0.00    +0.017 C 
ATOM     13  C   UNL     1      -6.552   3.388  25.750  0.00  0.00    +0.085 C 
BRANCH   5  14
ATOM     14  C   UNL     1      -5.887   1.142  25.136  0.00  0.00    +0.120 C 
BRANCH  14  16
ATOM     16  C   UNL     1      -4.740   0.173  25.013  0.00  0.00    -0.033 A 
ATOM     17  C   UNL     1      -4.496  -0.466  23.797  0.00  0.00    +0.006 A 
ATOM     18  C   UNL     1      -3.921  -0.082  26.113  0.00  0.00    +0.006 A 
ATOM     20  C   UNL     1      -3.434  -1.363  23.683  0.00  0.00    +0.015 A 
ATOM     21  C   UNL     1      -2.859  -0.979  25.998  0.00  0.00    +0.015 A 
ATOM     23  C   UNL     1      -2.615  -1.619  24.783  0.00  0.00    +0.059 A 
BRANCH  23  26
ATOM      3  O   UNL     1      -0.514  -2.583  25.397  0.00  0.00    -0.245 OA
ATOM     26  C   UNL     1      -1.507  -2.553  24.663  0.00  0.00    +0.337 C 
BRANCH  26   2
ATOM      2  O   UNL     1      -1.671  -3.426  23.631  0.00  0.00    -0.477 OA
ATOM     33  H   UNL     1      -2.577  -3.385  23.259  0.00  0.00    +0.295 HD
ENDBRANCH  26   2
ENDBRANCH  23  26
ENDBRANCH  14  16
ENDBRANCH   5  14
ENDBRANCH  15  10
TORSDOF 10
ENDMDL
MODEL 2
REMARK VINA RESULT:       0.7      1.922      4.254
REMARK  Name = 45783471
REMARK  11 active torsions:
REMARK  status: ('A' for Active; 'I' for Inactive)
REMARK    1  A    between atoms: O_2  and  C_26
REMARK    2  A    between atoms: O_4  and  C_30
REMARK    3  A    between atoms: O_4  and  C_31
REMARK    4  A    between atoms: N_5  and  C_14
REMARK    5  A    between atoms: N_9  and  C_28
REMARK    6  A    between atoms: N_9  and  C_29
REMARK    7  A    between atoms: C_10  and  C_15
REMARK    8  A    between atoms: C_14  and  C_16
REMARK    9  A    between atoms: C_19  and  C_22
REMARK   10  A    between atoms: C_23  and  C_26
REMARK   11  A    between atoms: C_29  and  C_30
REMARK                            x       y       z     vdW  Elec       q    Type
REMARK                         _______ _______ _______ _____ _____    ______ ____
ROOT
ATOM      1  O   UNL     1      -2.020   0.369  26.061  0.00  0.00    -0.336 OA
ATOM      6  N   UNL     1      -1.438  -0.622  24.137  0.00  0.00    -0.190 NA
ATOM      7  N   UNL     1      -0.727   0.817  25.768  0.00  0.00    -0.056 NA
ATOM     15  C   UNL     1      -2.364  -0.474  25.051  0.00  0.00    +0.245 A 
ATOM     19  C   UNL     1      -0.453   0.189  24.619  0.00  0.00    +0.204 A 
ENDROOT
BRANCH  19  22
ATOM      8  N   UNL     1       2.583  -0.640  22.638  0.00  0.00    -0.240 NA
ATOM     22  C   UNL     1       0.795   0.350  23.930  0.00  0.00    +0.041 A 
ATOM     24  C   UNL     1       1.426   1.587  23.870  0.00  0.00    +0.016 A 
ATOM     25  C   UNL     1       1.409  -0.722  23.304  0.00  0.00    +0.124 A 
ATOM     27  C   UNL     1       2.635   1.713  23.195  0.00  0.00    +0.044 A 
ATOM     28  C   UNL     1       3.167   0.579  22.602  0.00  0.00    +0.119 A 
BRANCH  28   9
ATOM      9  N   UNL     1       4.399   0.723  21.916  0.00  0.00    -0.327 N 
ATOM     32  H   UNL     1       4.367   1.205  21.025  0.00  0.00    +0.148 HD
BRANCH   9  29
ATOM     29  C   UNL     1       5.631   0.223  22.432  0.00  0.00    +0.131 C 
BRANCH  29  30
ATOM     30  C   UNL     1       5.726   0.506  23.921  0.00  0.00    +0.178 C 
BRANCH  30   4
ATOM      4  O   UNL     1       5.796  -0.722  24.634  0.00  0.00    -0.381 OA
ATOM     31  C   UNL     1       5.025  -1.735  24.004  0.00  0.00    +0.194 C 
ENDBRANCH  30   4
ENDBRANCH  29  30
ENDBRANCH   9  29
ENDBRANCH  28   9
ENDBRANCH  19  22
BRANCH  15  10
ATOM      5  N   UNL     1      -4.663  -0.585  24.105  0.00  0.00    -0.287 NA
ATOM     10  C   UNL     1      -3.740  -1.101  25.135  0.00  0.00    +0.146 C 
ATOM     11  C   UNL     1      -3.713  -2.624  24.908  0.00  0.00    +0.030 C 
ATOM     12  C   UNL     1      -4.696  -2.874  23.773  0.00  0.00    +0.017 C 
ATOM     13  C   UNL     1      -5.608  -1.664  23.818  0.00  0.00    +0.085 C 
BRANCH   5  14
ATOM     14  C   UNL     1      -5.339   0.643  24.502  0.00  0.00    +0.120 C 
BRANCH  14  16
ATOM     16  C   UNL     1      -4.379   1.798  24.621  0.00  0.00    -0.033 A 
ATOM     17  C   UNL     1      -4.417   2.621  25.747  0.00  0.00    +0.006 A 
ATOM     18  C   UNL     1      -3.454   2.044  23.607  0.00  0.00    +0.006 A 
ATOM     20  C   UNL     1      -3.528   3.691  25.857  0.00  0.00    +0.015 A 
ATOM     21  C   UNL     1      -2.566   3.114  23.718  0.00  0.00    +0.015 A 
ATOM     23  C   UNL     1      -2.603   3.937  24.843  0.00  0.00    +0.059 A 
BRANCH  23  26
ATOM      3  O   UNL     1      -1.979   6.203  25.291  0.00  0.00    -0.245 OA
ATOM     26  C   UNL     1      -1.677   5.052  24.958  0.00  0.00    +0.337 C 
BRANCH  26   2
ATOM      2  O   UNL     1      -0.397   4.699  24.656  0.00  0.00    -0.477 OA
ATOM     33  H   UNL     1       0.066   5.401  24.151  0.00  0.00    +0.295 HD
ENDBRANCH  26   2
ENDBRANCH  23  26
ENDBRANCH  14  16
ENDBRANCH   5  14
ENDBRANCH  15  10
TORSDOF 10
ENDMDL
MODEL 3
REMARK VINA RESULT:       2.0      1.546      2.022
REMARK  Name = 45783471
REMARK  11 active torsions:
REMARK  status: ('A' for Active; 'I' for Inactive)
REMARK    1  A    between atoms: O_2  and  C_26
REMARK    2  A    between atoms: O_4  and  C_30
REMARK    3  A    between atoms: O_4  and  C_31
REMARK    4  A    between atoms: N_5  and  C_14
REMARK    5  A    between atoms: N_9  and  C_28
REMARK    6  A    between atoms: N_9  and  C_29
REMARK    7  A    between atoms: C_10  and  C_15
REMARK    8  A    between atoms: C_14  and  C_16
REMARK    9  A    between atoms: C_19  and  C_22
REMARK   10  A    between atoms: C_23  and  C_26
REMARK   11  A    between atoms: C_29  and  C_30
REMARK                            x       y       z     vdW  Elec       q    Type
REMARK                         _______ _______ _______ _____ _____    ______ ____
ROOT
ATOM      1  O   UNL     1      -2.775   2.216  22.442  0.00  0.00    -0.336 OA
ATOM      6  N   UNL     1      -1.550   1.979  24.302  0.00  0.00    -0.190 NA
ATOM      7  N   UNL     1      -1.714   1.368  22.103  0.00  0.00    -0.056 NA
ATOM     15  C   UNL     1      -2.603   2.529  23.753  0.00  0.00    +0.245 A 
ATOM     19  C   UNL     1      -1.036   1.276  23.252  0.00  0.00    +0.204 A 
ENDROOT
BRANCH  19  22
ATOM      8  N   UNL     1       1.277  -1.421  24.350  0.00  0.00    -0.240 NA
ATOM     22  C   UNL     1       0.158   0.492  23.382  0.00  0.00    +0.041 A 
ATOM     24  C   UNL     1       1.323   0.842  22.709  0.00  0.00    +0.016 A 
ATOM     25  C   UNL     1       0.187  -0.638  24.183  0.00  0.00    +0.124 A 
ATOM     27  C   UNL     1       2.465   0.063  22.855  0.00  0.00    +0.044 A 
ATOM     28  C   UNL     1       2.391  -1.048  23.680  0.00  0.00    +0.119 A 
BRANCH  28   9
ATOM      9  N   UNL     1       3.563  -1.833  23.817  0.00  0.00    -0.327 N 
ATOM     32  H   UNL     1       3.435  -2.780  24.154  0.00  0.00    +0.148 HD
BRANCH   9  29
ATOM     29  C   UNL     1       4.864  -1.336  23.508  0.00  0.00    +0.131 C 
BRANCH  29  30
ATOM     30  C   UNL     1       5.421  -0.564  24.692  0.00  0.00    +0.178 C 
BRANCH  30   4
ATOM      4  O   UNL     1       5.662   0.784  24.307  0.00  0.00    -0.381 OA
ATOM     31  C   UNL     1       4.982   1.112  23.104  0.00  0.00    +0.194 C 
ENDBRANCH  30   4
ENDBRANCH  29  30
ENDBRANCH   9  29
ENDBRANCH  28   9
ENDBRANCH  19  22
BRANCH  15  10
ATOM      5  N   UNL     1      -4.071   3.000  25.707  0.00  0.00    -0.287 NA
ATOM     10  C   UNL     1      -3.637   3.448  24.369  0.00  0.00    +0.146 C 
ATOM     11  C   UNL     1      -3.106   4.878  24.588  0.00  0.00    +0.030 C 
ATOM     12  C   UNL     1      -3.340   5.166  26.065  0.00  0.00    +0.017 C 
ATOM     13  C   UNL     1      -4.449   4.206  26.445  0.00  0.00    +0.085 C 
BRANCH   5  14
ATOM     14  C   UNL     1      -5.152   2.024  25.664  0.00  0.00    +0.120 C 
BRANCH  14  16
ATOM     16  C   UNL     1      -4.651   0.648  25.308  0.00  0.00    -0.033 A 
ATOM     17  C   UNL     1      -5.030   0.059  24.102  0.00  0.00    +0.006 A 
ATOM     18  C   UNL     1      -3.808  -0.035  26.184  0.00  0.00    +0.006 A 
ATOM     20  C   UNL     1      -4.567  -1.214  23.773  0.00  0.00    +0.015 A 
ATOM     21  C   UNL     1      -3.344  -1.309  25.854  0.00  0.00    +0.015 A 
ATOM     23  C   UNL     1      -3.724  -1.898  24.648  0.00  0.00    +0.059 A 
BRANCH  23  26
ATOM      3  O   UNL     1      -3.942  -4.166  23.918  0.00  0.00    -0.245 OA
ATOM     26  C   UNL     1      -3.240  -3.226  24.305  0.00  0.00    +0.337 C 
BRANCH  26   2
ATOM      2  O   UNL     1      -1.892  -3.343  24.453  0.00  0.00    -0.477 OA
ATOM     33  H   UNL     1      -1.405  -2.714  23.878  0.00  0.00    +0.295 HD
ENDBRANCH  26   2
ENDBRANCH  23  26
ENDBRANCH  14  16
ENDBRANCH   5  14
ENDBRANCH  15  10
TORSDOF 10
ENDMDL
