MODEL 1
REMARK VINA RESULT:      -3.3      0.000      0.000
REMARK  Name = 11886501
REMARK  8 active torsions:
REMARK  status: ('A' for Active; 'I' for Inactive)
REMARK    1  A    between atoms: S_1  and  N_8
REMARK    2  A    between atoms: S_1  and  C_17
REMARK    3  A    between atoms: O_4  and  C_13
REMARK    4  A    between atoms: O_4  and  C_16
REMARK    5  A    between atoms: N_8  and  C_12
REMARK    6  A    between atoms: N_9  and  C_25
REMARK    7  A    between atoms: C_16  and  C_18
REMARK    8  A    between atoms: C_29  and  C_30
REMARK                            x       y       z     vdW  Elec       q    Type
REMARK                         _______ _______ _______ _____ _____    ______ ____
ROOT
ATOM      8  N   UNL     1      -4.633  -0.870  24.280  0.00  0.00    -0.182 NA
ATOM     31  H   UNL     1      -5.402  -0.871  23.599  0.00  0.00    +0.148 HD
ENDROOT
BRANCH   8  12
ATOM      2  O   UNL     1      -3.130   1.855  24.597  0.00  0.00    -0.370 OA
ATOM      3  O   UNL     1      -5.854   2.162  25.990  0.00  0.00    -0.370 OA
ATOM     10  C   UNL     1      -5.438   1.371  24.858  0.00  0.00    +0.170 C 
ATOM     11  C   UNL     1      -4.429   2.200  24.089  0.00  0.00    +0.179 C 
ATOM     12  C   UNL     1      -4.644   0.177  25.329  0.00  0.00    +0.133 C 
ATOM     13  C   UNL     1      -4.816   3.612  24.456  0.00  0.00    +0.175 C 
ATOM     14  C   UNL     1      -3.250   0.746  25.502  0.00  0.00    +0.183 C 
ATOM     15  C   UNL     1      -5.246   3.459  25.898  0.00  0.00    +0.194 C 
BRANCH  13   4
ATOM      4  O   UNL     1      -3.764   4.539  24.313  0.00  0.00    -0.367 OA
BRANCH   4  16
ATOM     16  C   UNL     1      -3.076   4.759  25.543  0.00  0.00    +0.195 C 
BRANCH  16  18
ATOM     18  C   UNL     1      -1.787   3.991  25.527  0.00  0.00    -0.022 A 
ATOM     21  C   UNL     1      -0.979   4.025  24.396  0.00  0.00    +0.006 A 
ATOM     22  C   UNL     1      -1.411   3.252  26.643  0.00  0.00    +0.006 A 
ATOM     26  C   UNL     1       0.219   3.312  24.380  0.00  0.00    +0.000 A 
ATOM     27  C   UNL     1      -0.213   2.538  26.628  0.00  0.00    +0.000 A 
ATOM     28  C   UNL     1       0.603   2.568  25.497  0.00  0.00    +0.000 A 
ENDBRANCH  16  18
ENDBRANCH   4  16
ENDBRANCH  13   4
ENDBRANCH   8  12
BRANCH   8   1
ATOM      1  S   UNL     1      -3.632  -2.230  24.454  0.00  0.00    +0.059 S 
ATOM      5  O   UNL     1      -3.903  -3.169  23.382  0.00  0.00    -0.153 OA
ATOM      6  O   UNL     1      -3.675  -2.668  25.836  0.00  0.00    -0.153 OA
BRANCH   1  17
ATOM     17  C   UNL     1      -2.028  -1.540  24.181  0.00  0.00    +0.105 A 
ATOM     19  C   UNL     1      -1.876  -0.532  23.244  0.00  0.00    +0.030 A 
ATOM     20  C   UNL     1      -0.953  -2.020  24.910  0.00  0.00    +0.030 A 
ATOM     23  C   UNL     1      -0.610   0.013  23.029  0.00  0.00    +0.025 A 
ATOM     24  C   UNL     1       0.312  -1.476  24.694  0.00  0.00    +0.025 A 
ATOM     25  C   UNL     1       0.485  -0.459  23.754  0.00  0.00    +0.033 A 
BRANCH  25   9
ATOM      7  O   UNL     1       2.131  -0.275  21.240  0.00  0.00    -0.276 OA
ATOM      9  N   UNL     1       1.751   0.086  23.538  0.00  0.00    -0.286 N 
ATOM     29  C   UNL     1       2.475   0.143  22.341  0.00  0.00    +0.214 C 
ATOM     30  C   UNL     1       3.811   0.818  22.527  0.00  0.00    +0.109 C 
ATOM     32  H   UNL     1       2.195   0.490  24.361  0.00  0.00    +0.155 HD
ENDBRANCH  25   9
ENDBRANCH   1  17
ENDBRANCH   8   1
TORSDOF 7
ENDMDL
MODEL 2
REMARK VINA RESULT:      -2.3      2.335      5.850
REMARK  Name = 11886501
REMARK  8 active torsions:
REMARK  status: ('A' for Active; 'I' for Inactive)
REMARK    1  A    between atoms: S_1  and  N_8
REMARK    2  A    between atoms: S_1  and  C_17
REMARK    3  A    between atoms: O_4  and  C_13
REMARK    4  A    between atoms: O_4  and  C_16
REMARK    5  A    between atoms: N_8  and  C_12
REMARK    6  A    between atoms: N_9  and  C_25
REMARK    7  A    between atoms: C_16  and  C_18
REMARK    8  A    between atoms: C_29  and  C_30
REMARK                            x       y       z     vdW  Elec       q    Type
REMARK                         _______ _______ _______ _____ _____    ______ ____
ROOT
ATOM      8  N   UNL     1      -2.901   3.917  26.249  0.00  0.00    -0.182 NA
ATOM     31  H   UNL     1      -3.084   3.670  27.230  0.00  0.00    +0.148 HD
ENDROOT
BRANCH   8  12
ATOM      2  O   UNL     1      -0.604   1.803  26.052  0.00  0.00    -0.370 OA
ATOM      3  O   UNL     1      -0.131   3.860  23.815  0.00  0.00    -0.370 OA
ATOM     10  C   UNL     1      -1.340   3.381  24.439  0.00  0.00    +0.170 C 
ATOM     11  C   UNL     1      -1.135   1.906  24.721  0.00  0.00    +0.179 C 
ATOM     12  C   UNL     1      -1.489   3.995  25.810  0.00  0.00    +0.133 C 
ATOM     13  C   UNL     1      -0.115   1.512  23.679  0.00  0.00    +0.175 C 
ATOM     14  C   UNL     1      -0.631   3.096  26.677  0.00  0.00    +0.183 C 
ATOM     15  C   UNL     1       0.751   2.749  23.599  0.00  0.00    +0.194 C 
BRANCH  13   4
ATOM      4  O   UNL     1       0.628   0.366  24.025  0.00  0.00    -0.367 OA
BRANCH   4  16
ATOM     16  C   UNL     1       1.285  -0.205  22.896  0.00  0.00    +0.195 C 
BRANCH  16  18
ATOM     18  C   UNL     1       2.765  -0.214  23.143  0.00  0.00    -0.022 A 
ATOM     21  C   UNL     1       3.522   0.910  22.830  0.00  0.00    +0.006 A 
ATOM     22  C   UNL     1       3.367  -1.344  23.683  0.00  0.00    +0.006 A 
ATOM     26  C   UNL     1       4.898   0.903  23.059  0.00  0.00    +0.000 A 
ATOM     27  C   UNL     1       4.743  -1.352  23.913  0.00  0.00    +0.000 A 
ATOM     28  C   UNL     1       5.509  -0.229  23.601  0.00  0.00    +0.000 A 
ENDBRANCH  16  18
ENDBRANCH   4  16
ENDBRANCH  13   4
ENDBRANCH   8  12
BRANCH   8   1
ATOM      1  S   UNL     1      -4.143   3.833  25.094  0.00  0.00    +0.059 S 
ATOM      5  O   UNL     1      -3.732   4.535  23.892  0.00  0.00    -0.153 OA
ATOM      6  O   UNL     1      -5.401   4.160  25.735  0.00  0.00    -0.153 OA
BRANCH   1  17
ATOM     17  C   UNL     1      -4.184   2.104  24.727  0.00  0.00    +0.105 A 
ATOM     19  C   UNL     1      -4.664   1.222  25.679  0.00  0.00    +0.030 A 
ATOM     20  C   UNL     1      -3.735   1.665  23.493  0.00  0.00    +0.030 A 
ATOM     23  C   UNL     1      -4.698  -0.142  25.389  0.00  0.00    +0.025 A 
ATOM     24  C   UNL     1      -3.767   0.301  23.204  0.00  0.00    +0.025 A 
ATOM     25  C   UNL     1      -4.249  -0.602  24.150  0.00  0.00    +0.033 A 
BRANCH  25   9
ATOM      7  O   UNL     1      -2.212  -2.760  24.665  0.00  0.00    -0.276 OA
ATOM      9  N   UNL     1      -4.282  -1.967  23.861  0.00  0.00    -0.286 N 
ATOM     29  C   UNL     1      -3.300  -2.931  24.123  0.00  0.00    +0.214 C 
ATOM     30  C   UNL     1      -3.721  -4.301  23.654  0.00  0.00    +0.109 C 
ATOM     32  H   UNL     1      -5.131  -2.293  23.402  0.00  0.00    +0.155 HD
ENDBRANCH  25   9
ENDBRANCH   1  17
ENDBRANCH   8   1
TORSDOF 7
ENDMDL
MODEL 3
REMARK VINA RESULT:      -2.2      2.337      5.859
REMARK  Name = 11886501
REMARK  8 active torsions:
REMARK  status: ('A' for Active; 'I' for Inactive)
REMARK    1  A    between atoms: S_1  and  N_8
REMARK    2  A    between atoms: S_1  and  C_17
REMARK    3  A    between atoms: O_4  and  C_13
REMARK    4  A    between atoms: O_4  and  C_16
REMARK    5  A    between atoms: N_8  and  C_12
REMARK    6  A    between atoms: N_9  and  C_25
REMARK    7  A    between atoms: C_16  and  C_18
REMARK    8  A    between atoms: C_29  and  C_30
REMARK                            x       y       z     vdW  Elec       q    Type
REMARK                         _______ _______ _______ _____ _____    ______ ____
ROOT
ATOM      8  N   UNL     1      -2.876   3.905  26.265  0.00  0.00    -0.182 NA
ATOM     31  H   UNL     1      -3.058   3.656  27.244  0.00  0.00    +0.148 HD
ENDROOT
BRANCH   8  12
ATOM      2  O   UNL     1      -0.588   1.782  26.051  0.00  0.00    -0.370 OA
ATOM      3  O   UNL     1      -0.107   3.851  23.828  0.00  0.00    -0.370 OA
ATOM     10  C   UNL     1      -1.318   3.375  24.450  0.00  0.00    +0.170 C 
ATOM     11  C   UNL     1      -1.120   1.896  24.722  0.00  0.00    +0.179 C 
ATOM     12  C   UNL     1      -1.463   3.980  25.824  0.00  0.00    +0.133 C 
ATOM     13  C   UNL     1      -0.103   1.504  23.677  0.00  0.00    +0.175 C 
ATOM     14  C   UNL     1      -0.608   3.071  26.685  0.00  0.00    +0.183 C 
ATOM     15  C   UNL     1       0.769   2.738  23.604  0.00  0.00    +0.194 C 
BRANCH  13   4
ATOM      4  O   UNL     1       0.636   0.353  24.015  0.00  0.00    -0.367 OA
BRANCH   4  16
ATOM     16  C   UNL     1       1.298  -0.208  22.883  0.00  0.00    +0.195 C 
BRANCH  16  18
ATOM     18  C   UNL     1       2.777  -0.218  23.136  0.00  0.00    -0.022 A 
ATOM     21  C   UNL     1       3.376  -1.354  23.668  0.00  0.00    +0.006 A 
ATOM     22  C   UNL     1       3.535   0.907  22.835  0.00  0.00    +0.006 A 
ATOM     26  C   UNL     1       4.751  -1.366  23.902  0.00  0.00    +0.000 A 
ATOM     27  C   UNL     1       4.911   0.897  23.069  0.00  0.00    +0.000 A 
ATOM     28  C   UNL     1       5.519  -0.239  23.603  0.00  0.00    +0.000 A 
ENDBRANCH  16  18
ENDBRANCH   4  16
ENDBRANCH  13   4
ENDBRANCH   8  12
BRANCH   8   1
ATOM      1  S   UNL     1      -4.118   3.830  25.109  0.00  0.00    +0.059 S 
ATOM      5  O   UNL     1      -3.704   4.533  23.909  0.00  0.00    -0.153 OA
ATOM      6  O   UNL     1      -5.375   4.161  25.752  0.00  0.00    -0.153 OA
BRANCH   1  17
ATOM     17  C   UNL     1      -4.167   2.102  24.738  0.00  0.00    +0.105 A 
ATOM     19  C   UNL     1      -3.717   1.662  23.506  0.00  0.00    +0.030 A 
ATOM     20  C   UNL     1      -4.655   1.221  25.689  0.00  0.00    +0.030 A 
ATOM     23  C   UNL     1      -3.756   0.299  23.214  0.00  0.00    +0.025 A 
ATOM     24  C   UNL     1      -4.693  -0.142  25.396  0.00  0.00    +0.025 A 
ATOM     25  C   UNL     1      -4.244  -0.603  24.159  0.00  0.00    +0.033 A 
BRANCH  25   9
ATOM      7  O   UNL     1      -2.213  -2.770  24.658  0.00  0.00    -0.276 OA
ATOM      9  N   UNL     1      -4.283  -1.967  23.866  0.00  0.00    -0.286 N 
ATOM     29  C   UNL     1      -3.303  -2.935  24.120  0.00  0.00    +0.214 C 
ATOM     30  C   UNL     1      -3.731  -4.302  23.649  0.00  0.00    +0.109 C 
ATOM     32  H   UNL     1      -5.135  -2.288  23.410  0.00  0.00    +0.155 HD
ENDBRANCH  25   9
ENDBRANCH   1  17
ENDBRANCH   8   1
TORSDOF 7
ENDMDL
MODEL 4
REMARK VINA RESULT:      -1.5      2.274      4.581
REMARK  Name = 11886501
REMARK  8 active torsions:
REMARK  status: ('A' for Active; 'I' for Inactive)
REMARK    1  A    between atoms: S_1  and  N_8
REMARK    2  A    between atoms: S_1  and  C_17
REMARK    3  A    between atoms: O_4  and  C_13
REMARK    4  A    between atoms: O_4  and  C_16
REMARK    5  A    between atoms: N_8  and  C_12
REMARK    6  A    between atoms: N_9  and  C_25
REMARK    7  A    between atoms: C_16  and  C_18
REMARK    8  A    between atoms: C_29  and  C_30
REMARK                            x       y       z     vdW  Elec       q    Type
REMARK                         _______ _______ _______ _____ _____    ______ ____
ROOT
ATOM      8  N   UNL     1      -3.222   4.785  24.129  0.00  0.00    -0.182 NA
ATOM     31  H   UNL     1      -2.905   5.130  23.215  0.00  0.00    +0.148 HD
ENDROOT
BRANCH   8  12
ATOM      2  O   UNL     1      -4.232   2.034  23.036  0.00  0.00    -0.370 OA
ATOM      3  O   UNL     1      -5.814   2.616  25.608  0.00  0.00    -0.370 OA
ATOM     10  C   UNL     1      -4.477   2.974  25.201  0.00  0.00    +0.170 C 
ATOM     11  C   UNL     1      -3.925   1.798  24.420  0.00  0.00    +0.179 C 
ATOM     12  C   UNL     1      -4.530   4.091  24.187  0.00  0.00    +0.133 C 
ATOM     13  C   UNL     1      -4.712   0.636  24.977  0.00  0.00    +0.175 C 
ATOM     14  C   UNL     1      -4.778   3.354  22.886  0.00  0.00    +0.183 C 
ATOM     15  C   UNL     1      -6.068   1.258  25.220  0.00  0.00    +0.194 C 
BRANCH  13   4
ATOM      4  O   UNL     1      -4.784  -0.466  24.102  0.00  0.00    -0.367 OA
BRANCH   4  16
ATOM     16  C   UNL     1      -4.442  -1.687  24.753  0.00  0.00    +0.195 C 
BRANCH  16  18
ATOM     18  C   UNL     1      -2.965  -1.704  25.017  0.00  0.00    -0.022 A 
ATOM     21  C   UNL     1      -2.137  -2.515  24.249  0.00  0.00    +0.006 A 
ATOM     22  C   UNL     1      -2.436  -0.908  26.026  0.00  0.00    +0.006 A 
ATOM     26  C   UNL     1      -0.764  -2.531  24.493  0.00  0.00    +0.000 A 
ATOM     27  C   UNL     1      -1.062  -0.923  26.272  0.00  0.00    +0.000 A 
ATOM     28  C   UNL     1      -0.226  -1.734  25.505  0.00  0.00    +0.000 A 
ENDBRANCH  16  18
ENDBRANCH   4  16
ENDBRANCH  13   4
ENDBRANCH   8  12
BRANCH   8   1
ATOM      1  S   UNL     1      -2.133   4.645  25.424  0.00  0.00    +0.059 S 
ATOM      5  O   UNL     1      -2.836   4.155  26.596  0.00  0.00    -0.153 OA
ATOM      6  O   UNL     1      -1.343   5.858  25.503  0.00  0.00    -0.153 OA
BRANCH   1  17
ATOM     17  C   UNL     1      -1.057   3.362  24.859  0.00  0.00    +0.105 A 
ATOM     19  C   UNL     1      -0.079   2.877  25.710  0.00  0.00    +0.030 A 
ATOM     20  C   UNL     1      -1.212   2.867  23.576  0.00  0.00    +0.030 A 
ATOM     23  C   UNL     1       0.770   1.864  25.264  0.00  0.00    +0.025 A 
ATOM     24  C   UNL     1      -0.362   1.855  23.130  0.00  0.00    +0.025 A 
ATOM     25  C   UNL     1       0.628   1.352  23.974  0.00  0.00    +0.033 A 
BRANCH  25   9
ATOM      7  O   UNL     1       3.471   1.478  22.990  0.00  0.00    -0.276 OA
ATOM      9  N   UNL     1       1.479   0.340  23.528  0.00  0.00    -0.286 N 
ATOM     29  C   UNL     1       2.799   0.455  23.078  0.00  0.00    +0.214 C 
ATOM     30  C   UNL     1       3.375  -0.882  22.684  0.00  0.00    +0.109 C 
ATOM     32  H   UNL     1       1.078  -0.597  23.536  0.00  0.00    +0.155 HD
ENDBRANCH  25   9
ENDBRANCH   1  17
ENDBRANCH   8   1
TORSDOF 7
ENDMDL
MODEL 5
REMARK VINA RESULT:      -0.8      2.319      4.628
REMARK  Name = 11886501
REMARK  8 active torsions:
REMARK  status: ('A' for Active; 'I' for Inactive)
REMARK    1  A    between atoms: S_1  and  N_8
REMARK    2  A    between atoms: S_1  and  C_17
REMARK    3  A    between atoms: O_4  and  C_13
REMARK    4  A    between atoms: O_4  and  C_16
REMARK    5  A    between atoms: N_8  and  C_12
REMARK    6  A    between atoms: N_9  and  C_25
REMARK    7  A    between atoms: C_16  and  C_18
REMARK    8  A    between atoms: C_29  and  C_30
REMARK                            x       y       z     vdW  Elec       q    Type
REMARK                         _______ _______ _______ _____ _____    ______ ____
ROOT
ATOM      8  N   UNL     1      -4.993   3.485  24.446  0.00  0.00    -0.182 NA
ATOM     31  H   UNL     1      -5.366   3.920  23.593  0.00  0.00    +0.148 HD
ENDROOT
BRANCH   8  12
ATOM      2  O   UNL     1      -2.268   2.560  25.672  0.00  0.00    -0.370 OA
ATOM      3  O   UNL     1      -1.899   5.471  24.752  0.00  0.00    -0.370 OA
ATOM     10  C   UNL     1      -2.730   4.404  24.251  0.00  0.00    +0.170 C 
ATOM     11  C   UNL     1      -1.933   3.122  24.393  0.00  0.00    +0.179 C 
ATOM     12  C   UNL     1      -3.912   4.199  25.166  0.00  0.00    +0.133 C 
ATOM     13  C   UNL     1      -0.506   3.617  24.357  0.00  0.00    +0.175 C 
ATOM     14  C   UNL     1      -3.346   3.309  26.254  0.00  0.00    +0.183 C 
ATOM     15  C   UNL     1      -0.610   4.938  25.087  0.00  0.00    +0.194 C 
BRANCH  13   4
ATOM      4  O   UNL     1       0.409   2.742  24.973  0.00  0.00    -0.367 OA
BRANCH   4  16
ATOM     16  C   UNL     1       0.104   1.375  24.704  0.00  0.00    +0.195 C 
BRANCH  16  18
ATOM     18  C   UNL     1       1.043   0.863  23.651  0.00  0.00    -0.022 A 
ATOM     21  C   UNL     1       2.356   1.319  23.617  0.00  0.00    +0.006 A 
ATOM     22  C   UNL     1       0.592  -0.065  22.719  0.00  0.00    +0.006 A 
ATOM     26  C   UNL     1       3.228   0.843  22.640  0.00  0.00    +0.000 A 
ATOM     27  C   UNL     1       1.465  -0.542  21.740  0.00  0.00    +0.000 A 
ATOM     28  C   UNL     1       2.783  -0.088  21.701  0.00  0.00    +0.000 A 
ENDBRANCH  16  18
ENDBRANCH   4  16
ENDBRANCH  13   4
ENDBRANCH   8  12
BRANCH   8   1
ATOM      1  S   UNL     1      -5.840   2.233  25.218  0.00  0.00    +0.059 S 
ATOM      5  O   UNL     1      -7.035   1.918  24.458  0.00  0.00    -0.153 OA
ATOM      6  O   UNL     1      -5.934   2.537  26.633  0.00  0.00    -0.153 OA
BRANCH   1  17
ATOM     17  C   UNL     1      -4.718   0.878  25.055  0.00  0.00    +0.105 A 
ATOM     19  C   UNL     1      -4.485   0.057  26.144  0.00  0.00    +0.030 A 
ATOM     20  C   UNL     1      -4.092   0.662  23.838  0.00  0.00    +0.030 A 
ATOM     23  C   UNL     1      -3.600  -1.013  26.015  0.00  0.00    +0.025 A 
ATOM     24  C   UNL     1      -3.207  -0.408  23.709  0.00  0.00    +0.025 A 
ATOM     25  C   UNL     1      -2.961  -1.246  24.796  0.00  0.00    +0.033 A 
BRANCH  25   9
ATOM      7  O   UNL     1      -0.175  -1.619  25.875  0.00  0.00    -0.276 OA
ATOM      9  N   UNL     1      -2.075  -2.316  24.668  0.00  0.00    -0.286 N 
ATOM     29  C   UNL     1      -0.782  -2.437  25.192  0.00  0.00    +0.214 C 
ATOM     30  C   UNL     1      -0.151  -3.757  24.827  0.00  0.00    +0.109 C 
ATOM     32  H   UNL     1      -2.422  -3.103  24.122  0.00  0.00    +0.155 HD
ENDBRANCH  25   9
ENDBRANCH   1  17
ENDBRANCH   8   1
TORSDOF 7
ENDMDL
MODEL 6
REMARK VINA RESULT:      -0.7      2.302      5.407
REMARK  Name = 11886501
REMARK  8 active torsions:
REMARK  status: ('A' for Active; 'I' for Inactive)
REMARK    1  A    between atoms: S_1  and  N_8
REMARK    2  A    between atoms: S_1  and  C_17
REMARK    3  A    between atoms: O_4  and  C_13
REMARK    4  A    between atoms: O_4  and  C_16
REMARK    5  A    between atoms: N_8  and  C_12
REMARK    6  A    between atoms: N_9  and  C_25
REMARK    7  A    between atoms: C_16  and  C_18
REMARK    8  A    between atoms: C_29  and  C_30
REMARK                            x       y       z     vdW  Elec       q    Type
REMARK                         _______ _______ _______ _____ _____    ______ ____
ROOT
ATOM      8  N   UNL     1      -5.116  -0.180  24.584  0.00  0.00    -0.182 NA
ATOM     31  H   UNL     1      -5.215  -0.384  23.583  0.00  0.00    +0.148 HD
ENDROOT
BRANCH   8  12
ATOM      2  O   UNL     1      -2.463  -1.569  23.680  0.00  0.00    -0.370 OA
ATOM      3  O   UNL     1      -1.960  -0.403  26.481  0.00  0.00    -0.370 OA
ATOM     10  C   UNL     1      -2.816   0.026  25.402  0.00  0.00    +0.170 C 
ATOM     11  C   UNL     1      -2.071  -0.256  24.112  0.00  0.00    +0.179 C 
ATOM     12  C   UNL     1      -4.030  -0.867  25.323  0.00  0.00    +0.133 C 
ATOM     13  C   UNL     1      -0.627  -0.219  24.552  0.00  0.00    +0.175 C 
ATOM     14  C   UNL     1      -3.528  -2.048  24.516  0.00  0.00    +0.183 C 
ATOM     15  C   UNL     1      -0.702  -0.824  25.936  0.00  0.00    +0.194 C 
BRANCH  13   4
ATOM      4  O   UNL     1       0.238  -0.940  23.704  0.00  0.00    -0.367 OA
BRANCH   4  16
ATOM     16  C   UNL     1       0.900  -0.090  22.771  0.00  0.00    +0.195 C 
BRANCH  16  18
ATOM     18  C   UNL     1       2.377  -0.136  23.028  0.00  0.00    -0.022 A 
ATOM     21  C   UNL     1       3.158   0.983  22.762  0.00  0.00    +0.006 A 
ATOM     22  C   UNL     1       2.953  -1.296  23.533  0.00  0.00    +0.006 A 
ATOM     26  C   UNL     1       4.531   0.942  23.001  0.00  0.00    +0.000 A 
ATOM     27  C   UNL     1       4.327  -1.339  23.773  0.00  0.00    +0.000 A 
ATOM     28  C   UNL     1       5.116  -0.220  23.507  0.00  0.00    +0.000 A 
ENDBRANCH  16  18
ENDBRANCH   4  16
ENDBRANCH  13   4
ENDBRANCH   8  12
BRANCH   8   1
ATOM      1  S   UNL     1      -5.880   1.172  25.270  0.00  0.00    +0.059 S 
ATOM      5  O   UNL     1      -6.152   0.914  26.672  0.00  0.00    -0.153 OA
ATOM      6  O   UNL     1      -6.947   1.603  24.387  0.00  0.00    -0.153 OA
BRANCH   1  17
ATOM     17  C   UNL     1      -4.608   2.396  25.178  0.00  0.00    +0.105 A 
ATOM     19  C   UNL     1      -4.188   3.023  26.338  0.00  0.00    +0.030 A 
ATOM     20  C   UNL     1      -4.055   2.704  23.947  0.00  0.00    +0.030 A 
ATOM     23  C   UNL     1      -3.183   3.988  26.266  0.00  0.00    +0.025 A 
ATOM     24  C   UNL     1      -3.051   3.669  23.875  0.00  0.00    +0.025 A 
ATOM     25  C   UNL     1      -2.615   4.311  25.033  0.00  0.00    +0.033 A 
BRANCH  25   9
ATOM      7  O   UNL     1       0.181   4.148  23.926  0.00  0.00    -0.276 OA
ATOM      9  N   UNL     1      -1.611   5.278  24.961  0.00  0.00    -0.286 N 
ATOM     29  C   UNL     1      -0.320   5.146  24.434  0.00  0.00    +0.214 C 
ATOM     30  C   UNL     1       0.463   6.431  24.544  0.00  0.00    +0.109 C 
ATOM     32  H   UNL     1      -1.858   6.189  25.343  0.00  0.00    +0.155 HD
ENDBRANCH  25   9
ENDBRANCH   1  17
ENDBRANCH   8   1
TORSDOF 7
ENDMDL
MODEL 7
REMARK VINA RESULT:      -0.7      1.905      5.968
REMARK  Name = 11886501
REMARK  8 active torsions:
REMARK  status: ('A' for Active; 'I' for Inactive)
REMARK    1  A    between atoms: S_1  and  N_8
REMARK    2  A    between atoms: S_1  and  C_17
REMARK    3  A    between atoms: O_4  and  C_13
REMARK    4  A    between atoms: O_4  and  C_16
REMARK    5  A    between atoms: N_8  and  C_12
REMARK    6  A    between atoms: N_9  and  C_25
REMARK    7  A    between atoms: C_16  and  C_18
REMARK    8  A    between atoms: C_29  and  C_30
REMARK                            x       y       z     vdW  Elec       q    Type
REMARK                         _______ _______ _______ _____ _____    ______ ____
ROOT
ATOM      8  N   UNL     1      -1.786  -2.337  24.248  0.00  0.00    -0.182 NA
ATOM     31  H   UNL     1      -1.294  -2.631  23.395  0.00  0.00    +0.148 HD
ENDROOT
BRANCH   8  12
ATOM      2  O   UNL     1       0.974  -0.873  24.094  0.00  0.00    -0.370 OA
ATOM      3  O   UNL     1      -0.966   1.011  25.561  0.00  0.00    -0.370 OA
ATOM     10  C   UNL     1      -1.181   0.019  24.536  0.00  0.00    +0.170 C 
ATOM     11  C   UNL     1       0.015   0.080  23.606  0.00  0.00    +0.179 C 
ATOM     12  C   UNL     1      -1.106  -1.364  25.134  0.00  0.00    +0.133 C 
ATOM     13  C   UNL     1       0.497   1.500  23.785  0.00  0.00    +0.175 C 
ATOM     14  C   UNL     1       0.384  -1.642  25.154  0.00  0.00    +0.183 C 
ATOM     15  C   UNL     1       0.228   1.744  25.253  0.00  0.00    +0.194 C 
BRANCH  13   4
ATOM      4  O   UNL     1       1.857   1.678  23.459  0.00  0.00    -0.367 OA
BRANCH   4  16
ATOM     16  C   UNL     1       2.331   0.661  22.580  0.00  0.00    +0.195 C 
BRANCH  16  18
ATOM     18  C   UNL     1       3.641   0.140  23.095  0.00  0.00    -0.022 A 
ATOM     21  C   UNL     1       3.746  -1.188  23.493  0.00  0.00    +0.006 A 
ATOM     22  C   UNL     1       4.739   0.990  23.170  0.00  0.00    +0.006 A 
ATOM     26  C   UNL     1       4.962  -1.673  23.971  0.00  0.00    +0.000 A 
ATOM     27  C   UNL     1       5.957   0.506  23.649  0.00  0.00    +0.000 A 
ATOM     28  C   UNL     1       6.069  -0.825  24.049  0.00  0.00    +0.000 A 
ENDBRANCH  16  18
ENDBRANCH   4  16
ENDBRANCH  13   4
ENDBRANCH   8  12
BRANCH   8   1
ATOM      1  S   UNL     1      -3.450  -2.624  24.427  0.00  0.00    +0.059 S 
ATOM      5  O   UNL     1      -3.687  -3.337  25.668  0.00  0.00    -0.153 OA
ATOM      6  O   UNL     1      -3.972  -3.142  23.177  0.00  0.00    -0.153 OA
BRANCH   1  17
ATOM     17  C   UNL     1      -4.085  -0.984  24.612  0.00  0.00    +0.105 A 
ATOM     19  C   UNL     1      -4.056  -0.122  23.530  0.00  0.00    +0.030 A 
ATOM     20  C   UNL     1      -4.601  -0.594  25.837  0.00  0.00    +0.030 A 
ATOM     23  C   UNL     1      -4.558   1.172  23.677  0.00  0.00    +0.025 A 
ATOM     24  C   UNL     1      -5.101   0.699  25.983  0.00  0.00    +0.025 A 
ATOM     25  C   UNL     1      -5.081   1.582  24.904  0.00  0.00    +0.033 A 
BRANCH  25   9
ATOM      7  O   UNL     1      -3.790   4.065  26.014  0.00  0.00    -0.276 OA
ATOM      9  N   UNL     1      -5.582   2.876  25.050  0.00  0.00    -0.286 N 
ATOM     29  C   UNL     1      -4.934   4.000  25.577  0.00  0.00    +0.214 C 
ATOM     30  C   UNL     1      -5.823   5.218  25.558  0.00  0.00    +0.109 C 
ATOM     32  H   UNL     1      -6.539   3.009  24.729  0.00  0.00    +0.155 HD
ENDBRANCH  25   9
ENDBRANCH   1  17
ENDBRANCH   8   1
TORSDOF 7
ENDMDL
MODEL 8
REMARK VINA RESULT:       0.0      2.388      5.382
REMARK  Name = 11886501
REMARK  8 active torsions:
REMARK  status: ('A' for Active; 'I' for Inactive)
REMARK    1  A    between atoms: S_1  and  N_8
REMARK    2  A    between atoms: S_1  and  C_17
REMARK    3  A    between atoms: O_4  and  C_13
REMARK    4  A    between atoms: O_4  and  C_16
REMARK    5  A    between atoms: N_8  and  C_12
REMARK    6  A    between atoms: N_9  and  C_25
REMARK    7  A    between atoms: C_16  and  C_18
REMARK    8  A    between atoms: C_29  and  C_30
REMARK                            x       y       z     vdW  Elec       q    Type
REMARK                         _______ _______ _______ _____ _____    ______ ____
ROOT
ATOM      8  N   UNL     1      -4.485   1.536  24.867  0.00  0.00    -0.182 NA
ATOM     31  H   UNL     1      -5.314   1.594  25.471  0.00  0.00    +0.148 HD
ENDROOT
BRANCH   8  12
ATOM      2  O   UNL     1      -1.902   0.328  23.580  0.00  0.00    -0.370 OA
ATOM      3  O   UNL     1      -3.486  -2.014  24.789  0.00  0.00    -0.370 OA
ATOM     10  C   UNL     1      -3.378  -0.628  25.174  0.00  0.00    +0.170 C 
ATOM     11  C   UNL     1      -1.945  -0.209  24.912  0.00  0.00    +0.179 C 
ATOM     12  C   UNL     1      -4.186   0.231  24.232  0.00  0.00    +0.133 C 
ATOM     13  C   UNL     1      -1.197  -1.518  25.011  0.00  0.00    +0.175 C 
ATOM     14  C   UNL     1      -3.239   0.433  23.065  0.00  0.00    +0.183 C 
ATOM     15  C   UNL     1      -2.186  -2.494  24.415  0.00  0.00    +0.194 C 
BRANCH  13   4
ATOM      4  O   UNL     1       0.030  -1.518  24.318  0.00  0.00    -0.367 OA
BRANCH   4  16
ATOM     16  C   UNL     1       0.259  -0.286  23.639  0.00  0.00    +0.195 C 
BRANCH  16  18
ATOM     18  C   UNL     1       1.734  -0.117  23.415  0.00  0.00    -0.022 A 
ATOM     21  C   UNL     1       2.228   1.108  22.982  0.00  0.00    +0.006 A 
ATOM     22  C   UNL     1       2.592  -1.186  23.643  0.00  0.00    +0.006 A 
ATOM     26  C   UNL     1       3.598   1.266  22.773  0.00  0.00    +0.000 A 
ATOM     27  C   UNL     1       3.963  -1.029  23.435  0.00  0.00    +0.000 A 
ATOM     28  C   UNL     1       4.466   0.197  23.000  0.00  0.00    +0.000 A 
ENDBRANCH  16  18
ENDBRANCH   4  16
ENDBRANCH  13   4
ENDBRANCH   8  12
BRANCH   8   1
ATOM      1  S   UNL     1      -3.734   2.947  24.294  0.00  0.00    +0.059 S 
ATOM      5  O   UNL     1      -4.478   4.107  24.747  0.00  0.00    -0.153 OA
ATOM      6  O   UNL     1      -3.433   2.777  22.886  0.00  0.00    -0.153 OA
BRANCH   1  17
ATOM     17  C   UNL     1      -2.193   2.917  25.160  0.00  0.00    +0.105 A 
ATOM     19  C   UNL     1      -2.191   2.729  26.531  0.00  0.00    +0.030 A 
ATOM     20  C   UNL     1      -1.016   3.082  24.449  0.00  0.00    +0.030 A 
ATOM     23  C   UNL     1      -0.974   2.704  27.213  0.00  0.00    +0.025 A 
ATOM     24  C   UNL     1       0.200   3.058  25.132  0.00  0.00    +0.025 A 
ATOM     25  C   UNL     1       0.221   2.869  26.514  0.00  0.00    +0.033 A 
BRANCH  25   9
ATOM      7  O   UNL     1       0.809   2.545  29.449  0.00  0.00    -0.276 OA
ATOM      9  N   UNL     1       1.438   2.845  27.197  0.00  0.00    -0.286 N 
ATOM     29  C   UNL     1       1.654   2.692  28.572  0.00  0.00    +0.214 C 
ATOM     30  C   UNL     1       3.123   2.719  28.914  0.00  0.00    +0.109 C 
ATOM     32  H   UNL     1       2.265   2.954  26.613  0.00  0.00    +0.155 HD
ENDBRANCH  25   9
ENDBRANCH   1  17
ENDBRANCH   8   1
TORSDOF 7
ENDMDL
MODEL 9
REMARK VINA RESULT:       0.3      2.512      4.387
REMARK  Name = 11886501
REMARK  8 active torsions:
REMARK  status: ('A' for Active; 'I' for Inactive)
REMARK    1  A    between atoms: S_1  and  N_8
REMARK    2  A    between atoms: S_1  and  C_17
REMARK    3  A    between atoms: O_4  and  C_13
REMARK    4  A    between atoms: O_4  and  C_16
REMARK    5  A    between atoms: N_8  and  C_12
REMARK    6  A    between atoms: N_9  and  C_25
REMARK    7  A    between atoms: C_16  and  C_18
REMARK    8  A    between atoms: C_29  and  C_30
REMARK                            x       y       z     vdW  Elec       q    Type
REMARK                         _______ _______ _______ _____ _____    ______ ____
ROOT
ATOM      8  N   UNL     1       0.369  -0.966  24.695  0.00  0.00    -0.182 NA
ATOM     31  H   UNL     1       0.905  -0.717  25.535  0.00  0.00    +0.148 HD
ENDROOT
BRANCH   8  12
ATOM      2  O   UNL     1      -2.345  -0.122  25.999  0.00  0.00    -0.370 OA
ATOM      3  O   UNL     1      -3.008  -2.101  23.740  0.00  0.00    -0.370 OA
ATOM     10  C   UNL     1      -1.939  -1.144  23.896  0.00  0.00    +0.170 C 
ATOM     11  C   UNL     1      -2.532   0.068  24.587  0.00  0.00    +0.179 C 
ATOM     12  C   UNL     1      -0.923  -1.665  24.883  0.00  0.00    +0.133 C 
ATOM     13  C   UNL     1      -3.989  -0.013  24.200  0.00  0.00    +0.175 C 
ATOM     14  C   UNL     1      -1.525  -1.280  26.220  0.00  0.00    +0.183 C 
ATOM     15  C   UNL     1      -4.233  -1.505  24.191  0.00  0.00    +0.194 C 
BRANCH  13   4
ATOM      4  O   UNL     1      -4.847   0.659  25.093  0.00  0.00    -0.367 OA
BRANCH   4  16
ATOM     16  C   UNL     1      -5.205   1.954  24.617  0.00  0.00    +0.195 C 
BRANCH  16  18
ATOM     18  C   UNL     1      -4.079   2.906  24.894  0.00  0.00    -0.022 A 
ATOM     21  C   UNL     1      -3.144   3.175  23.900  0.00  0.00    +0.006 A 
ATOM     22  C   UNL     1      -3.979   3.512  26.141  0.00  0.00    +0.006 A 
ATOM     26  C   UNL     1      -2.097   4.059  24.156  0.00  0.00    +0.000 A 
ATOM     27  C   UNL     1      -2.931   4.397  26.398  0.00  0.00    +0.000 A 
ATOM     28  C   UNL     1      -1.991   4.671  25.405  0.00  0.00    +0.000 A 
ENDBRANCH  16  18
ENDBRANCH   4  16
ENDBRANCH  13   4
ENDBRANCH   8  12
BRANCH   8   1
ATOM      1  S   UNL     1       0.736  -0.255  23.197  0.00  0.00    +0.059 S 
ATOM      5  O   UNL     1       0.180   1.085  23.149  0.00  0.00    -0.153 OA
ATOM      6  O   UNL     1       0.437  -1.206  22.143  0.00  0.00    -0.153 OA
BRANCH   1  17
ATOM     17  C   UNL     1       2.495  -0.112  23.281  0.00  0.00    +0.105 A 
ATOM     19  C   UNL     1       3.102   1.045  22.824  0.00  0.00    +0.030 A 
ATOM     20  C   UNL     1       3.234  -1.161  23.803  0.00  0.00    +0.030 A 
ATOM     23  C   UNL     1       4.491   1.157  22.892  0.00  0.00    +0.025 A 
ATOM     24  C   UNL     1       4.622  -1.048  23.869  0.00  0.00    +0.025 A 
ATOM     25  C   UNL     1       5.251   0.111  23.414  0.00  0.00    +0.033 A 
BRANCH  25   9
ATOM      7  O   UNL     1       7.410  -1.468  22.030  0.00  0.00    -0.276 OA
ATOM      9  N   UNL     1       6.641   0.224  23.480  0.00  0.00    -0.286 N 
ATOM     29  C   UNL     1       7.604  -0.542  22.812  0.00  0.00    +0.214 C 
ATOM     30  C   UNL     1       9.005  -0.101  23.153  0.00  0.00    +0.109 C 
ATOM     32  H   UNL     1       6.987   0.959  24.094  0.00  0.00    +0.155 HD
ENDBRANCH  25   9
ENDBRANCH   1  17
ENDBRANCH   8   1
TORSDOF 7
ENDMDL
MODEL 10
REMARK VINA RESULT:       0.7      2.674      5.010
REMARK  Name = 11886501
REMARK  8 active torsions:
REMARK  status: ('A' for Active; 'I' for Inactive)
REMARK    1  A    between atoms: S_1  and  N_8
REMARK    2  A    between atoms: S_1  and  C_17
REMARK    3  A    between atoms: O_4  and  C_13
REMARK    4  A    between atoms: O_4  and  C_16
REMARK    5  A    between atoms: N_8  and  C_12
REMARK    6  A    between atoms: N_9  and  C_25
REMARK    7  A    between atoms: C_16  and  C_18
REMARK    8  A    between atoms: C_29  and  C_30
REMARK                            x       y       z     vdW  Elec       q    Type
REMARK                         _______ _______ _______ _____ _____    ______ ____
ROOT
ATOM      8  N   UNL     1       0.613   1.316  24.205  0.00  0.00    -0.182 NA
ATOM     31  H   UNL     1       1.194   1.610  25.000  0.00  0.00    +0.148 HD
ENDROOT
BRANCH   8  12
ATOM      2  O   UNL     1      -2.438   1.116  23.548  0.00  0.00    -0.370 OA
ATOM      3  O   UNL     1      -1.892   4.015  24.418  0.00  0.00    -0.370 OA
ATOM     10  C   UNL     1      -1.271   2.767  24.791  0.00  0.00    +0.170 C 
ATOM     11  C   UNL     1      -2.373   1.728  24.847  0.00  0.00    +0.179 C 
ATOM     12  C   UNL     1      -0.374   2.287  23.677  0.00  0.00    +0.133 C 
ATOM     13  C   UNL     1      -3.598   2.563  25.134  0.00  0.00    +0.175 C 
ATOM     14  C   UNL     1      -1.340   1.581  22.747  0.00  0.00    +0.183 C 
ATOM     15  C   UNL     1      -3.312   3.825  24.352  0.00  0.00    +0.194 C 
BRANCH  13   4
ATOM      4  O   UNL     1      -4.803   1.952  24.733  0.00  0.00    -0.367 OA
BRANCH   4  16
ATOM     16  C   UNL     1      -5.205   0.923  25.634  0.00  0.00    +0.195 C 
BRANCH  16  18
ATOM     18  C   UNL     1      -4.533  -0.361  25.243  0.00  0.00    -0.022 A 
ATOM     21  C   UNL     1      -4.791  -0.922  23.997  0.00  0.00    +0.006 A 
ATOM     22  C   UNL     1      -3.657  -0.978  26.129  0.00  0.00    +0.006 A 
ATOM     26  C   UNL     1      -4.167  -2.114  23.633  0.00  0.00    +0.000 A 
ATOM     27  C   UNL     1      -3.032  -2.171  25.765  0.00  0.00    +0.000 A 
ATOM     28  C   UNL     1      -3.286  -2.739  24.517  0.00  0.00    +0.000 A 
ENDBRANCH  16  18
ENDBRANCH   4  16
ENDBRANCH  13   4
ENDBRANCH   8  12
BRANCH   8   1
ATOM      1  S   UNL     1       1.040  -0.043  23.281  0.00  0.00    +0.059 S 
ATOM      5  O   UNL     1       0.638   0.165  21.903  0.00  0.00    -0.153 OA
ATOM      6  O   UNL     1       0.625  -1.238  23.990  0.00  0.00    -0.153 OA
BRANCH   1  17
ATOM     17  C   UNL     1       2.805   0.010  23.347  0.00  0.00    +0.105 A 
ATOM     19  C   UNL     1       3.498  -1.094  23.812  0.00  0.00    +0.030 A 
ATOM     20  C   UNL     1       3.463   1.156  22.932  0.00  0.00    +0.030 A 
ATOM     23  C   UNL     1       4.892  -1.052  23.863  0.00  0.00    +0.025 A 
ATOM     24  C   UNL     1       4.855   1.198  22.984  0.00  0.00    +0.025 A 
ATOM     25  C   UNL     1       5.570   0.095  23.449  0.00  0.00    +0.033 A 
BRANCH  25   9
ATOM      7  O   UNL     1       7.633  -1.488  21.930  0.00  0.00    -0.276 OA
ATOM      9  N   UNL     1       6.964   0.136  23.502  0.00  0.00    -0.286 N 
ATOM     29  C   UNL     1       7.881  -0.628  22.769  0.00  0.00    +0.214 C 
ATOM     30  C   UNL     1       9.306  -0.279  23.118  0.00  0.00    +0.109 C 
ATOM     32  H   UNL     1       7.353   0.811  24.158  0.00  0.00    +0.155 HD
ENDBRANCH  25   9
ENDBRANCH   1  17
ENDBRANCH   8   1
TORSDOF 7
ENDMDL
