MODEL 1
REMARK VINA RESULT:      -3.6      0.000      0.000
REMARK  Name = 45360772
REMARK  7 active torsions:
REMARK  status: ('A' for Active; 'I' for Inactive)
REMARK    1  A    between atoms: O_3  and  C_23
REMARK    2  A    between atoms: N_6  and  C_10
REMARK    3  A    between atoms: N_6  and  C_17
REMARK    4  A    between atoms: C_9  and  C_14
REMARK    5  A    between atoms: C_14  and  C_16
REMARK    6  A    between atoms: C_16  and  C_18
REMARK    7  A    between atoms: C_17  and  C_24
REMARK                            x       y       z     vdW  Elec       q    Type
REMARK                         _______ _______ _______ _____ _____    ______ ____
ROOT
ATOM      1  O   UNL     1       0.783   2.718  26.838  0.00  0.00    -0.274 OA
ATOM      4  N   UNL     1      -1.852   1.894  24.449  0.00  0.00    -0.286 NA
ATOM      5  N   UNL     1      -0.817   4.048  25.919  0.00  0.00    -0.313 N 
ATOM      8  C   UNL     1      -0.852   1.598  25.484  0.00  0.00    +0.145 C 
ATOM      9  C   UNL     1      -2.720   3.024  24.758  0.00  0.00    +0.075 C 
ATOM     10  C   UNL     1      -0.276   0.667  23.316  0.00  0.00    +0.070 C 
ATOM     11  C   UNL     1       0.206   0.746  24.765  0.00  0.00    +0.048 C 
ATOM     12  C   UNL     1      -1.154   1.902  23.165  0.00  0.00    +0.104 C 
ATOM     13  C   UNL     1      -1.904   4.284  24.996  0.00  0.00    +0.123 C 
ATOM     15  C   UNL     1      -0.213   2.830  26.116  0.00  0.00    +0.230 C 
ATOM     30  H   UNL     1      -0.394   4.858  26.362  0.00  0.00    +0.149 HD
ENDROOT
BRANCH  10   6
ATOM      6  N   UNL     1       0.813   0.608  22.355  0.00  0.00    -0.308 NA
ATOM     31  H   UNL     1       0.427   0.659  21.411  0.00  0.00    +0.123 HD
BRANCH   6  17
ATOM     17  C   UNL     1       1.564  -0.634  22.490  0.00  0.00    +0.116 C 
BRANCH  17  24
ATOM     24  C   UNL     1       2.979  -0.386  22.943  0.00  0.00    -0.034 A 
ATOM     25  C   UNL     1       3.683  -1.388  23.610  0.00  0.00    +0.005 A 
ATOM     26  C   UNL     1       3.585   0.846  22.695  0.00  0.00    +0.005 A 
ATOM     27  C   UNL     1       4.993  -1.159  24.031  0.00  0.00    +0.000 A 
ATOM     28  C   UNL     1       4.895   1.075  23.115  0.00  0.00    +0.000 A 
ATOM     29  C   UNL     1       5.599   0.073  23.783  0.00  0.00    +0.000 A 
ENDBRANCH  17  24
ENDBRANCH   6  17
ENDBRANCH  10   6
BRANCH   9  14
ATOM     14  C   UNL     1      -3.793   3.256  23.693  0.00  0.00    +0.029 C 
BRANCH  14  16
ATOM     16  C   UNL     1      -5.006   2.358  23.884  0.00  0.00    +0.097 C 
BRANCH  16  18
ATOM      2  O   UNL     1      -5.078   2.071  26.235  0.00  0.00    -0.276 OA
ATOM      7  N   UNL     1      -4.533   0.194  24.978  0.00  0.00    -0.301 N 
ATOM     18  C   UNL     1      -4.879   1.536  25.141  0.00  0.00    +0.216 C 
ATOM     19  C   UNL     1      -4.435  -0.680  26.149  0.00  0.00    +0.110 C 
ATOM     20  C   UNL     1      -4.290  -0.470  23.690  0.00  0.00    +0.110 C 
ATOM     21  C   UNL     1      -3.081  -1.382  26.192  0.00  0.00    +0.050 C 
ATOM     22  C   UNL     1      -2.934  -1.170  23.690  0.00  0.00    +0.050 C 
ATOM     23  C   UNL     1      -2.798  -2.117  24.882  0.00  0.00    +0.118 C 
BRANCH  23   3
ATOM      3  O   UNL     1      -1.475  -2.643  24.900  0.00  0.00    -0.392 OA
ATOM     32  H   UNL     1      -0.871  -1.925  24.641  0.00  0.00    +0.210 HD
ENDBRANCH  23   3
ENDBRANCH  16  18
ENDBRANCH  14  16
ENDBRANCH   9  14
TORSDOF 7
ENDMDL
MODEL 2
REMARK VINA RESULT:      -2.4      1.948      6.381
REMARK  Name = 45360772
REMARK  7 active torsions:
REMARK  status: ('A' for Active; 'I' for Inactive)
REMARK    1  A    between atoms: O_3  and  C_23
REMARK    2  A    between atoms: N_6  and  C_10
REMARK    3  A    between atoms: N_6  and  C_17
REMARK    4  A    between atoms: C_9  and  C_14
REMARK    5  A    between atoms: C_14  and  C_16
REMARK    6  A    between atoms: C_16  and  C_18
REMARK    7  A    between atoms: C_17  and  C_24
REMARK                            x       y       z     vdW  Elec       q    Type
REMARK                         _______ _______ _______ _____ _____    ______ ____
ROOT
ATOM      1  O   UNL     1      -3.387   4.606  27.212  0.00  0.00    -0.274 OA
ATOM      4  N   UNL     1      -2.586   3.087  23.991  0.00  0.00    -0.286 NA
ATOM      5  N   UNL     1      -1.469   3.605  26.512  0.00  0.00    -0.313 N 
ATOM      8  C   UNL     1      -3.327   3.975  24.897  0.00  0.00    +0.145 C 
ATOM      9  C   UNL     1      -1.136   3.170  24.120  0.00  0.00    +0.075 C 
ATOM     10  C   UNL     1      -4.679   2.143  24.050  0.00  0.00    +0.070 C 
ATOM     11  C   UNL     1      -4.747   3.388  24.934  0.00  0.00    +0.048 C 
ATOM     12  C   UNL     1      -3.203   1.765  24.081  0.00  0.00    +0.104 C 
ATOM     13  C   UNL     1      -0.702   2.856  25.543  0.00  0.00    +0.123 C 
ATOM     15  C   UNL     1      -2.746   4.068  26.304  0.00  0.00    +0.230 C 
ATOM     30  H   UNL     1      -1.085   3.692  27.448  0.00  0.00    +0.149 HD
ENDROOT
BRANCH  10   6
ATOM      6  N   UNL     1      -5.560   1.077  24.496  0.00  0.00    -0.308 NA
ATOM     31  H   UNL     1      -6.456   1.480  24.775  0.00  0.00    +0.123 HD
BRANCH   6  17
ATOM     17  C   UNL     1      -4.989   0.365  25.633  0.00  0.00    +0.116 C 
BRANCH  17  24
ATOM     24  C   UNL     1      -4.082  -0.754  25.194  0.00  0.00    -0.034 A 
ATOM     25  C   UNL     1      -2.845  -0.932  25.813  0.00  0.00    +0.005 A 
ATOM     26  C   UNL     1      -4.479  -1.613  24.169  0.00  0.00    +0.005 A 
ATOM     27  C   UNL     1      -2.004  -1.968  25.407  0.00  0.00    +0.000 A 
ATOM     28  C   UNL     1      -3.638  -2.649  23.763  0.00  0.00    +0.000 A 
ATOM     29  C   UNL     1      -2.401  -2.826  24.382  0.00  0.00    +0.000 A 
ENDBRANCH  17  24
ENDBRANCH   6  17
ENDBRANCH  10   6
BRANCH   9  14
ATOM     14  C   UNL     1      -0.399   2.287  23.113  0.00  0.00    +0.029 C 
BRANCH  14  16
ATOM     16  C   UNL     1       1.029   1.983  23.542  0.00  0.00    +0.097 C 
BRANCH  16  18
ATOM      2  O   UNL     1       0.429  -0.309  23.596  0.00  0.00    -0.276 OA
ATOM      7  N   UNL     1       2.646   0.172  23.087  0.00  0.00    -0.301 N 
ATOM     18  C   UNL     1       1.332   0.512  23.412  0.00  0.00    +0.216 C 
ATOM     19  C   UNL     1       3.007  -1.236  22.898  0.00  0.00    +0.110 C 
ATOM     20  C   UNL     1       3.740   1.125  22.862  0.00  0.00    +0.110 C 
ATOM     21  C   UNL     1       4.195  -1.615  23.778  0.00  0.00    +0.050 C 
ATOM     22  C   UNL     1       4.941   0.787  23.741  0.00  0.00    +0.050 C 
ATOM     23  C   UNL     1       5.373  -0.667  23.555  0.00  0.00    +0.118 C 
BRANCH  23   3
ATOM      3  O   UNL     1       6.410  -0.959  24.485  0.00  0.00    -0.392 OA
ATOM     32  H   UNL     1       6.493  -0.195  25.080  0.00  0.00    +0.210 HD
ENDBRANCH  23   3
ENDBRANCH  16  18
ENDBRANCH  14  16
ENDBRANCH   9  14
TORSDOF 7
ENDMDL
MODEL 3
REMARK VINA RESULT:      -2.2      1.864      2.928
REMARK  Name = 45360772
REMARK  7 active torsions:
REMARK  status: ('A' for Active; 'I' for Inactive)
REMARK    1  A    between atoms: O_3  and  C_23
REMARK    2  A    between atoms: N_6  and  C_10
REMARK    3  A    between atoms: N_6  and  C_17
REMARK    4  A    between atoms: C_9  and  C_14
REMARK    5  A    between atoms: C_14  and  C_16
REMARK    6  A    between atoms: C_16  and  C_18
REMARK    7  A    between atoms: C_17  and  C_24
REMARK                            x       y       z     vdW  Elec       q    Type
REMARK                         _______ _______ _______ _____ _____    ______ ____
ROOT
ATOM      1  O   UNL     1      -1.073  -1.348  26.505  0.00  0.00    -0.274 OA
ATOM      4  N   UNL     1      -0.875   1.521  24.257  0.00  0.00    -0.286 NA
ATOM      5  N   UNL     1      -0.511   0.811  26.947  0.00  0.00    -0.313 N 
ATOM      8  C   UNL     1      -1.327   0.189  24.679  0.00  0.00    +0.145 C 
ATOM      9  C   UNL     1      -0.993   2.550  25.284  0.00  0.00    +0.075 C 
ATOM     10  C   UNL     1       0.151   0.121  22.754  0.00  0.00    +0.070 C 
ATOM     11  C   UNL     1      -0.683  -0.775  23.670  0.00  0.00    +0.048 C 
ATOM     12  C   UNL     1       0.425   1.350  23.610  0.00  0.00    +0.104 C 
ATOM     13  C   UNL     1      -0.211   2.162  26.529  0.00  0.00    +0.123 C 
ATOM     15  C   UNL     1      -0.941  -0.187  26.106  0.00  0.00    +0.230 C 
ATOM     30  H   UNL     1      -0.277   0.553  27.900  0.00  0.00    +0.149 HD
ENDROOT
BRANCH  10   6
ATOM      6  N   UNL     1       1.358  -0.527  22.266  0.00  0.00    -0.308 NA
ATOM     31  H   UNL     1       1.645  -1.243  22.935  0.00  0.00    +0.123 HD
BRANCH   6  17
ATOM     17  C   UNL     1       2.442   0.435  22.110  0.00  0.00    +0.116 C 
BRANCH  17  24
ATOM     24  C   UNL     1       3.667   0.029  22.887  0.00  0.00    -0.034 A 
ATOM     25  C   UNL     1       4.703   0.942  23.081  0.00  0.00    +0.005 A 
ATOM     26  C   UNL     1       3.765  -1.260  23.412  0.00  0.00    +0.005 A 
ATOM     27  C   UNL     1       5.838   0.567  23.800  0.00  0.00    +0.000 A 
ATOM     28  C   UNL     1       4.899  -1.634  24.130  0.00  0.00    +0.000 A 
ATOM     29  C   UNL     1       5.936  -0.721  24.324  0.00  0.00    +0.000 A 
ENDBRANCH  17  24
ENDBRANCH   6  17
ENDBRANCH  10   6
BRANCH   9  14
ATOM     14  C   UNL     1      -0.580   3.935  24.786  0.00  0.00    +0.029 C 
BRANCH  14  16
ATOM     16  C   UNL     1      -1.753   4.902  24.719  0.00  0.00    +0.097 C 
BRANCH  16  18
ATOM      2  O   UNL     1      -2.931   4.796  26.773  0.00  0.00    -0.276 OA
ATOM      7  N   UNL     1      -3.838   3.606  24.995  0.00  0.00    -0.301 N 
ATOM     18  C   UNL     1      -2.889   4.436  25.593  0.00  0.00    +0.216 C 
ATOM     19  C   UNL     1      -4.996   3.148  25.768  0.00  0.00    +0.110 C 
ATOM     20  C   UNL     1      -3.816   3.160  23.595  0.00  0.00    +0.110 C 
ATOM     21  C   UNL     1      -5.115   1.628  25.721  0.00  0.00    +0.050 C 
ATOM     22  C   UNL     1      -3.915   1.640  23.510  0.00  0.00    +0.050 C 
ATOM     23  C   UNL     1      -5.129   1.119  24.280  0.00  0.00    +0.118 C 
BRANCH  23   3
ATOM      3  O   UNL     1      -5.100  -0.304  24.271  0.00  0.00    -0.392 OA
ATOM     32  H   UNL     1      -6.018  -0.615  24.186  0.00  0.00    +0.210 HD
ENDBRANCH  23   3
ENDBRANCH  16  18
ENDBRANCH  14  16
ENDBRANCH   9  14
TORSDOF 7
ENDMDL
MODEL 4
REMARK VINA RESULT:      -2.0      1.363      3.884
REMARK  Name = 45360772
REMARK  7 active torsions:
REMARK  status: ('A' for Active; 'I' for Inactive)
REMARK    1  A    between atoms: O_3  and  C_23
REMARK    2  A    between atoms: N_6  and  C_10
REMARK    3  A    between atoms: N_6  and  C_17
REMARK    4  A    between atoms: C_9  and  C_14
REMARK    5  A    between atoms: C_14  and  C_16
REMARK    6  A    between atoms: C_16  and  C_18
REMARK    7  A    between atoms: C_17  and  C_24
REMARK                            x       y       z     vdW  Elec       q    Type
REMARK                         _______ _______ _______ _____ _____    ______ ____
ROOT
ATOM      1  O   UNL     1      -2.811  -2.905  26.126  0.00  0.00    -0.274 OA
ATOM      4  N   UNL     1      -3.121  -0.268  23.621  0.00  0.00    -0.286 NA
ATOM      5  N   UNL     1      -4.033  -0.989  26.175  0.00  0.00    -0.313 N 
ATOM      8  C   UNL     1      -2.824  -1.627  24.095  0.00  0.00    +0.145 C 
ATOM      9  C   UNL     1      -4.388   0.272  24.100  0.00  0.00    +0.075 C 
ATOM     10  C   UNL     1      -0.849  -0.434  23.337  0.00  0.00    +0.070 C 
ATOM     11  C   UNL     1      -1.309  -1.785  23.888  0.00  0.00    +0.048 C 
ATOM     12  C   UNL     1      -1.917   0.533  23.828  0.00  0.00    +0.104 C 
ATOM     13  C   UNL     1      -4.430   0.286  25.620  0.00  0.00    +0.123 C 
ATOM     15  C   UNL     1      -3.199  -1.884  25.551  0.00  0.00    +0.230 C 
ATOM     30  H   UNL     1      -4.292  -1.181  27.137  0.00  0.00    +0.149 HD
ENDROOT
BRANCH  10   6
ATOM      6  N   UNL     1       0.496  -0.076  23.757  0.00  0.00    -0.308 NA
ATOM     31  H   UNL     1       0.465   0.818  24.248  0.00  0.00    +0.123 HD
BRANCH   6  17
ATOM     17  C   UNL     1       1.387   0.048  22.610  0.00  0.00    +0.116 C 
BRANCH  17  24
ATOM     24  C   UNL     1       2.834  -0.085  23.007  0.00  0.00    -0.034 A 
ATOM     25  C   UNL     1       3.709   0.985  22.819  0.00  0.00    +0.005 A 
ATOM     26  C   UNL     1       3.298  -1.277  23.563  0.00  0.00    +0.005 A 
ATOM     27  C   UNL     1       5.049   0.863  23.186  0.00  0.00    +0.000 A 
ATOM     28  C   UNL     1       4.638  -1.399  23.930  0.00  0.00    +0.000 A 
ATOM     29  C   UNL     1       5.513  -0.330  23.742  0.00  0.00    +0.000 A 
ENDBRANCH  17  24
ENDBRANCH   6  17
ENDBRANCH  10   6
BRANCH   9  14
ATOM     14  C   UNL     1      -4.696   1.656  23.529  0.00  0.00    +0.029 C 
BRANCH  14  16
ATOM     16  C   UNL     1      -4.795   2.722  24.611  0.00  0.00    +0.097 C 
BRANCH  16  18
ATOM      2  O   UNL     1      -3.870   4.638  23.567  0.00  0.00    -0.276 OA
ATOM      7  N   UNL     1      -2.624   3.690  25.284  0.00  0.00    -0.301 N 
ATOM     18  C   UNL     1      -3.728   3.772  24.435  0.00  0.00    +0.216 C 
ATOM     19  C   UNL     1      -1.567   4.701  25.204  0.00  0.00    +0.110 C 
ATOM     20  C   UNL     1      -2.427   2.672  26.325  0.00  0.00    +0.110 C 
ATOM     21  C   UNL     1      -0.201   4.048  25.018  0.00  0.00    +0.050 C 
ATOM     22  C   UNL     1      -1.075   1.983  26.159  0.00  0.00    +0.050 C 
ATOM     23  C   UNL     1       0.063   3.001  26.101  0.00  0.00    +0.118 C 
BRANCH  23   3
ATOM      3  O   UNL     1       1.278   2.314  25.821  0.00  0.00    -0.392 OA
ATOM     32  H   UNL     1       1.134   1.373  26.019  0.00  0.00    +0.210 HD
ENDBRANCH  23   3
ENDBRANCH  16  18
ENDBRANCH  14  16
ENDBRANCH   9  14
TORSDOF 7
ENDMDL
