MODEL 1
REMARK VINA RESULT:       9.0      0.000      0.000
REMARK  Name = 23757048
REMARK  13 active torsions:
REMARK  status: ('A' for Active; 'I' for Inactive)
REMARK    1  A    between atoms: O_1  and  C_16
REMARK    2  A    between atoms: O_1  and  C_25
REMARK    3  A    between atoms: O_2  and  C_17
REMARK    4  A    between atoms: O_3  and  C_21
REMARK    5  A    between atoms: O_6  and  C_28
REMARK    6  A    between atoms: O_7  and  C_35
REMARK    7  A    between atoms: O_7  and  C_36
REMARK    8  A    between atoms: N_9  and  C_30
REMARK    9  A    between atoms: C_10  and  C_20
REMARK   10  A    between atoms: C_12  and  C_21
REMARK   11  A    between atoms: C_12  and  C_23
REMARK   12  A    between atoms: C_13  and  C_22
REMARK   13  A    between atoms: C_22  and  C_24
REMARK                            x       y       z     vdW  Elec       q    Type
REMARK                         _______ _______ _______ _____ _____    ______ ____
ROOT
ATOM     10  C   UNL     1      -4.019   2.084  24.910  0.00  0.00    -0.023 C 
ATOM     11  C   UNL     1      -4.560   2.807  26.196  0.00  0.00    +0.007 C 
ATOM     12  C   UNL     1      -3.864   4.182  26.558  0.00  0.00    +0.031 C 
ATOM     13  C   UNL     1      -4.702   0.657  24.820  0.00  0.00    +0.032 C 
ATOM     14  C   UNL     1      -2.472   1.893  25.041  0.00  0.00    +0.011 C 
ATOM     15  C   UNL     1      -6.102   2.867  26.219  0.00  0.00    +0.007 C 
ATOM     16  C   UNL     1      -2.348   4.172  26.181  0.00  0.00    +0.186 C 
ATOM     17  C   UNL     1      -6.245   0.685  24.926  0.00  0.00    +0.119 C 
ATOM     18  C   UNL     1      -1.789   2.757  26.107  0.00  0.00    +0.046 C 
ATOM     19  C   UNL     1      -6.717   1.470  26.146  0.00  0.00    +0.032 C 
ATOM     20  C   UNL     1      -4.302   2.894  23.622  0.00  0.00    +0.012 C 
ATOM     23  C   UNL     1      -3.940   4.346  28.105  0.00  0.00    +0.017 C 
ENDROOT
BRANCH  17   2
ATOM      2  O   UNL     1      -6.857   1.244  23.769  0.00  0.00    -0.391 OA
ATOM     42  H   UNL     1      -6.198   1.807  23.327  0.00  0.00    +0.210 HD
ENDBRANCH  17   2
BRANCH  16   1
ATOM      1  O   UNL     1      -2.072   4.811  24.937  0.00  0.00    -0.446 OA
BRANCH   1  25
ATOM      5  O   UNL     1      -0.166   5.131  23.715  0.00  0.00    -0.226 OA
ATOM      9  N   UNL     1      -0.910   2.996  24.324  0.00  0.00    -0.251 N 
ATOM     25  C   UNL     1      -0.959   4.376  24.264  0.00  0.00    +0.405 C 
ATOM     44  H   UNL     1      -1.666   2.543  24.831  0.00  0.00    +0.158 HD
BRANCH   9  30
ATOM     30  C   UNL     1       0.063   2.135  23.767  0.00  0.00    +0.037 A 
ATOM     31  C   UNL     1      -0.337   1.125  22.907  0.00  0.00    +0.027 A 
ATOM     32  C   UNL     1       1.398   2.317  24.093  0.00  0.00    +0.027 A 
ATOM     33  C   UNL     1       0.623   0.274  22.358  0.00  0.00    +0.048 A 
ATOM     34  C   UNL     1       2.357   1.467  23.544  0.00  0.00    +0.048 A 
ATOM     35  C   UNL     1       1.970   0.445  22.676  0.00  0.00    +0.129 A 
BRANCH  35   7
ATOM      7  O   UNL     1       2.906  -0.383  22.140  0.00  0.00    -0.456 OA
BRANCH   7  36
ATOM     36  C   UNL     1       4.095  -0.544  22.833  0.00  0.00    +0.128 A 
ATOM     37  C   UNL     1       4.283  -1.684  23.592  0.00  0.00    +0.046 A 
ATOM     38  C   UNL     1       5.062   0.442  22.748  0.00  0.00    +0.046 A 
ATOM     39  C   UNL     1       5.480  -1.846  24.291  0.00  0.00    +0.004 A 
ATOM     40  C   UNL     1       6.260   0.280  23.446  0.00  0.00    +0.004 A 
ATOM     41  C   UNL     1       6.468  -0.863  24.217  0.00  0.00    +0.000 A 
ENDBRANCH   7  36
ENDBRANCH  35   7
ENDBRANCH   9  30
ENDBRANCH   1  25
ENDBRANCH  16   1
BRANCH  12  21
ATOM     21  C   UNL     1      -4.588   5.409  25.963  0.00  0.00    +0.166 C 
BRANCH  21   3
ATOM      3  O   UNL     1      -5.955   5.086  25.836  0.00  0.00    -0.394 OA
ATOM     43  H   UNL     1      -6.092   4.228  26.274  0.00  0.00    +0.209 HD
ENDBRANCH  21   3
ENDBRANCH  12  21
BRANCH  13  22
ATOM     22  C   UNL     1      -4.266  -0.176  23.602  0.00  0.00    +0.102 C 
BRANCH  22  24
ATOM      4  O   UNL     1      -4.698  -2.511  23.794  0.00  0.00    -0.276 OA
ATOM      8  N   UNL     1      -2.728  -1.724  24.711  0.00  0.00    -0.299 N 
ATOM     24  C   UNL     1      -3.930  -1.580  24.040  0.00  0.00    +0.216 C 
ATOM     26  C   UNL     1      -1.772  -0.664  25.029  0.00  0.00    +0.139 C 
ATOM     27  C   UNL     1      -2.261  -3.016  25.191  0.00  0.00    +0.110 C 
ATOM     28  C   UNL     1      -0.539  -1.401  25.538  0.00  0.00    +0.133 C 
ATOM     29  C   UNL     1      -1.112  -2.682  26.133  0.00  0.00    +0.052 C 
BRANCH  28   6
ATOM      6  O   UNL     1       0.316  -1.732  24.449  0.00  0.00    -0.390 OA
ATOM     45  H   UNL     1       1.208  -1.417  24.672  0.00  0.00    +0.210 HD
ENDBRANCH  28   6
ENDBRANCH  22  24
ENDBRANCH  13  22
TORSDOF 11
ENDMDL
MODEL 2
REMARK VINA RESULT:       9.7      1.805      4.607
REMARK  Name = 23757048
REMARK  13 active torsions:
REMARK  status: ('A' for Active; 'I' for Inactive)
REMARK    1  A    between atoms: O_1  and  C_16
REMARK    2  A    between atoms: O_1  and  C_25
REMARK    3  A    between atoms: O_2  and  C_17
REMARK    4  A    between atoms: O_3  and  C_21
REMARK    5  A    between atoms: O_6  and  C_28
REMARK    6  A    between atoms: O_7  and  C_35
REMARK    7  A    between atoms: O_7  and  C_36
REMARK    8  A    between atoms: N_9  and  C_30
REMARK    9  A    between atoms: C_10  and  C_20
REMARK   10  A    between atoms: C_12  and  C_21
REMARK   11  A    between atoms: C_12  and  C_23
REMARK   12  A    between atoms: C_13  and  C_22
REMARK   13  A    between atoms: C_22  and  C_24
REMARK                            x       y       z     vdW  Elec       q    Type
REMARK                         _______ _______ _______ _____ _____    ______ ____
ROOT
ATOM     10  C   UNL     1      -3.309   2.214  24.554  0.00  0.00    -0.023 C 
ATOM     11  C   UNL     1      -4.835   2.557  24.701  0.00  0.00    +0.007 C 
ATOM     12  C   UNL     1      -5.758   1.384  25.226  0.00  0.00    +0.031 C 
ATOM     13  C   UNL     1      -2.591   3.439  23.850  0.00  0.00    +0.032 C 
ATOM     14  C   UNL     1      -3.153   0.950  23.644  0.00  0.00    +0.011 C 
ATOM     15  C   UNL     1      -5.056   3.897  25.435  0.00  0.00    +0.007 C 
ATOM     16  C   UNL     1      -5.261  -0.007  24.715  0.00  0.00    +0.186 C 
ATOM     17  C   UNL     1      -2.869   4.805  24.520  0.00  0.00    +0.119 C 
ATOM     18  C   UNL     1      -4.424   0.118  23.449  0.00  0.00    +0.046 C 
ATOM     19  C   UNL     1      -4.361   5.051  24.715  0.00  0.00    +0.032 C 
ATOM     20  C   UNL     1      -2.642   1.916  25.919  0.00  0.00    +0.012 C 
ATOM     23  C   UNL     1      -7.176   1.603  24.619  0.00  0.00    +0.017 C 
ENDROOT
BRANCH  17   2
ATOM      2  O   UNL     1      -2.225   4.929  25.784  0.00  0.00    -0.391 OA
ATOM     42  H   UNL     1      -2.864   4.666  26.470  0.00  0.00    +0.210 HD
ENDBRANCH  17   2
BRANCH  16   1
ATOM      1  O   UNL     1      -4.484  -0.716  25.678  0.00  0.00    -0.446 OA
BRANCH   1  25
ATOM      5  O   UNL     1      -3.542  -2.581  24.750  0.00  0.00    -0.226 OA
ATOM      9  N   UNL     1      -2.279  -0.684  25.287  0.00  0.00    -0.251 N 
ATOM     25  C   UNL     1      -3.429  -1.443  25.190  0.00  0.00    +0.405 C 
ATOM     44  H   UNL     1      -2.387   0.246  25.683  0.00  0.00    +0.158 HD
BRANCH   9  30
ATOM     30  C   UNL     1      -0.966  -1.041  24.903  0.00  0.00    +0.037 A 
ATOM     31  C   UNL     1      -0.321  -2.074  25.565  0.00  0.00    +0.027 A 
ATOM     32  C   UNL     1      -0.348  -0.350  23.872  0.00  0.00    +0.027 A 
ATOM     33  C   UNL     1       0.975  -2.424  25.187  0.00  0.00    +0.048 A 
ATOM     34  C   UNL     1       0.947  -0.702  23.494  0.00  0.00    +0.048 A 
ATOM     35  C   UNL     1       1.609  -1.739  24.151  0.00  0.00    +0.129 A 
BRANCH  35   7
ATOM      7  O   UNL     1       2.872  -2.082  23.781  0.00  0.00    -0.456 OA
BRANCH   7  36
ATOM     36  C   UNL     1       3.799  -1.063  23.635  0.00  0.00    +0.128 A 
ATOM     37  C   UNL     1       3.446   0.072  22.928  0.00  0.00    +0.046 A 
ATOM     38  C   UNL     1       5.054  -1.208  24.199  0.00  0.00    +0.046 A 
ATOM     39  C   UNL     1       4.380   1.098  22.780  0.00  0.00    +0.004 A 
ATOM     40  C   UNL     1       5.988  -0.182  24.050  0.00  0.00    +0.004 A 
ATOM     41  C   UNL     1       5.651   0.971  23.341  0.00  0.00    +0.000 A 
ENDBRANCH   7  36
ENDBRANCH  35   7
ENDBRANCH   9  30
ENDBRANCH   1  25
ENDBRANCH  16   1
BRANCH  12  21
ATOM     21  C   UNL     1      -5.945   1.391  26.759  0.00  0.00    +0.166 C 
BRANCH  21   3
ATOM      3  O   UNL     1      -7.321   1.551  27.026  0.00  0.00    -0.394 OA
ATOM     43  H   UNL     1      -7.404   2.222  27.726  0.00  0.00    +0.209 HD
ENDBRANCH  21   3
ENDBRANCH  12  21
BRANCH  13  22
ATOM     22  C   UNL     1      -1.080   3.247  23.635  0.00  0.00    +0.102 C 
BRANCH  22  24
ATOM      4  O   UNL     1      -0.218   5.346  24.361  0.00  0.00    -0.276 OA
ATOM      8  N   UNL     1       0.243   3.503  25.677  0.00  0.00    -0.299 N 
ATOM     24  C   UNL     1      -0.314   4.137  24.581  0.00  0.00    +0.216 C 
ATOM     26  C   UNL     1       0.161   2.079  25.998  0.00  0.00    +0.139 C 
ATOM     27  C   UNL     1       1.006   4.227  26.684  0.00  0.00    +0.110 C 
ATOM     28  C   UNL     1       0.722   1.971  27.411  0.00  0.00    +0.133 C 
ATOM     29  C   UNL     1       1.699   3.139  27.494  0.00  0.00    +0.052 C 
BRANCH  28   6
ATOM      6  O   UNL     1      -0.318   2.162  28.364  0.00  0.00    -0.390 OA
ATOM     45  H   UNL     1       0.090   2.149  29.247  0.00  0.00    +0.210 HD
ENDBRANCH  28   6
ENDBRANCH  22  24
ENDBRANCH  13  22
TORSDOF 11
ENDMDL
MODEL 3
REMARK VINA RESULT:      11.2      1.903      3.525
REMARK  Name = 23757048
REMARK  13 active torsions:
REMARK  status: ('A' for Active; 'I' for Inactive)
REMARK    1  A    between atoms: O_1  and  C_16
REMARK    2  A    between atoms: O_1  and  C_25
REMARK    3  A    between atoms: O_2  and  C_17
REMARK    4  A    between atoms: O_3  and  C_21
REMARK    5  A    between atoms: O_6  and  C_28
REMARK    6  A    between atoms: O_7  and  C_35
REMARK    7  A    between atoms: O_7  and  C_36
REMARK    8  A    between atoms: N_9  and  C_30
REMARK    9  A    between atoms: C_10  and  C_20
REMARK   10  A    between atoms: C_12  and  C_21
REMARK   11  A    between atoms: C_12  and  C_23
REMARK   12  A    between atoms: C_13  and  C_22
REMARK   13  A    between atoms: C_22  and  C_24
REMARK                            x       y       z     vdW  Elec       q    Type
REMARK                         _______ _______ _______ _____ _____    ______ ____
ROOT
ATOM     10  C   UNL     1      -3.171   2.152  25.223  0.00  0.00    -0.023 C 
ATOM     11  C   UNL     1      -2.502   3.572  25.282  0.00  0.00    +0.007 C 
ATOM     12  C   UNL     1      -1.112   3.710  24.538  0.00  0.00    +0.031 C 
ATOM     13  C   UNL     1      -4.444   2.165  26.168  0.00  0.00    +0.032 C 
ATOM     14  C   UNL     1      -2.160   1.085  25.758  0.00  0.00    +0.011 C 
ATOM     15  C   UNL     1      -3.503   4.696  24.941  0.00  0.00    +0.007 C 
ATOM     16  C   UNL     1      -0.280   2.390  24.631  0.00  0.00    +0.186 C 
ATOM     17  C   UNL     1      -5.420   3.335  25.899  0.00  0.00    +0.119 C 
ATOM     18  C   UNL     1      -0.698   1.537  25.822  0.00  0.00    +0.046 C 
ATOM     19  C   UNL     1      -4.704   4.681  25.884  0.00  0.00    +0.032 C 
ATOM     20  C   UNL     1      -3.579   1.757  23.783  0.00  0.00    +0.012 C 
ATOM     23  C   UNL     1      -0.295   4.807  25.282  0.00  0.00    +0.017 C 
ENDROOT
BRANCH  17   2
ATOM      2  O   UNL     1      -6.119   3.185  24.668  0.00  0.00    -0.391 OA
ATOM     42  H   UNL     1      -7.008   2.846  24.870  0.00  0.00    +0.210 HD
ENDBRANCH  17   2
BRANCH  16   1
ATOM      1  O   UNL     1      -0.378   1.579  23.463  0.00  0.00    -0.446 OA
BRANCH   1  25
ATOM      5  O   UNL     1       0.277  -0.591  23.166  0.00  0.00    -0.226 OA
ATOM      9  N   UNL     1       1.820   1.152  23.416  0.00  0.00    -0.251 N 
ATOM     25  C   UNL     1       0.561   0.589  23.331  0.00  0.00    +0.405 C 
ATOM     44  H   UNL     1       1.853   2.158  23.555  0.00  0.00    +0.158 HD
BRANCH   9  30
ATOM     30  C   UNL     1       3.072   0.500  23.333  0.00  0.00    +0.037 A 
ATOM     31  C   UNL     1       3.201  -0.789  23.826  0.00  0.00    +0.027 A 
ATOM     32  C   UNL     1       4.147   1.163  22.761  0.00  0.00    +0.027 A 
ATOM     33  C   UNL     1       4.437  -1.431  23.746  0.00  0.00    +0.048 A 
ATOM     34  C   UNL     1       5.381   0.520  22.680  0.00  0.00    +0.048 A 
ATOM     35  C   UNL     1       5.527  -0.777  23.172  0.00  0.00    +0.129 A 
BRANCH  35   7
ATOM      7  O   UNL     1       6.732  -1.404  23.092  0.00  0.00    -0.456 OA
BRANCH   7  36
ATOM     36  C   UNL     1       7.871  -0.618  23.146  0.00  0.00    +0.128 A 
ATOM     37  C   UNL     1       8.991  -1.006  22.433  0.00  0.00    +0.046 A 
ATOM     38  C   UNL     1       7.859   0.534  23.912  0.00  0.00    +0.046 A 
ATOM     39  C   UNL     1      10.139  -0.215  22.488  0.00  0.00    +0.004 A 
ATOM     40  C   UNL     1       9.007   1.325  23.966  0.00  0.00    +0.004 A 
ATOM     41  C   UNL     1      10.147   0.951  23.254  0.00  0.00    +0.000 A 
ENDBRANCH   7  36
ENDBRANCH  35   7
ENDBRANCH   9  30
ENDBRANCH   1  25
ENDBRANCH  16   1
BRANCH  12  21
ATOM     21  C   UNL     1      -1.245   4.195  23.078  0.00  0.00    +0.166 C 
BRANCH  21   3
ATOM      3  O   UNL     1       0.033   4.598  22.638  0.00  0.00    -0.394 OA
ATOM     43  H   UNL     1       0.159   4.236  21.744  0.00  0.00    +0.209 HD
ENDBRANCH  21   3
ENDBRANCH  12  21
BRANCH  13  22
ATOM     22  C   UNL     1      -5.209   0.831  26.215  0.00  0.00    +0.102 C 
BRANCH  22  24
ATOM      4  O   UNL     1      -5.750   0.628  23.904  0.00  0.00    -0.276 OA
ATOM      8  N   UNL     1      -4.363  -0.984  24.808  0.00  0.00    -0.299 N 
ATOM     24  C   UNL     1      -5.142   0.158  24.866  0.00  0.00    +0.216 C 
ATOM     26  C   UNL     1      -3.614  -1.589  25.909  0.00  0.00    +0.139 C 
ATOM     27  C   UNL     1      -4.193  -1.742  23.577  0.00  0.00    +0.110 C 
ATOM     28  C   UNL     1      -2.754  -2.658  25.246  0.00  0.00    +0.133 C 
ATOM     29  C   UNL     1      -3.568  -3.058  24.021  0.00  0.00    +0.052 C 
BRANCH  28   6
ATOM      6  O   UNL     1      -1.517  -2.094  24.823  0.00  0.00    -0.390 OA
ATOM     45  H   UNL     1      -1.716  -1.440  24.132  0.00  0.00    +0.210 HD
ENDBRANCH  28   6
ENDBRANCH  22  24
ENDBRANCH  13  22
TORSDOF 11
ENDMDL
MODEL 4
REMARK VINA RESULT:      11.3      1.834      4.806
REMARK  Name = 23757048
REMARK  13 active torsions:
REMARK  status: ('A' for Active; 'I' for Inactive)
REMARK    1  A    between atoms: O_1  and  C_16
REMARK    2  A    between atoms: O_1  and  C_25
REMARK    3  A    between atoms: O_2  and  C_17
REMARK    4  A    between atoms: O_3  and  C_21
REMARK    5  A    between atoms: O_6  and  C_28
REMARK    6  A    between atoms: O_7  and  C_35
REMARK    7  A    between atoms: O_7  and  C_36
REMARK    8  A    between atoms: N_9  and  C_30
REMARK    9  A    between atoms: C_10  and  C_20
REMARK   10  A    between atoms: C_12  and  C_21
REMARK   11  A    between atoms: C_12  and  C_23
REMARK   12  A    between atoms: C_13  and  C_22
REMARK   13  A    between atoms: C_22  and  C_24
REMARK                            x       y       z     vdW  Elec       q    Type
REMARK                         _______ _______ _______ _____ _____    ______ ____
ROOT
ATOM     10  C   UNL     1      -3.871   1.787  24.422  0.00  0.00    -0.023 C 
ATOM     11  C   UNL     1      -4.544   0.367  24.406  0.00  0.00    +0.007 C 
ATOM     12  C   UNL     1      -3.552  -0.865  24.452  0.00  0.00    +0.031 C 
ATOM     13  C   UNL     1      -5.002   2.873  24.186  0.00  0.00    +0.032 C 
ATOM     14  C   UNL     1      -2.836   1.879  23.253  0.00  0.00    +0.011 C 
ATOM     15  C   UNL     1      -5.705   0.267  25.418  0.00  0.00    +0.007 C 
ATOM     16  C   UNL     1      -2.225  -0.560  23.684  0.00  0.00    +0.186 C 
ATOM     17  C   UNL     1      -6.216   2.739  25.135  0.00  0.00    +0.119 C 
ATOM     18  C   UNL     1      -2.409   0.539  22.645  0.00  0.00    +0.046 C 
ATOM     19  C   UNL     1      -6.777   1.321  25.144  0.00  0.00    +0.032 C 
ATOM     20  C   UNL     1      -3.129   2.068  25.752  0.00  0.00    +0.012 C 
ATOM     23  C   UNL     1      -4.242  -2.043  23.703  0.00  0.00    +0.017 C 
ENDROOT
BRANCH  17   2
ATOM      2  O   UNL     1      -5.901   3.104  26.474  0.00  0.00    -0.391 OA
ATOM     42  H   UNL     1      -4.937   3.223  26.530  0.00  0.00    +0.210 HD
ENDBRANCH  17   2
BRANCH  16   1
ATOM      1  O   UNL     1      -1.155  -0.171  24.541  0.00  0.00    -0.446 OA
BRANCH   1  25
ATOM      5  O   UNL     1       0.177  -2.025  24.663  0.00  0.00    -0.226 OA
ATOM      9  N   UNL     1       0.970   0.025  23.858  0.00  0.00    -0.251 N 
ATOM     25  C   UNL     1       0.029  -0.843  24.378  0.00  0.00    +0.405 C 
ATOM     44  H   UNL     1       0.655   0.976  23.686  0.00  0.00    +0.158 HD
BRANCH   9  30
ATOM     30  C   UNL     1       2.319  -0.246  23.535  0.00  0.00    +0.037 A 
ATOM     31  C   UNL     1       3.025   0.655  22.753  0.00  0.00    +0.027 A 
ATOM     32  C   UNL     1       2.910  -1.409  24.004  0.00  0.00    +0.027 A 
ATOM     33  C   UNL     1       4.356   0.387  22.433  0.00  0.00    +0.048 A 
ATOM     34  C   UNL     1       4.240  -1.676  23.685  0.00  0.00    +0.048 A 
ATOM     35  C   UNL     1       4.964  -0.778  22.898  0.00  0.00    +0.129 A 
BRANCH  35   7
ATOM      7  O   UNL     1       6.262  -1.039  22.588  0.00  0.00    -0.456 OA
BRANCH   7  36
ATOM     36  C   UNL     1       7.228  -0.178  23.083  0.00  0.00    +0.128 A 
ATOM     37  C   UNL     1       6.836   0.910  23.840  0.00  0.00    +0.046 A 
ATOM     38  C   UNL     1       8.560  -0.429  22.804  0.00  0.00    +0.046 A 
ATOM     39  C   UNL     1       7.808   1.778  24.337  0.00  0.00    +0.004 A 
ATOM     40  C   UNL     1       9.533   0.439  23.302  0.00  0.00    +0.004 A 
ATOM     41  C   UNL     1       9.157   1.542  24.068  0.00  0.00    +0.000 A 
ENDBRANCH   7  36
ENDBRANCH  35   7
ENDBRANCH   9  30
ENDBRANCH   1  25
ENDBRANCH  16   1
BRANCH  12  21
ATOM     21  C   UNL     1      -3.275  -1.375  25.883  0.00  0.00    +0.166 C 
BRANCH  21   3
ATOM      3  O   UNL     1      -3.196  -2.782  25.834  0.00  0.00    -0.394 OA
ATOM     43  H   UNL     1      -2.285  -3.012  25.583  0.00  0.00    +0.209 HD
ENDBRANCH  21   3
ENDBRANCH  12  21
BRANCH  13  22
ATOM     22  C   UNL     1      -4.491   4.324  24.175  0.00  0.00    +0.102 C 
BRANCH  22  24
ATOM      4  O   UNL     1      -3.857   4.692  26.442  0.00  0.00    -0.276 OA
ATOM      8  N   UNL     1      -2.156   4.477  24.892  0.00  0.00    -0.299 N 
ATOM     24  C   UNL     1      -3.484   4.517  25.281  0.00  0.00    +0.216 C 
ATOM     26  C   UNL     1      -1.649   4.270  23.537  0.00  0.00    +0.139 C 
ATOM     27  C   UNL     1      -1.066   4.640  25.843  0.00  0.00    +0.110 C 
ATOM     28  C   UNL     1      -0.148   4.070  23.716  0.00  0.00    +0.133 C 
ATOM     29  C   UNL     1       0.166   4.865  24.978  0.00  0.00    +0.052 C 
BRANCH  28   6
ATOM      6  O   UNL     1       0.137   2.695  23.945  0.00  0.00    -0.390 OA
ATOM     45  H   UNL     1       0.767   2.647  24.684  0.00  0.00    +0.210 HD
ENDBRANCH  28   6
ENDBRANCH  22  24
ENDBRANCH  13  22
TORSDOF 11
ENDMDL
