MODEL 1
REMARK VINA RESULT:      -6.2      0.000      0.000
REMARK  Name = 75367755
REMARK  4 active torsions:
REMARK  status: ('A' for Active; 'I' for Inactive)
REMARK    1  A    between atoms: O_2  and  C_6
REMARK    2  A    between atoms: N_3  and  C_8
REMARK    3  A    between atoms: C_8  and  C_11
REMARK    4  A    between atoms: C_14  and  C_17
REMARK                            x       y       z     vdW  Elec       q    Type
REMARK                         _______ _______ _______ _____ _____    ______ ____
ROOT
ATOM      1  O   UNL     1      -1.279  -2.892  25.089  0.00  0.00    -0.376 OA
ATOM      3  N   UNL     1      -3.251  -0.549  24.499  0.00  0.00    -0.293 NA
ATOM      5  C   UNL     1      -1.995   0.108  24.118  0.00  0.00    +0.118 C 
ATOM      6  C   UNL     1      -0.702  -0.719  24.191  0.00  0.00    +0.154 C 
ATOM      7  C   UNL     1      -3.341  -1.955  24.102  0.00  0.00    +0.113 C 
ATOM      9  C   UNL     1      -0.626  -1.662  25.385  0.00  0.00    +0.192 C 
ATOM     10  C   UNL     1      -2.696  -2.840  25.168  0.00  0.00    +0.175 C 
ENDROOT
BRANCH   6   2
ATOM      2  O   UNL     1       0.400   0.186  24.274  0.00  0.00    -0.388 OA
ATOM     18  H   UNL     1       0.086   1.057  23.976  0.00  0.00    +0.210 HD
ENDBRANCH   6   2
BRANCH   3   8
ATOM      8  C   UNL     1      -4.392   0.222  24.005  0.00  0.00    +0.119 C 
BRANCH   8  11
ATOM     11  C   UNL     1      -4.435   1.603  24.602  0.00  0.00    -0.032 A 
ATOM     12  C   UNL     1      -3.292   2.403  24.598  0.00  0.00    +0.023 A 
ATOM     13  C   UNL     1      -5.621   2.084  25.159  0.00  0.00    +0.005 A 
ATOM     14  C   UNL     1      -3.334   3.683  25.151  0.00  0.00    +0.052 A 
ATOM     15  C   UNL     1      -5.663   3.365  25.710  0.00  0.00    +0.002 A 
ATOM     16  C   UNL     1      -4.520   4.164  25.706  0.00  0.00    +0.019 A 
BRANCH  14  17
ATOM      4  N   UNL     1      -1.212   5.166  25.144  0.00  0.00    -0.191 NA
ATOM     17  C   UNL     1      -2.163   4.502  25.147  0.00  0.00    +0.099 C 
ENDBRANCH  14  17
ENDBRANCH   8  11
ENDBRANCH   3   8
TORSDOF 4
ENDMDL
MODEL 2
REMARK VINA RESULT:      -6.1      2.812      5.785
REMARK  Name = 75367755
REMARK  4 active torsions:
REMARK  status: ('A' for Active; 'I' for Inactive)
REMARK    1  A    between atoms: O_2  and  C_6
REMARK    2  A    between atoms: N_3  and  C_8
REMARK    3  A    between atoms: C_8  and  C_11
REMARK    4  A    between atoms: C_14  and  C_17
REMARK                            x       y       z     vdW  Elec       q    Type
REMARK                         _______ _______ _______ _____ _____    ______ ____
ROOT
ATOM      1  O   UNL     1      -2.642   4.531  26.125  0.00  0.00    -0.376 OA
ATOM      3  N   UNL     1      -3.438   2.081  24.367  0.00  0.00    -0.293 NA
ATOM      5  C   UNL     1      -4.773   2.652  24.581  0.00  0.00    +0.118 C 
ATOM      6  C   UNL     1      -4.874   3.960  25.380  0.00  0.00    +0.154 C 
ATOM      7  C   UNL     1      -2.387   3.074  24.146  0.00  0.00    +0.113 C 
ATOM      9  C   UNL     1      -3.912   4.054  26.557  0.00  0.00    +0.192 C 
ATOM     10  C   UNL     1      -1.832   3.555  25.486  0.00  0.00    +0.175 C 
ENDROOT
BRANCH   6   2
ATOM      2  O   UNL     1      -6.204   4.068  25.890  0.00  0.00    -0.388 OA
ATOM     18  H   UNL     1      -6.528   4.959  25.676  0.00  0.00    +0.210 HD
ENDBRANCH   6   2
BRANCH   3   8
ATOM      8  C   UNL     1      -3.480   1.094  23.287  0.00  0.00    +0.119 C 
BRANCH   8  11
ATOM     11  C   UNL     1      -3.231  -0.301  23.794  0.00  0.00    -0.032 A 
ATOM     12  C   UNL     1      -1.973  -0.653  24.283  0.00  0.00    +0.023 A 
ATOM     13  C   UNL     1      -4.261  -1.243  23.774  0.00  0.00    +0.005 A 
ATOM     14  C   UNL     1      -1.745  -1.946  24.753  0.00  0.00    +0.052 A 
ATOM     15  C   UNL     1      -4.032  -2.536  24.245  0.00  0.00    +0.002 A 
ATOM     16  C   UNL     1      -2.774  -2.887  24.734  0.00  0.00    +0.019 A 
BRANCH  14  17
ATOM      4  N   UNL     1       0.589  -2.600  25.665  0.00  0.00    -0.191 NA
ATOM     17  C   UNL     1      -0.456  -2.307  25.256  0.00  0.00    +0.099 C 
ENDBRANCH  14  17
ENDBRANCH   8  11
ENDBRANCH   3   8
TORSDOF 4
ENDMDL
MODEL 3
REMARK VINA RESULT:      -6.0      1.888      3.174
REMARK  Name = 75367755
REMARK  4 active torsions:
REMARK  status: ('A' for Active; 'I' for Inactive)
REMARK    1  A    between atoms: O_2  and  C_6
REMARK    2  A    between atoms: N_3  and  C_8
REMARK    3  A    between atoms: C_8  and  C_11
REMARK    4  A    between atoms: C_14  and  C_17
REMARK                            x       y       z     vdW  Elec       q    Type
REMARK                         _______ _______ _______ _____ _____    ______ ____
ROOT
ATOM      1  O   UNL     1      -1.549  -2.293  25.544  0.00  0.00    -0.376 OA
ATOM      3  N   UNL     1      -1.485   0.200  23.671  0.00  0.00    -0.293 NA
ATOM      5  C   UNL     1      -2.918  -0.108  23.592  0.00  0.00    +0.118 C 
ATOM      6  C   UNL     1      -3.448  -1.276  24.437  0.00  0.00    +0.154 C 
ATOM      7  C   UNL     1      -0.904   0.031  25.003  0.00  0.00    +0.113 C 
ATOM      9  C   UNL     1      -2.511  -2.475  24.510  0.00  0.00    +0.192 C 
ATOM     10  C   UNL     1      -0.478  -1.423  25.205  0.00  0.00    +0.175 C 
ENDROOT
BRANCH   6   2
ATOM      2  O   UNL     1      -4.680  -1.716  23.865  0.00  0.00    -0.388 OA
ATOM     18  H   UNL     1      -4.678  -1.452  22.929  0.00  0.00    +0.210 HD
ENDBRANCH   6   2
BRANCH   3   8
ATOM      8  C   UNL     1      -1.229   1.539  23.140  0.00  0.00    +0.119 C 
BRANCH   8  11
ATOM     11  C   UNL     1      -1.737   2.614  24.062  0.00  0.00    -0.032 A 
ATOM     12  C   UNL     1      -3.096   2.687  24.371  0.00  0.00    +0.023 A 
ATOM     13  C   UNL     1      -0.847   3.539  24.610  0.00  0.00    +0.005 A 
ATOM     14  C   UNL     1      -3.565   3.682  25.227  0.00  0.00    +0.052 A 
ATOM     15  C   UNL     1      -1.317   4.535  25.468  0.00  0.00    +0.002 A 
ATOM     16  C   UNL     1      -2.675   4.606  25.775  0.00  0.00    +0.019 A 
BRANCH  14  17
ATOM      4  N   UNL     1      -6.086   3.817  25.802  0.00  0.00    -0.191 NA
ATOM     17  C   UNL     1      -4.956   3.756  25.544  0.00  0.00    +0.099 C 
ENDBRANCH  14  17
ENDBRANCH   8  11
ENDBRANCH   3   8
TORSDOF 4
ENDMDL
MODEL 4
REMARK VINA RESULT:      -5.9      2.186      5.265
REMARK  Name = 75367755
REMARK  4 active torsions:
REMARK  status: ('A' for Active; 'I' for Inactive)
REMARK    1  A    between atoms: O_2  and  C_6
REMARK    2  A    between atoms: N_3  and  C_8
REMARK    3  A    between atoms: C_8  and  C_11
REMARK    4  A    between atoms: C_14  and  C_17
REMARK                            x       y       z     vdW  Elec       q    Type
REMARK                         _______ _______ _______ _____ _____    ______ ____
ROOT
ATOM      1  O   UNL     1      -1.260   5.054  25.123  0.00  0.00    -0.376 OA
ATOM      3  N   UNL     1      -3.001   2.469  25.013  0.00  0.00    -0.293 NA
ATOM      5  C   UNL     1      -1.764   1.888  25.548  0.00  0.00    +0.118 C 
ATOM      6  C   UNL     1      -0.592   2.839  25.835  0.00  0.00    +0.154 C 
ATOM      7  C   UNL     1      -3.335   3.785  25.559  0.00  0.00    +0.113 C 
ATOM      9  C   UNL     1      -0.417   3.950  24.809  0.00  0.00    +0.192 C 
ATOM     10  C   UNL     1      -2.623   4.877  24.761  0.00  0.00    +0.175 C 
ENDROOT
BRANCH   6   2
ATOM      2  O   UNL     1       0.610   2.068  25.857  0.00  0.00    -0.388 OA
ATOM     18  H   UNL     1       0.414   1.232  26.314  0.00  0.00    +0.210 HD
ENDBRANCH   6   2
BRANCH   3   8
ATOM      8  C   UNL     1      -4.109   1.526  25.171  0.00  0.00    +0.119 C 
BRANCH   8  11
ATOM     11  C   UNL     1      -3.695   0.116  24.842  0.00  0.00    -0.032 A 
ATOM     12  C   UNL     1      -2.422  -0.338  25.186  0.00  0.00    +0.023 A 
ATOM     13  C   UNL     1      -4.589  -0.737  24.193  0.00  0.00    +0.005 A 
ATOM     14  C   UNL     1      -2.042  -1.644  24.882  0.00  0.00    +0.052 A 
ATOM     15  C   UNL     1      -4.208  -2.045  23.890  0.00  0.00    +0.002 A 
ATOM     16  C   UNL     1      -2.934  -2.498  24.234  0.00  0.00    +0.019 A 
BRANCH  14  17
ATOM      4  N   UNL     1       0.322  -2.487  25.522  0.00  0.00    -0.191 NA
ATOM     17  C   UNL     1      -0.737  -2.110  25.234  0.00  0.00    +0.099 C 
ENDBRANCH  14  17
ENDBRANCH   8  11
ENDBRANCH   3   8
TORSDOF 4
ENDMDL
MODEL 5
REMARK VINA RESULT:      -5.8      2.772      5.598
REMARK  Name = 75367755
REMARK  4 active torsions:
REMARK  status: ('A' for Active; 'I' for Inactive)
REMARK    1  A    between atoms: O_2  and  C_6
REMARK    2  A    between atoms: N_3  and  C_8
REMARK    3  A    between atoms: C_8  and  C_11
REMARK    4  A    between atoms: C_14  and  C_17
REMARK                            x       y       z     vdW  Elec       q    Type
REMARK                         _______ _______ _______ _____ _____    ______ ____
ROOT
ATOM      1  O   UNL     1      -2.910   4.309  24.915  0.00  0.00    -0.376 OA
ATOM      3  N   UNL     1      -4.287   1.511  24.966  0.00  0.00    -0.293 NA
ATOM      5  C   UNL     1      -5.459   2.348  25.246  0.00  0.00    +0.118 C 
ATOM      6  C   UNL     1      -5.266   3.872  25.261  0.00  0.00    +0.154 C 
ATOM      7  C   UNL     1      -3.370   2.071  23.973  0.00  0.00    +0.113 C 
ATOM      9  C   UNL     1      -3.954   4.333  25.883  0.00  0.00    +0.192 C 
ATOM     10  C   UNL     1      -2.379   3.017  24.652  0.00  0.00    +0.175 C 
ENDROOT
BRANCH   6   2
ATOM      2  O   UNL     1      -6.335   4.448  26.013  0.00  0.00    -0.388 OA
ATOM     18  H   UNL     1      -5.976   4.710  26.878  0.00  0.00    +0.210 HD
ENDBRANCH   6   2
BRANCH   3   8
ATOM      8  C   UNL     1      -4.709   0.158  24.603  0.00  0.00    +0.119 C 
BRANCH   8  11
ATOM     11  C   UNL     1      -3.544  -0.791  24.523  0.00  0.00    -0.032 A 
ATOM     12  C   UNL     1      -2.274  -0.313  24.200  0.00  0.00    +0.023 A 
ATOM     13  C   UNL     1      -3.734  -2.150  24.775  0.00  0.00    +0.005 A 
ATOM     14  C   UNL     1      -1.195  -1.194  24.128  0.00  0.00    +0.052 A 
ATOM     15  C   UNL     1      -2.654  -3.030  24.705  0.00  0.00    +0.002 A 
ATOM     16  C   UNL     1      -1.385  -2.552  24.381  0.00  0.00    +0.019 A 
BRANCH  14  17
ATOM      4  N   UNL     1       1.163  -0.306  23.528  0.00  0.00    -0.191 NA
ATOM     17  C   UNL     1       0.107  -0.705  23.797  0.00  0.00    +0.099 C 
ENDBRANCH  14  17
ENDBRANCH   8  11
ENDBRANCH   3   8
TORSDOF 4
ENDMDL
MODEL 6
REMARK VINA RESULT:      -5.4      1.088      2.130
REMARK  Name = 75367755
REMARK  4 active torsions:
REMARK  status: ('A' for Active; 'I' for Inactive)
REMARK    1  A    between atoms: O_2  and  C_6
REMARK    2  A    between atoms: N_3  and  C_8
REMARK    3  A    between atoms: C_8  and  C_11
REMARK    4  A    between atoms: C_14  and  C_17
REMARK                            x       y       z     vdW  Elec       q    Type
REMARK                         _______ _______ _______ _____ _____    ______ ____
ROOT
ATOM      1  O   UNL     1      -0.684  -1.628  25.214  0.00  0.00    -0.376 OA
ATOM      3  N   UNL     1      -2.996  -0.038  23.852  0.00  0.00    -0.293 NA
ATOM      5  C   UNL     1      -3.729  -1.265  24.187  0.00  0.00    +0.118 C 
ATOM      6  C   UNL     1      -2.977  -2.363  24.954  0.00  0.00    +0.154 C 
ATOM      7  C   UNL     1      -2.054   0.401  24.882  0.00  0.00    +0.113 C 
ATOM      9  C   UNL     1      -1.527  -2.548  24.526  0.00  0.00    +0.192 C 
ATOM     10  C   UNL     1      -0.711  -0.305  24.697  0.00  0.00    +0.175 C 
ENDROOT
BRANCH   6   2
ATOM      2  O   UNL     1      -3.659  -3.600  24.742  0.00  0.00    -0.388 OA
ATOM     18  H   UNL     1      -3.556  -3.833  23.803  0.00  0.00    +0.210 HD
ENDBRANCH   6   2
BRANCH   3   8
ATOM      8  C   UNL     1      -3.934   1.026  23.494  0.00  0.00    +0.119 C 
BRANCH   8  11
ATOM     11  C   UNL     1      -3.778   2.232  24.381  0.00  0.00    -0.032 A 
ATOM     12  C   UNL     1      -2.654   3.049  24.261  0.00  0.00    +0.023 A 
ATOM     13  C   UNL     1      -4.761   2.534  25.324  0.00  0.00    +0.005 A 
ATOM     14  C   UNL     1      -2.512   4.167  25.082  0.00  0.00    +0.052 A 
ATOM     15  C   UNL     1      -4.619   3.653  26.145  0.00  0.00    +0.002 A 
ATOM     16  C   UNL     1      -3.495   4.469  26.025  0.00  0.00    +0.019 A 
BRANCH  14  17
ATOM      4  N   UNL     1      -0.424   5.682  24.858  0.00  0.00    -0.191 NA
ATOM     17  C   UNL     1      -1.360   5.003  24.959  0.00  0.00    +0.099 C 
ENDBRANCH  14  17
ENDBRANCH   8  11
ENDBRANCH   3   8
TORSDOF 4
ENDMDL
MODEL 7
REMARK VINA RESULT:      -4.9      1.947      3.458
REMARK  Name = 75367755
REMARK  4 active torsions:
REMARK  status: ('A' for Active; 'I' for Inactive)
REMARK    1  A    between atoms: O_2  and  C_6
REMARK    2  A    between atoms: N_3  and  C_8
REMARK    3  A    between atoms: C_8  and  C_11
REMARK    4  A    between atoms: C_14  and  C_17
REMARK                            x       y       z     vdW  Elec       q    Type
REMARK                         _______ _______ _______ _____ _____    ______ ____
ROOT
ATOM      1  O   UNL     1       0.780  -1.199  23.926  0.00  0.00    -0.376 OA
ATOM      3  N   UNL     1      -0.732   1.529  23.939  0.00  0.00    -0.293 NA
ATOM      5  C   UNL     1      -1.407   0.888  25.073  0.00  0.00    +0.118 C 
ATOM      6  C   UNL     1      -0.932  -0.511  25.494  0.00  0.00    +0.154 C 
ATOM      7  C   UNL     1       0.706   1.271  23.869  0.00  0.00    +0.113 C 
ATOM      9  C   UNL     1      -0.566  -1.426  24.333  0.00  0.00    +0.192 C 
ATOM     10  C   UNL     1       0.966  -0.040  23.126  0.00  0.00    +0.175 C 
ENDROOT
BRANCH   6   2
ATOM      2  O   UNL     1      -1.984  -1.135  26.231  0.00  0.00    -0.388 OA
ATOM     18  H   UNL     1      -2.548  -0.429  26.591  0.00  0.00    +0.210 HD
ENDBRANCH   6   2
BRANCH   3   8
ATOM      8  C   UNL     1      -1.021   2.963  23.926  0.00  0.00    +0.119 C 
BRANCH   8  11
ATOM     11  C   UNL     1      -2.267   3.290  24.704  0.00  0.00    -0.032 A 
ATOM     12  C   UNL     1      -3.453   2.602  24.448  0.00  0.00    +0.023 A 
ATOM     13  C   UNL     1      -2.235   4.284  25.684  0.00  0.00    +0.005 A 
ATOM     14  C   UNL     1      -4.606   2.906  25.172  0.00  0.00    +0.052 A 
ATOM     15  C   UNL     1      -3.389   4.586  26.408  0.00  0.00    +0.002 A 
ATOM     16  C   UNL     1      -4.574   3.898  26.151  0.00  0.00    +0.019 A 
BRANCH  14  17
ATOM      4  N   UNL     1      -6.807   1.626  24.696  0.00  0.00    -0.191 NA
ATOM     17  C   UNL     1      -5.821   2.200  24.910  0.00  0.00    +0.099 C 
ENDBRANCH  14  17
ENDBRANCH   8  11
ENDBRANCH   3   8
TORSDOF 4
ENDMDL
MODEL 8
REMARK VINA RESULT:      -4.7      2.897      5.257
REMARK  Name = 75367755
REMARK  4 active torsions:
REMARK  status: ('A' for Active; 'I' for Inactive)
REMARK    1  A    between atoms: O_2  and  C_6
REMARK    2  A    between atoms: N_3  and  C_8
REMARK    3  A    between atoms: C_8  and  C_11
REMARK    4  A    between atoms: C_14  and  C_17
REMARK                            x       y       z     vdW  Elec       q    Type
REMARK                         _______ _______ _______ _____ _____    ______ ____
ROOT
ATOM      1  O   UNL     1      -5.715   2.998  26.446  0.00  0.00    -0.376 OA
ATOM      3  N   UNL     1      -4.051   1.917  24.041  0.00  0.00    -0.293 NA
ATOM      5  C   UNL     1      -3.038   2.791  24.644  0.00  0.00    +0.118 C 
ATOM      6  C   UNL     1      -3.405   3.522  25.945  0.00  0.00    +0.154 C 
ATOM      7  C   UNL     1      -4.863   1.178  25.008  0.00  0.00    +0.113 C 
ATOM      9  C   UNL     1      -4.840   4.028  25.998  0.00  0.00    +0.192 C 
ATOM     10  C   UNL     1      -6.047   2.035  25.456  0.00  0.00    +0.175 C 
ENDROOT
BRANCH   6   2
ATOM      2  O   UNL     1      -2.536   4.647  26.082  0.00  0.00    -0.388 OA
ATOM     18  H   UNL     1      -2.398   4.796  27.033  0.00  0.00    +0.210 HD
ENDBRANCH   6   2
BRANCH   3   8
ATOM      8  C   UNL     1      -3.426   1.019  23.069  0.00  0.00    +0.119 C 
BRANCH   8  11
ATOM     11  C   UNL     1      -2.236   0.304  23.651  0.00  0.00    -0.032 A 
ATOM     12  C   UNL     1      -0.973   0.469  23.082  0.00  0.00    +0.023 A 
ATOM     13  C   UNL     1      -2.397  -0.523  24.764  0.00  0.00    +0.005 A 
ATOM     14  C   UNL     1       0.128  -0.193  23.624  0.00  0.00    +0.052 A 
ATOM     15  C   UNL     1      -1.295  -1.184  25.306  0.00  0.00    +0.002 A 
ATOM     16  C   UNL     1      -0.033  -1.019  24.736  0.00  0.00    +0.019 A 
BRANCH  14  17
ATOM      4  N   UNL     1       2.473   0.114  22.569  0.00  0.00    -0.191 NA
ATOM     17  C   UNL     1       1.422  -0.024  23.041  0.00  0.00    +0.099 C 
ENDBRANCH  14  17
ENDBRANCH   8  11
ENDBRANCH   3   8
TORSDOF 4
ENDMDL
MODEL 9
REMARK VINA RESULT:      -4.7      1.829      2.622
REMARK  Name = 75367755
REMARK  4 active torsions:
REMARK  status: ('A' for Active; 'I' for Inactive)
REMARK    1  A    between atoms: O_2  and  C_6
REMARK    2  A    between atoms: N_3  and  C_8
REMARK    3  A    between atoms: C_8  and  C_11
REMARK    4  A    between atoms: C_14  and  C_17
REMARK                            x       y       z     vdW  Elec       q    Type
REMARK                         _______ _______ _______ _____ _____    ______ ____
ROOT
ATOM      1  O   UNL     1      -3.279  -2.929  23.949  0.00  0.00    -0.376 OA
ATOM      3  N   UNL     1      -3.770  -0.045  25.028  0.00  0.00    -0.293 NA
ATOM      5  C   UNL     1      -2.350  -0.178  25.370  0.00  0.00    +0.118 C 
ATOM      6  C   UNL     1      -1.631  -1.472  24.959  0.00  0.00    +0.154 C 
ATOM      7  C   UNL     1      -4.135  -0.621  23.733  0.00  0.00    +0.113 C 
ATOM      9  C   UNL     1      -2.473  -2.732  25.106  0.00  0.00    +0.192 C 
ATOM     10  C   UNL     1      -4.439  -2.110  23.892  0.00  0.00    +0.175 C 
ENDROOT
BRANCH   6   2
ATOM      2  O   UNL     1      -0.474  -1.619  25.783  0.00  0.00    -0.388 OA
ATOM     18  H   UNL     1      -0.631  -1.116  26.601  0.00  0.00    +0.210 HD
ENDBRANCH   6   2
BRANCH   3   8
ATOM      8  C   UNL     1      -4.182   1.356  25.126  0.00  0.00    +0.119 C 
BRANCH   8  11
ATOM     11  C   UNL     1      -3.004   2.292  25.070  0.00  0.00    -0.032 A 
ATOM     12  C   UNL     1      -1.767   1.832  24.621  0.00  0.00    +0.023 A 
ATOM     13  C   UNL     1      -3.152   3.621  25.468  0.00  0.00    +0.005 A 
ATOM     14  C   UNL     1      -0.677   2.701  24.568  0.00  0.00    +0.052 A 
ATOM     15  C   UNL     1      -2.062   4.490  25.414  0.00  0.00    +0.002 A 
ATOM     16  C   UNL     1      -0.825   4.030  24.965  0.00  0.00    +0.019 A 
BRANCH  14  17
ATOM      4  N   UNL     1       1.620   1.847  23.732  0.00  0.00    -0.191 NA
ATOM     17  C   UNL     1       0.591   2.230  24.107  0.00  0.00    +0.099 C 
ENDBRANCH  14  17
ENDBRANCH   8  11
ENDBRANCH   3   8
TORSDOF 4
ENDMDL
MODEL 10
REMARK VINA RESULT:      -4.7      2.019      3.238
REMARK  Name = 75367755
REMARK  4 active torsions:
REMARK  status: ('A' for Active; 'I' for Inactive)
REMARK    1  A    between atoms: O_2  and  C_6
REMARK    2  A    between atoms: N_3  and  C_8
REMARK    3  A    between atoms: C_8  and  C_11
REMARK    4  A    between atoms: C_14  and  C_17
REMARK                            x       y       z     vdW  Elec       q    Type
REMARK                         _______ _______ _______ _____ _____    ______ ____
ROOT
ATOM      1  O   UNL     1      -0.748  -1.612  24.306  0.00  0.00    -0.376 OA
ATOM      3  N   UNL     1      -0.215   1.218  25.502  0.00  0.00    -0.293 NA
ATOM      5  C   UNL     1       0.446   1.392  24.203  0.00  0.00    +0.118 C 
ATOM      6  C   UNL     1       0.386   0.224  23.207  0.00  0.00    +0.154 C 
ATOM      7  C   UNL     1      -1.464   0.460  25.446  0.00  0.00    +0.113 C 
ATOM      9  C   UNL     1       0.519  -1.153  23.844  0.00  0.00    +0.192 C 
ATOM     10  C   UNL     1      -1.170  -1.038  25.535  0.00  0.00    +0.175 C 
ENDROOT
BRANCH   6   2
ATOM      2  O   UNL     1       1.456   0.381  22.274  0.00  0.00    -0.388 OA
ATOM     18  H   UNL     1       2.270   0.533  22.784  0.00  0.00    +0.210 HD
ENDBRANCH   6   2
BRANCH   3   8
ATOM      8  C   UNL     1      -0.404   2.518  26.147  0.00  0.00    +0.119 C 
BRANCH   8  11
ATOM     11  C   UNL     1      -1.626   3.228  25.627  0.00  0.00    -0.032 A 
ATOM     12  C   UNL     1      -2.845   2.556  25.546  0.00  0.00    +0.023 A 
ATOM     13  C   UNL     1      -1.537   4.563  25.227  0.00  0.00    +0.005 A 
ATOM     14  C   UNL     1      -3.975   3.216  25.066  0.00  0.00    +0.052 A 
ATOM     15  C   UNL     1      -2.669   5.223  24.748  0.00  0.00    +0.002 A 
ATOM     16  C   UNL     1      -3.887   4.549  24.666  0.00  0.00    +0.019 A 
BRANCH  14  17
ATOM      4  N   UNL     1      -6.238   1.966  24.916  0.00  0.00    -0.191 NA
ATOM     17  C   UNL     1      -5.225   2.527  24.983  0.00  0.00    +0.099 C 
ENDBRANCH  14  17
ENDBRANCH   8  11
ENDBRANCH   3   8
TORSDOF 4
ENDMDL
