MODEL 1
REMARK VINA RESULT:      -3.3      0.000      0.000
REMARK  Name = 45783482
REMARK  9 active torsions:
REMARK  status: ('A' for Active; 'I' for Inactive)
REMARK    1  A    between atoms: O_2  and  C_27
REMARK    2  A    between atoms: O_2  and  C_28
REMARK    3  A    between atoms: N_3  and  C_9
REMARK    4  A    between atoms: N_4  and  C_19
REMARK    5  A    between atoms: N_8  and  C_25
REMARK    6  A    between atoms: N_8  and  C_26
REMARK    7  A    between atoms: C_10  and  C_18
REMARK    8  A    between atoms: C_20  and  C_21
REMARK    9  A    between atoms: C_26  and  C_27
REMARK                            x       y       z     vdW  Elec       q    Type
REMARK                         _______ _______ _______ _____ _____    ______ ____
ROOT
ATOM      1  O   UNL     1      -8.197 -10.751  11.778  0.00  0.00    -0.336 OA
ATOM      5  N   UNL     1      -6.699  -9.888  13.202  0.00  0.00    -0.190 NA
ATOM      6  N   UNL     1      -6.975 -10.734  11.094  0.00  0.00    -0.056 NA
ATOM     18  C   UNL     1      -7.946 -10.236  13.010  0.00  0.00    +0.245 A 
ATOM     20  C   UNL     1      -6.141 -10.213  11.999  0.00  0.00    +0.204 A 
ENDROOT
BRANCH  20  21
ATOM      7  N   UNL     1      -3.034  -9.146  10.259  0.00  0.00    -0.240 NA
ATOM     21  C   UNL     1      -4.748 -10.001  11.734  0.00  0.00    +0.041 A 
ATOM     22  C   UNL     1      -3.776 -10.416  12.636  0.00  0.00    +0.016 A 
ATOM     23  C   UNL     1      -4.329  -9.376  10.570  0.00  0.00    +0.124 A 
ATOM     24  C   UNL     1      -2.432 -10.197  12.351  0.00  0.00    +0.044 A 
ATOM     25  C   UNL     1      -2.117  -9.564  11.160  0.00  0.00    +0.119 A 
BRANCH  25   8
ATOM      8  N   UNL     1      -0.744  -9.348  10.884  0.00  0.00    -0.327 N 
ATOM     29  H   UNL     1      -0.329  -9.935  10.170  0.00  0.00    +0.148 HD
BRANCH   8  26
ATOM     26  C   UNL     1       0.034  -8.364  11.565  0.00  0.00    +0.131 C 
BRANCH  26  27
ATOM     27  C   UNL     1       1.397  -8.232  10.907  0.00  0.00    +0.178 C 
BRANCH  27   2
ATOM      2  O   UNL     1       2.299  -7.605  11.808  0.00  0.00    -0.381 OA
ATOM     28  C   UNL     1       1.885  -6.284  12.128  0.00  0.00    +0.194 C 
ENDBRANCH  27   2
ENDBRANCH  26  27
ENDBRANCH   8  26
ENDBRANCH  25   8
ENDBRANCH  20  21
BRANCH  18  10
ATOM      3  N   UNL     1      -8.835  -9.323  15.148  0.00  0.00    -0.288 NA
ATOM     10  C   UNL     1      -9.125 -10.146  13.956  0.00  0.00    +0.146 C 
ATOM     11  C   UNL     1     -10.109  -8.741  15.568  0.00  0.00    +0.085 C 
ATOM     14  C   UNL     1     -10.356  -9.480  13.312  0.00  0.00    +0.030 C 
ATOM     15  C   UNL     1     -10.719  -8.331  14.242  0.00  0.00    +0.017 C 
BRANCH   3   9
ATOM      4  N   UNL     1      -7.033 -10.138  18.910  0.00  0.00    -0.305 NA
ATOM      9  C   UNL     1      -8.193 -10.075  16.224  0.00  0.00    +0.060 C 
ATOM     12  C   UNL     1      -6.798  -9.518  16.526  0.00  0.00    +0.034 C 
ATOM     13  C   UNL     1      -9.056 -10.033  17.488  0.00  0.00    +0.034 C 
ATOM     16  C   UNL     1      -6.170 -10.233  17.724  0.00  0.00    +0.085 C 
ATOM     17  C   UNL     1      -8.353 -10.730  18.655  0.00  0.00    +0.085 C 
ATOM     19  C   UNL     1      -6.397 -10.781  20.059  0.00  0.00    +0.104 C 
ENDBRANCH   3   9
ENDBRANCH  18  10
TORSDOF 7
ENDMDL
MODEL 2
REMARK VINA RESULT:      -2.9     22.026     26.579
REMARK  Name = 45783482
REMARK  9 active torsions:
REMARK  status: ('A' for Active; 'I' for Inactive)
REMARK    1  A    between atoms: O_2  and  C_27
REMARK    2  A    between atoms: O_2  and  C_28
REMARK    3  A    between atoms: N_3  and  C_9
REMARK    4  A    between atoms: N_4  and  C_19
REMARK    5  A    between atoms: N_8  and  C_25
REMARK    6  A    between atoms: N_8  and  C_26
REMARK    7  A    between atoms: C_10  and  C_18
REMARK    8  A    between atoms: C_20  and  C_21
REMARK    9  A    between atoms: C_26  and  C_27
REMARK                            x       y       z     vdW  Elec       q    Type
REMARK                         _______ _______ _______ _____ _____    ______ ____
ROOT
ATOM      1  O   UNL     1      13.663  -5.753  30.083  0.00  0.00    -0.336 OA
ATOM      5  N   UNL     1      13.819  -7.266  31.728  0.00  0.00    -0.190 NA
ATOM      6  N   UNL     1      12.407  -6.366  30.168  0.00  0.00    -0.056 NA
ATOM     18  C   UNL     1      14.434  -6.341  31.035  0.00  0.00    +0.245 A 
ATOM     20  C   UNL     1      12.577  -7.245  31.160  0.00  0.00    +0.204 A 
ENDROOT
BRANCH  20  21
ATOM      7  N   UNL     1      10.529 -10.318  31.588  0.00  0.00    -0.240 NA
ATOM     21  C   UNL     1      11.531  -8.118  31.607  0.00  0.00    +0.041 A 
ATOM     22  C   UNL     1      10.531  -7.662  32.457  0.00  0.00    +0.016 A 
ATOM     23  C   UNL     1      11.486  -9.443  31.205  0.00  0.00    +0.124 A 
ATOM     24  C   UNL     1       9.529  -8.531  32.873  0.00  0.00    +0.044 A 
ATOM     25  C   UNL     1       9.573  -9.838  32.414  0.00  0.00    +0.119 A 
BRANCH  25   8
ATOM      8  N   UNL     1       8.545 -10.713  32.847  0.00  0.00    -0.327 N 
ATOM     29  H   UNL     1       8.813 -11.430  33.512  0.00  0.00    +0.148 HD
BRANCH   8  26
ATOM     26  C   UNL     1       7.200 -10.610  32.384  0.00  0.00    +0.131 C 
BRANCH  26  27
ATOM     27  C   UNL     1       7.155 -10.781  30.875  0.00  0.00    +0.178 C 
BRANCH  27   2
ATOM      2  O   UNL     1       7.043  -9.506  30.257  0.00  0.00    -0.381 OA
ATOM     28  C   UNL     1       6.255  -8.616  31.036  0.00  0.00    +0.194 C 
ENDBRANCH  27   2
ENDBRANCH  26  27
ENDBRANCH   8  26
ENDBRANCH  25   8
ENDBRANCH  20  21
BRANCH  18  10
ATOM      3  N   UNL     1      16.403  -5.380  29.857  0.00  0.00    -0.288 NA
ATOM     10  C   UNL     1      15.860  -5.846  31.148  0.00  0.00    +0.146 C 
ATOM     11  C   UNL     1      17.387  -4.344  30.172  0.00  0.00    +0.085 C 
ATOM     14  C   UNL     1      15.997  -4.634  32.090  0.00  0.00    +0.030 C 
ATOM     15  C   UNL     1      16.679  -3.558  31.258  0.00  0.00    +0.017 C 
BRANCH   3   9
ATOM      4  N   UNL     1      16.633  -8.966  27.586  0.00  0.00    -0.305 NA
ATOM      9  C   UNL     1      16.977  -6.455  29.051  0.00  0.00    +0.060 C 
ATOM     12  C   UNL     1      16.841  -7.805  29.763  0.00  0.00    +0.034 C 
ATOM     13  C   UNL     1      16.293  -6.515  27.683  0.00  0.00    +0.034 C 
ATOM     16  C   UNL     1      17.341  -8.946  28.874  0.00  0.00    +0.085 C 
ATOM     17  C   UNL     1      16.811  -7.699  26.863  0.00  0.00    +0.085 C 
ATOM     19  C   UNL     1      17.085 -10.091  26.770  0.00  0.00    +0.104 C 
ENDBRANCH   3   9
ENDBRANCH  18  10
TORSDOF 7
ENDMDL
MODEL 3
REMARK VINA RESULT:       0.1     13.512     15.687
REMARK  Name = 45783482
REMARK  9 active torsions:
REMARK  status: ('A' for Active; 'I' for Inactive)
REMARK    1  A    between atoms: O_2  and  C_27
REMARK    2  A    between atoms: O_2  and  C_28
REMARK    3  A    between atoms: N_3  and  C_9
REMARK    4  A    between atoms: N_4  and  C_19
REMARK    5  A    between atoms: N_8  and  C_25
REMARK    6  A    between atoms: N_8  and  C_26
REMARK    7  A    between atoms: C_10  and  C_18
REMARK    8  A    between atoms: C_20  and  C_21
REMARK    9  A    between atoms: C_26  and  C_27
REMARK                            x       y       z     vdW  Elec       q    Type
REMARK                         _______ _______ _______ _____ _____    ______ ____
ROOT
ATOM      1  O   UNL     1      -1.862   3.182  25.022  0.00  0.00    -0.336 OA
ATOM      5  N   UNL     1      -1.624   1.450  23.621  0.00  0.00    -0.190 NA
ATOM      6  N   UNL     1      -0.486   3.043  24.806  0.00  0.00    -0.056 NA
ATOM     18  C   UNL     1      -2.459   2.206  24.288  0.00  0.00    +0.245 A 
ATOM     20  C   UNL     1      -0.425   2.002  23.969  0.00  0.00    +0.204 A 
ENDROOT
BRANCH  20  21
ATOM      7  N   UNL     1       3.179   1.810  23.078  0.00  0.00    -0.240 NA
ATOM     21  C   UNL     1       0.815   1.487  23.465  0.00  0.00    +0.041 A 
ATOM     22  C   UNL     1       0.886   0.222  22.893  0.00  0.00    +0.016 A 
ATOM     23  C   UNL     1       1.979   2.235  23.533  0.00  0.00    +0.124 A 
ATOM     24  C   UNL     1       2.103  -0.250  22.413  0.00  0.00    +0.044 A 
ATOM     25  C   UNL     1       3.210   0.576  22.528  0.00  0.00    +0.119 A 
BRANCH  25   8
ATOM      8  N   UNL     1       4.442   0.080  22.034  0.00  0.00    -0.327 N 
ATOM     29  H   UNL     1       4.412  -0.390  21.137  0.00  0.00    +0.148 HD
BRANCH   8  26
ATOM     26  C   UNL     1       5.670   0.221  22.746  0.00  0.00    +0.131 C 
BRANCH  26  27
ATOM     27  C   UNL     1       5.414   0.165  24.242  0.00  0.00    +0.178 C 
BRANCH  27   2
ATOM      2  O   UNL     1       5.571  -1.172  24.700  0.00  0.00    -0.381 OA
ATOM     28  C   UNL     1       4.688  -2.060  24.031  0.00  0.00    +0.194 C 
ENDBRANCH  27   2
ENDBRANCH  26  27
ENDBRANCH   8  26
ENDBRANCH  25   8
ENDBRANCH  20  21
BRANCH  18  10
ATOM      3  N   UNL     1      -4.458   1.417  25.542  0.00  0.00    -0.288 NA
ATOM     10  C   UNL     1      -3.970   2.143  24.352  0.00  0.00    +0.146 C 
ATOM     11  C   UNL     1      -5.760   1.996  25.874  0.00  0.00    +0.085 C 
ATOM     14  C   UNL     1      -4.620   3.537  24.451  0.00  0.00    +0.030 C 
ATOM     15  C   UNL     1      -5.500   3.478  25.693  0.00  0.00    +0.017 C 
BRANCH   3   9
ATOM      4  N   UNL     1      -3.355  -2.496  24.300  0.00  0.00    -0.305 NA
ATOM      9  C   UNL     1      -4.536  -0.028  25.342  0.00  0.00    +0.060 C 
ATOM     12  C   UNL     1      -4.550  -0.376  23.849  0.00  0.00    +0.034 C 
ATOM     13  C   UNL     1      -3.356  -0.722  26.028  0.00  0.00    +0.034 C 
ATOM     16  C   UNL     1      -4.519  -1.891  23.639  0.00  0.00    +0.085 C 
ATOM     17  C   UNL     1      -3.365  -2.227  25.745  0.00  0.00    +0.085 C 
ATOM     19  C   UNL     1      -3.312  -3.935  24.048  0.00  0.00    +0.104 C 
ENDBRANCH   3   9
ENDBRANCH  18  10
TORSDOF 7
ENDMDL
