MODEL 1
REMARK VINA RESULT:       7.0      0.000      0.000
REMARK  Name = 51136816
REMARK  7 active torsions:
REMARK  status: ('A' for Active; 'I' for Inactive)
REMARK    1  A    between atoms: N_3  and  C_13
REMARK    2  A    between atoms: C_9  and  C_14
REMARK    3  A    between atoms: C_13  and  C_15
REMARK    4  A    between atoms: C_15  and  C_16
REMARK    5  A    between atoms: C_16  and  C_22
REMARK    6  A    between atoms: C_21  and  C_24
REMARK    7  A    between atoms: C_26  and  C_31
REMARK                            x       y       z     vdW  Elec       q    Type
REMARK                         _______ _______ _______ _____ _____    ______ ____
ROOT
ATOM      1  O   UNL     1      -5.987   1.017  24.926  0.00  0.00    -0.336 OA
ATOM      4  N   UNL     1      -3.854   1.103  25.602  0.00  0.00    -0.190 NA
ATOM      7  N   UNL     1      -5.377  -0.145  24.438  0.00  0.00    -0.056 NA
ATOM     14  C   UNL     1      -5.021   1.695  25.599  0.00  0.00    +0.245 A 
ATOM     21  C   UNL     1      -4.121  -0.022  24.877  0.00  0.00    +0.202 A 
ENDROOT
BRANCH  21  24
ATOM      2  O   UNL     1       4.574   1.035  21.880  0.00  0.00    -0.276 OA
ATOM      5  N   UNL     1       0.417  -1.177  23.726  0.00  0.00    -0.312 N 
ATOM      6  N   UNL     1       3.094  -0.256  23.122  0.00  0.00    -0.299 N 
ATOM      8  N   UNL     1      -1.138  -2.917  24.088  0.00  0.00    -0.240 NA
ATOM     17  C   UNL     1       0.643   0.078  23.003  0.00  0.00    +0.125 C 
ATOM     18  C   UNL     1       1.581  -1.997  24.069  0.00  0.00    +0.125 C 
ATOM     19  C   UNL     1       1.965   0.032  22.241  0.00  0.00    +0.126 C 
ATOM     20  C   UNL     1       2.819  -1.124  24.270  0.00  0.00    +0.126 C 
ATOM     23  C   UNL     1      -0.874  -1.592  24.043  0.00  0.00    +0.122 A 
ATOM     24  C   UNL     1      -3.108  -1.005  24.609  0.00  0.00    +0.027 A 
ATOM     25  C   UNL     1      -1.815  -0.606  24.293  0.00  0.00    +0.055 A 
ATOM     26  C   UNL     1       4.341   0.304  22.846  0.00  0.00    +0.213 C 
ATOM     29  C   UNL     1      -3.419  -2.359  24.665  0.00  0.00    +0.031 A 
ATOM     30  C   UNL     1      -2.406  -3.267  24.398  0.00  0.00    +0.113 A 
ATOM     31  C   UNL     1       5.453  -0.035  23.810  0.00  0.00    +0.109 C 
ENDBRANCH  21  24
BRANCH  14   9
ATOM      3  N   UNL     1      -4.398   4.050  26.105  0.00  0.00    -0.291 NA
ATOM      9  C   UNL     1      -5.434   3.006  26.233  0.00  0.00    +0.146 C 
ATOM     10  C   UNL     1      -6.686   3.616  25.575  0.00  0.00    +0.030 C 
ATOM     11  C   UNL     1      -5.103   5.331  26.074  0.00  0.00    +0.085 C 
ATOM     12  C   UNL     1      -6.274   5.022  25.164  0.00  0.00    +0.017 C 
BRANCH   3  13
ATOM     13  C   UNL     1      -3.398   4.000  27.165  0.00  0.00    +0.085 C 
BRANCH  13  15
ATOM     15  C   UNL     1      -2.000   3.849  26.568  0.00  0.00    +0.020 C 
BRANCH  15  16
ATOM     16  C   UNL     1      -1.884   4.599  25.239  0.00  0.00    +0.036 C 
BRANCH  16  22
ATOM     22  C   UNL     1      -2.210   3.710  24.065  0.00  0.00    -0.047 A 
ATOM     27  C   UNL     1      -3.414   3.875  23.378  0.00  0.00    +0.003 A 
ATOM     28  C   UNL     1      -1.308   2.724  23.666  0.00  0.00    +0.003 A 
ATOM     32  C   UNL     1      -3.714   3.053  22.293  0.00  0.00    +0.000 A 
ATOM     33  C   UNL     1      -1.610   1.901  22.581  0.00  0.00    +0.000 A 
ATOM     34  C   UNL     1      -2.812   2.066  21.894  0.00  0.00    +0.000 A 
ENDBRANCH  16  22
ENDBRANCH  15  16
ENDBRANCH  13  15
ENDBRANCH   3  13
ENDBRANCH  14   9
TORSDOF 6
ENDMDL
MODEL 2
REMARK VINA RESULT:       7.6      1.258      1.651
REMARK  Name = 51136816
REMARK  7 active torsions:
REMARK  status: ('A' for Active; 'I' for Inactive)
REMARK    1  A    between atoms: N_3  and  C_13
REMARK    2  A    between atoms: C_9  and  C_14
REMARK    3  A    between atoms: C_13  and  C_15
REMARK    4  A    between atoms: C_15  and  C_16
REMARK    5  A    between atoms: C_16  and  C_22
REMARK    6  A    between atoms: C_21  and  C_24
REMARK    7  A    between atoms: C_26  and  C_31
REMARK                            x       y       z     vdW  Elec       q    Type
REMARK                         _______ _______ _______ _____ _____    ______ ____
ROOT
ATOM      1  O   UNL     1      -5.977   1.023  25.015  0.00  0.00    -0.336 OA
ATOM      4  N   UNL     1      -3.793   1.192  25.481  0.00  0.00    -0.190 NA
ATOM      7  N   UNL     1      -5.393  -0.172  24.579  0.00  0.00    -0.056 NA
ATOM     14  C   UNL     1      -4.967   1.770  25.532  0.00  0.00    +0.245 A 
ATOM     21  C   UNL     1      -4.104   0.003  24.888  0.00  0.00    +0.202 A 
ENDROOT
BRANCH  21  24
ATOM      2  O   UNL     1       4.542   0.958  21.721  0.00  0.00    -0.276 OA
ATOM      5  N   UNL     1       0.405  -1.198  23.674  0.00  0.00    -0.312 N 
ATOM      6  N   UNL     1       3.076  -0.304  23.009  0.00  0.00    -0.299 N 
ATOM      8  N   UNL     1      -1.154  -2.923  24.091  0.00  0.00    -0.240 NA
ATOM     17  C   UNL     1       0.625   0.044  22.928  0.00  0.00    +0.125 C 
ATOM     18  C   UNL     1       1.570  -2.021  24.009  0.00  0.00    +0.125 C 
ATOM     19  C   UNL     1       1.933  -0.023  22.144  0.00  0.00    +0.126 C 
ATOM     20  C   UNL     1       2.816  -1.153  24.174  0.00  0.00    +0.126 C 
ATOM     23  C   UNL     1      -0.883  -1.600  24.021  0.00  0.00    +0.122 A 
ATOM     24  C   UNL     1      -3.103  -0.991  24.617  0.00  0.00    +0.027 A 
ATOM     25  C   UNL     1      -1.813  -0.604  24.272  0.00  0.00    +0.055 A 
ATOM     26  C   UNL     1       4.322   0.243  22.702  0.00  0.00    +0.213 C 
ATOM     29  C   UNL     1      -3.421  -2.342  24.700  0.00  0.00    +0.031 A 
ATOM     30  C   UNL     1      -2.418  -3.260  24.429  0.00  0.00    +0.113 A 
ATOM     31  C   UNL     1       5.448  -0.088  23.651  0.00  0.00    +0.109 C 
ENDBRANCH  21  24
BRANCH  14   9
ATOM      3  N   UNL     1      -4.524   4.218  25.514  0.00  0.00    -0.291 NA
ATOM      9  C   UNL     1      -5.344   3.129  26.081  0.00  0.00    +0.146 C 
ATOM     10  C   UNL     1      -6.796   3.521  25.751  0.00  0.00    +0.030 C 
ATOM     11  C   UNL     1      -5.363   5.416  25.524  0.00  0.00    +0.085 C 
ATOM     12  C   UNL     1      -6.696   4.870  25.053  0.00  0.00    +0.017 C 
BRANCH   3  13
ATOM     13  C   UNL     1      -3.268   4.422  26.225  0.00  0.00    +0.085 C 
BRANCH  13  15
ATOM     15  C   UNL     1      -2.653   5.767  25.842  0.00  0.00    +0.020 C 
BRANCH  15  16
ATOM     16  C   UNL     1      -1.465   5.580  24.895  0.00  0.00    +0.036 C 
BRANCH  16  22
ATOM     22  C   UNL     1      -0.808   4.236  25.082  0.00  0.00    -0.047 A 
ATOM     27  C   UNL     1      -0.121   3.643  24.022  0.00  0.00    +0.003 A 
ATOM     28  C   UNL     1      -0.886   3.587  26.313  0.00  0.00    +0.003 A 
ATOM     32  C   UNL     1       0.487   2.400  24.195  0.00  0.00    +0.000 A 
ATOM     33  C   UNL     1      -0.278   2.343  26.486  0.00  0.00    +0.000 A 
ATOM     34  C   UNL     1       0.409   1.750  25.427  0.00  0.00    +0.000 A 
ENDBRANCH  16  22
ENDBRANCH  15  16
ENDBRANCH  13  15
ENDBRANCH   3  13
ENDBRANCH  14   9
TORSDOF 6
ENDMDL
MODEL 3
REMARK VINA RESULT:      10.0      1.746      2.922
REMARK  Name = 51136816
REMARK  7 active torsions:
REMARK  status: ('A' for Active; 'I' for Inactive)
REMARK    1  A    between atoms: N_3  and  C_13
REMARK    2  A    between atoms: C_9  and  C_14
REMARK    3  A    between atoms: C_13  and  C_15
REMARK    4  A    between atoms: C_15  and  C_16
REMARK    5  A    between atoms: C_16  and  C_22
REMARK    6  A    between atoms: C_21  and  C_24
REMARK    7  A    between atoms: C_26  and  C_31
REMARK                            x       y       z     vdW  Elec       q    Type
REMARK                         _______ _______ _______ _____ _____    ______ ____
ROOT
ATOM      1  O   UNL     1      -5.709   1.086  25.287  0.00  0.00    -0.336 OA
ATOM      4  N   UNL     1      -3.483   1.288  25.435  0.00  0.00    -0.190 NA
ATOM      7  N   UNL     1      -5.177  -0.122  24.819  0.00  0.00    -0.056 NA
ATOM     14  C   UNL     1      -4.645   1.859  25.628  0.00  0.00    +0.245 A 
ATOM     21  C   UNL     1      -3.860   0.074  24.937  0.00  0.00    +0.202 A 
ENDROOT
BRANCH  21  24
ATOM      2  O   UNL     1       4.871   1.029  22.011  0.00  0.00    -0.276 OA
ATOM      5  N   UNL     1       0.619  -1.165  23.650  0.00  0.00    -0.312 N 
ATOM      6  N   UNL     1       3.334  -0.311  23.126  0.00  0.00    -0.299 N 
ATOM      8  N   UNL     1      -1.014  -2.860  23.846  0.00  0.00    -0.240 NA
ATOM     17  C   UNL     1       0.901   0.145  23.055  0.00  0.00    +0.125 C 
ATOM     18  C   UNL     1       1.744  -2.068  23.903  0.00  0.00    +0.125 C 
ATOM     19  C   UNL     1       2.219   0.114  22.285  0.00  0.00    +0.126 C 
ATOM     20  C   UNL     1       3.021  -1.276  24.183  0.00  0.00    +0.126 C 
ATOM     23  C   UNL     1      -0.690  -1.550  23.932  0.00  0.00    +0.122 A 
ATOM     24  C   UNL     1      -2.894  -0.922  24.566  0.00  0.00    +0.027 A 
ATOM     25  C   UNL     1      -1.584  -0.552  24.284  0.00  0.00    +0.055 A 
ATOM     26  C   UNL     1       4.606   0.216  22.900  0.00  0.00    +0.213 C 
ATOM     29  C   UNL     1      -3.266  -2.260  24.489  0.00  0.00    +0.031 A 
ATOM     30  C   UNL     1      -2.296  -3.181  24.127  0.00  0.00    +0.113 A 
ATOM     31  C   UNL     1       5.701  -0.268  23.819  0.00  0.00    +0.109 C 
ENDBRANCH  21  24
BRANCH  14   9
ATOM      3  N   UNL     1      -3.934   4.236  25.813  0.00  0.00    -0.291 NA
ATOM      9  C   UNL     1      -4.959   3.236  26.172  0.00  0.00    +0.146 C 
ATOM     10  C   UNL     1      -6.275   3.810  25.616  0.00  0.00    +0.030 C 
ATOM     11  C   UNL     1      -4.621   5.526  25.740  0.00  0.00    +0.085 C 
ATOM     12  C   UNL     1      -5.901   5.158  25.017  0.00  0.00    +0.017 C 
BRANCH   3  13
ATOM     13  C   UNL     1      -2.810   4.265  26.742  0.00  0.00    +0.085 C 
BRANCH  13  15
ATOM     15  C   UNL     1      -1.500   4.016  25.996  0.00  0.00    +0.020 C 
BRANCH  15  16
ATOM     16  C   UNL     1      -0.940   2.628  26.315  0.00  0.00    +0.036 C 
BRANCH  16  22
ATOM     22  C   UNL     1       0.124   2.687  27.382  0.00  0.00    -0.047 A 
ATOM     27  C   UNL     1      -0.215   2.471  28.718  0.00  0.00    +0.003 A 
ATOM     28  C   UNL     1       1.447   2.955  27.032  0.00  0.00    +0.003 A 
ATOM     32  C   UNL     1       0.770   2.524  29.704  0.00  0.00    +0.000 A 
ATOM     33  C   UNL     1       2.432   3.010  28.019  0.00  0.00    +0.000 A 
ATOM     34  C   UNL     1       2.093   2.794  29.355  0.00  0.00    +0.000 A 
ENDBRANCH  16  22
ENDBRANCH  15  16
ENDBRANCH  13  15
ENDBRANCH   3  13
ENDBRANCH  14   9
TORSDOF 6
ENDMDL
MODEL 4
REMARK VINA RESULT:      10.0      2.103      4.135
REMARK  Name = 51136816
REMARK  7 active torsions:
REMARK  status: ('A' for Active; 'I' for Inactive)
REMARK    1  A    between atoms: N_3  and  C_13
REMARK    2  A    between atoms: C_9  and  C_14
REMARK    3  A    between atoms: C_13  and  C_15
REMARK    4  A    between atoms: C_15  and  C_16
REMARK    5  A    between atoms: C_16  and  C_22
REMARK    6  A    between atoms: C_21  and  C_24
REMARK    7  A    between atoms: C_26  and  C_31
REMARK                            x       y       z     vdW  Elec       q    Type
REMARK                         _______ _______ _______ _____ _____    ______ ____
ROOT
ATOM      1  O   UNL     1      -0.914   4.289  24.160  0.00  0.00    -0.336 OA
ATOM      4  N   UNL     1      -1.821   2.248  24.323  0.00  0.00    -0.190 NA
ATOM      7  N   UNL     1       0.121   3.382  23.902  0.00  0.00    -0.056 NA
ATOM     14  C   UNL     1      -2.022   3.539  24.399  0.00  0.00    +0.245 A 
ATOM     21  C   UNL     1      -0.492   2.200  24.016  0.00  0.00    +0.202 A 
ENDROOT
BRANCH  21  24
ATOM      2  O   UNL     1       8.479   0.501  22.489  0.00  0.00    -0.276 OA
ATOM      5  N   UNL     1       3.589  -0.314  23.491  0.00  0.00    -0.312 N 
ATOM      6  N   UNL     1       6.482  -0.281  23.381  0.00  0.00    -0.299 N 
ATOM      8  N   UNL     1       1.533  -1.474  23.470  0.00  0.00    -0.240 NA
ATOM     17  C   UNL     1       4.314   0.821  22.912  0.00  0.00    +0.125 C 
ATOM     18  C   UNL     1       4.364  -1.472  23.943  0.00  0.00    +0.125 C 
ATOM     19  C   UNL     1       5.666   0.375  22.362  0.00  0.00    +0.126 C 
ATOM     20  C   UNL     1       5.758  -1.045  24.401  0.00  0.00    +0.126 C 
ATOM     23  C   UNL     1       2.199  -0.303  23.571  0.00  0.00    +0.122 A 
ATOM     24  C   UNL     1       0.195   0.952  23.830  0.00  0.00    +0.027 A 
ATOM     25  C   UNL     1       1.583   0.926  23.750  0.00  0.00    +0.055 A 
ATOM     26  C   UNL     1       7.869  -0.143  23.346  0.00  0.00    +0.213 C 
ATOM     29  C   UNL     1      -0.525  -0.233  23.731  0.00  0.00    +0.031 A 
ATOM     30  C   UNL     1       0.185  -1.409  23.553  0.00  0.00    +0.113 A 
ATOM     31  C   UNL     1       8.637  -0.844  24.440  0.00  0.00    +0.109 C 
ENDBRANCH  21  24
BRANCH  14   9
ATOM      3  N   UNL     1      -4.361   3.423  25.239  0.00  0.00    -0.291 NA
ATOM      9  C   UNL     1      -3.295   4.296  24.707  0.00  0.00    +0.146 C 
ATOM     10  C   UNL     1      -3.099   5.374  25.789  0.00  0.00    +0.030 C 
ATOM     11  C   UNL     1      -5.184   4.259  26.113  0.00  0.00    +0.085 C 
ATOM     12  C   UNL     1      -4.136   5.060  26.858  0.00  0.00    +0.017 C 
BRANCH   3  13
ATOM     13  C   UNL     1      -5.148   2.777  24.196  0.00  0.00    +0.085 C 
BRANCH  13  15
ATOM     15  C   UNL     1      -5.528   1.359  24.620  0.00  0.00    +0.020 C 
BRANCH  15  16
ATOM     16  C   UNL     1      -4.486   0.771  25.575  0.00  0.00    +0.036 C 
BRANCH  16  22
ATOM     22  C   UNL     1      -4.074  -0.620  25.164  0.00  0.00    -0.047 A 
ATOM     27  C   UNL     1      -3.301  -1.400  26.025  0.00  0.00    +0.003 A 
ATOM     28  C   UNL     1      -4.466  -1.126  23.926  0.00  0.00    +0.003 A 
ATOM     32  C   UNL     1      -2.920  -2.687  25.645  0.00  0.00    +0.000 A 
ATOM     33  C   UNL     1      -4.084  -2.413  23.546  0.00  0.00    +0.000 A 
ATOM     34  C   UNL     1      -3.312  -3.194  24.405  0.00  0.00    +0.000 A 
ENDBRANCH  16  22
ENDBRANCH  15  16
ENDBRANCH  13  15
ENDBRANCH   3  13
ENDBRANCH  14   9
TORSDOF 6
ENDMDL
MODEL 5
REMARK VINA RESULT:      10.1      1.856      7.492
REMARK  Name = 51136816
REMARK  7 active torsions:
REMARK  status: ('A' for Active; 'I' for Inactive)
REMARK    1  A    between atoms: N_3  and  C_13
REMARK    2  A    between atoms: C_9  and  C_14
REMARK    3  A    between atoms: C_13  and  C_15
REMARK    4  A    between atoms: C_15  and  C_16
REMARK    5  A    between atoms: C_16  and  C_22
REMARK    6  A    between atoms: C_21  and  C_24
REMARK    7  A    between atoms: C_26  and  C_31
REMARK                            x       y       z     vdW  Elec       q    Type
REMARK                         _______ _______ _______ _____ _____    ______ ____
ROOT
ATOM      1  O   UNL     1       1.953  -2.218  24.981  0.00  0.00    -0.336 OA
ATOM      4  N   UNL     1       0.687  -1.061  23.540  0.00  0.00    -0.190 NA
ATOM      7  N   UNL     1       0.626  -2.419  25.380  0.00  0.00    -0.056 NA
ATOM     14  C   UNL     1       1.900  -1.407  23.892  0.00  0.00    +0.245 A 
ATOM     21  C   UNL     1      -0.061  -1.705  24.482  0.00  0.00    +0.202 A 
ENDROOT
BRANCH  21  24
ATOM      2  O   UNL     1      -5.564   5.412  26.664  0.00  0.00    -0.276 OA
ATOM      5  N   UNL     1      -4.104   0.875  24.971  0.00  0.00    -0.312 N 
ATOM      6  N   UNL     1      -5.308   3.470  25.414  0.00  0.00    -0.299 N 
ATOM      8  N   UNL     1      -4.282  -1.439  24.531  0.00  0.00    -0.240 NA
ATOM     17  C   UNL     1      -3.466   1.870  25.838  0.00  0.00    +0.125 C 
ATOM     18  C   UNL     1      -5.412   1.197  24.393  0.00  0.00    +0.125 C 
ATOM     19  C   UNL     1      -4.508   2.808  26.441  0.00  0.00    +0.126 C 
ATOM     20  C   UNL     1      -5.557   2.705  24.190  0.00  0.00    +0.126 C 
ATOM     23  C   UNL     1      -3.498  -0.357  24.736  0.00  0.00    +0.122 A 
ATOM     24  C   UNL     1      -1.494  -1.615  24.499  0.00  0.00    +0.027 A 
ATOM     25  C   UNL     1      -2.113  -0.392  24.731  0.00  0.00    +0.055 A 
ATOM     26  C   UNL     1      -5.773   4.766  25.634  0.00  0.00    +0.213 C 
ATOM     29  C   UNL     1      -2.267  -2.750  24.283  0.00  0.00    +0.031 A 
ATOM     30  C   UNL     1      -3.645  -2.610  24.309  0.00  0.00    +0.113 A 
ATOM     31  C   UNL     1      -6.584   5.382  24.519  0.00  0.00    +0.109 C 
ENDBRANCH  21  24
BRANCH  14   9
ATOM      3  N   UNL     1       3.581   0.381  23.478  0.00  0.00    -0.291 NA
ATOM      9  C   UNL     1       3.225  -1.036  23.262  0.00  0.00    +0.146 C 
ATOM     10  C   UNL     1       4.406  -1.829  23.851  0.00  0.00    +0.030 C 
ATOM     11  C   UNL     1       5.042   0.443  23.492  0.00  0.00    +0.085 C 
ATOM     12  C   UNL     1       5.400  -0.775  24.318  0.00  0.00    +0.017 C 
BRANCH   3  13
ATOM     13  C   UNL     1       3.003   1.276  22.484  0.00  0.00    +0.085 C 
BRANCH  13  15
ATOM     15  C   UNL     1       2.111   2.315  23.161  0.00  0.00    +0.020 C 
BRANCH  15  16
ATOM     16  C   UNL     1       0.951   1.647  23.903  0.00  0.00    +0.036 C 
BRANCH  16  22
ATOM     22  C   UNL     1       0.061   2.660  24.577  0.00  0.00    -0.047 A 
ATOM     27  C   UNL     1      -0.175   2.577  25.950  0.00  0.00    +0.003 A 
ATOM     28  C   UNL     1      -0.525   3.679  23.828  0.00  0.00    +0.003 A 
ATOM     32  C   UNL     1      -0.998   3.515  26.572  0.00  0.00    +0.000 A 
ATOM     33  C   UNL     1      -1.349   4.617  24.451  0.00  0.00    +0.000 A 
ATOM     34  C   UNL     1      -1.585   4.535  25.823  0.00  0.00    +0.000 A 
ENDBRANCH  16  22
ENDBRANCH  15  16
ENDBRANCH  13  15
ENDBRANCH   3  13
ENDBRANCH  14   9
TORSDOF 6
ENDMDL
