MODEL 1
REMARK VINA RESULT:       6.0      0.000      0.000
REMARK  Name = 45361391
REMARK  16 active torsions:
REMARK  status: ('A' for Active; 'I' for Inactive)
REMARK    1  A    between atoms: O_1  and  C_12
REMARK    2  A    between atoms: O_4  and  C_32
REMARK    3  A    between atoms: O_4  and  C_38
REMARK    4  A    between atoms: O_5  and  C_35
REMARK    5  A    between atoms: O_5  and  C_39
REMARK    6  A    between atoms: O_6  and  C_37
REMARK    7  A    between atoms: O_6  and  C_40
REMARK    8  A    between atoms: N_7  and  C_16
REMARK    9  A    between atoms: N_8  and  C_26
REMARK   10  A    between atoms: C_9  and  C_19
REMARK   11  A    between atoms: C_11  and  C_21
REMARK   12  A    between atoms: C_15  and  C_20
REMARK   13  A    between atoms: C_20  and  C_22
REMARK   14  A    between atoms: C_20  and  C_23
REMARK   15  A    between atoms: C_24  and  C_25
REMARK   16  A    between atoms: C_26  and  C_29
REMARK                            x       y       z     vdW  Elec       q    Type
REMARK                         _______ _______ _______ _____ _____    ______ ____
ROOT
ATOM      9  C   UNL     1      -3.191  -1.361  24.865  0.00  0.00    -0.027 C 
ATOM     10  C   UNL     1      -2.868  -0.031  24.109  0.00  0.00    +0.028 C 
ATOM     11  C   UNL     1      -1.332   0.293  24.175  0.00  0.00    +0.012 C 
ATOM     12  C   UNL     1      -3.813   1.120  24.562  0.00  0.00    +0.122 C 
ATOM     13  C   UNL     1      -4.687  -1.708  24.684  0.00  0.00    +0.007 C 
ATOM     14  C   UNL     1      -2.363  -2.509  24.242  0.00  0.00    +0.009 C 
ATOM     15  C   UNL     1      -5.308   0.729  24.477  0.00  0.00    +0.029 C 
ATOM     16  C   UNL     1      -0.506  -0.899  23.614  0.00  0.00    +0.076 C 
ATOM     17  C   UNL     1      -5.616  -0.601  25.165  0.00  0.00    +0.007 C 
ATOM     18  C   UNL     1      -0.865  -2.240  24.253  0.00  0.00    +0.023 C 
ATOM     19  C   UNL     1      -2.879  -1.273  26.381  0.00  0.00    +0.011 C 
ATOM     21  C   UNL     1      -0.940   1.577  23.424  0.00  0.00    +0.010 C 
ENDROOT
BRANCH  16   7
ATOM      3  O   UNL     1       1.383  -0.376  21.516  0.00  0.00    -0.270 OA
ATOM      7  N   UNL     1       0.918  -0.684  23.767  0.00  0.00    -0.308 N 
ATOM     24  C   UNL     1       1.749  -0.438  22.687  0.00  0.00    +0.244 C 
ATOM     41  H   UNL     1       1.278  -0.672  24.715  0.00  0.00    +0.149 HD
BRANCH  24  25
ATOM     25  C   UNL     1       3.189  -0.264  23.008  0.00  0.00    +0.037 A 
ATOM     27  C   UNL     1       3.895  -1.297  23.625  0.00  0.00    +0.016 A 
ATOM     28  C   UNL     1       3.834   0.932  22.695  0.00  0.00    +0.016 A 
ATOM     30  C   UNL     1       5.246  -1.132  23.928  0.00  0.00    +0.046 A 
ATOM     31  C   UNL     1       5.185   1.096  22.998  0.00  0.00    +0.046 A 
ATOM     32  C   UNL     1       5.892   0.064  23.615  0.00  0.00    +0.120 A 
BRANCH  32   4
ATOM      4  O   UNL     1       7.210   0.224  23.911  0.00  0.00    -0.495 OA
ATOM     38  C   UNL     1       8.152  -0.372  23.021  0.00  0.00    +0.277 C 
ENDBRANCH  32   4
ENDBRANCH  24  25
ENDBRANCH  16   7
BRANCH  12   1
ATOM      1  O   UNL     1      -3.637   2.249  23.705  0.00  0.00    -0.391 OA
ATOM     42  H   UNL     1      -3.899   1.989  22.806  0.00  0.00    +0.210 HD
ENDBRANCH  12   1
BRANCH  15  20
ATOM     20  C   UNL     1      -6.214   1.824  25.051  0.00  0.00    +0.077 C 
ATOM     22  C   UNL     1      -7.372   2.102  24.099  0.00  0.00    +0.017 C 
BRANCH  20  23
ATOM      2  O   UNL     1      -5.281   3.988  24.492  0.00  0.00    -0.276 OA
ATOM      8  N   UNL     1      -4.819   3.087  26.578  0.00  0.00    -0.311 N 
ATOM     23  C   UNL     1      -5.398   3.086  25.319  0.00  0.00    +0.216 C 
ATOM     43  H   UNL     1      -5.006   2.327  27.224  0.00  0.00    +0.149 HD
BRANCH   8  26
ATOM     26  C   UNL     1      -3.998   4.175  27.060  0.00  0.00    +0.139 C 
BRANCH  26  29
ATOM     29  C   UNL     1      -2.751   4.342  26.240  0.00  0.00    -0.027 A 
ATOM     33  C   UNL     1      -1.677   3.470  26.418  0.00  0.00    +0.054 A 
ATOM     34  C   UNL     1      -2.667   5.370  25.300  0.00  0.00    +0.009 A 
ATOM     35  C   UNL     1      -0.519   3.626  25.656  0.00  0.00    +0.162 A 
ATOM     36  C   UNL     1      -1.509   5.525  24.539  0.00  0.00    +0.050 A 
ATOM     37  C   UNL     1      -0.435   4.653  24.717  0.00  0.00    +0.162 A 
BRANCH  35   5
ATOM      5  O   UNL     1       0.524   2.767  25.839  0.00  0.00    -0.491 OA
ATOM     39  C   UNL     1       0.809   2.370  27.179  0.00  0.00    +0.277 C 
ENDBRANCH  35   5
BRANCH  37   6
ATOM      6  O   UNL     1       0.691   4.816  23.968  0.00  0.00    -0.491 OA
ATOM     40  C   UNL     1       0.515   5.215  22.610  0.00  0.00    +0.277 C 
ENDBRANCH  37   6
ENDBRANCH  26  29
ENDBRANCH   8  26
ENDBRANCH  20  23
ENDBRANCH  15  20
TORSDOF 10
ENDMDL
MODEL 2
REMARK VINA RESULT:       7.7      0.750      1.870
REMARK  Name = 45361391
REMARK  16 active torsions:
REMARK  status: ('A' for Active; 'I' for Inactive)
REMARK    1  A    between atoms: O_1  and  C_12
REMARK    2  A    between atoms: O_4  and  C_32
REMARK    3  A    between atoms: O_4  and  C_38
REMARK    4  A    between atoms: O_5  and  C_35
REMARK    5  A    between atoms: O_5  and  C_39
REMARK    6  A    between atoms: O_6  and  C_37
REMARK    7  A    between atoms: O_6  and  C_40
REMARK    8  A    between atoms: N_7  and  C_16
REMARK    9  A    between atoms: N_8  and  C_26
REMARK   10  A    between atoms: C_9  and  C_19
REMARK   11  A    between atoms: C_11  and  C_21
REMARK   12  A    between atoms: C_15  and  C_20
REMARK   13  A    between atoms: C_20  and  C_22
REMARK   14  A    between atoms: C_20  and  C_23
REMARK   15  A    between atoms: C_24  and  C_25
REMARK   16  A    between atoms: C_26  and  C_29
REMARK                            x       y       z     vdW  Elec       q    Type
REMARK                         _______ _______ _______ _____ _____    ______ ____
ROOT
ATOM      9  C   UNL     1      -3.392  -1.486  24.688  0.00  0.00    -0.027 C 
ATOM     10  C   UNL     1      -3.114  -0.128  23.965  0.00  0.00    +0.028 C 
ATOM     11  C   UNL     1      -1.595   0.258  24.062  0.00  0.00    +0.012 C 
ATOM     12  C   UNL     1      -4.113   0.972  24.428  0.00  0.00    +0.122 C 
ATOM     13  C   UNL     1      -4.870  -1.891  24.477  0.00  0.00    +0.007 C 
ATOM     14  C   UNL     1      -2.507  -2.585  24.054  0.00  0.00    +0.009 C 
ATOM     15  C   UNL     1      -5.589   0.521  24.311  0.00  0.00    +0.029 C 
ATOM     16  C   UNL     1      -0.711  -0.886  23.489  0.00  0.00    +0.076 C 
ATOM     17  C   UNL     1      -5.851  -0.835  24.966  0.00  0.00    +0.007 C 
ATOM     18  C   UNL     1      -1.023  -2.255  24.094  0.00  0.00    +0.023 C 
ATOM     19  C   UNL     1      -3.107  -1.419  26.210  0.00  0.00    +0.011 C 
ATOM     21  C   UNL     1      -1.245   1.573  23.345  0.00  0.00    +0.010 C 
ENDROOT
BRANCH  16   7
ATOM      3  O   UNL     1       1.251  -0.573  21.416  0.00  0.00    -0.270 OA
ATOM      7  N   UNL     1       0.700  -0.616  23.668  0.00  0.00    -0.308 N 
ATOM     24  C   UNL     1       1.569  -0.481  22.599  0.00  0.00    +0.244 C 
ATOM     41  H   UNL     1       1.020  -0.477  24.621  0.00  0.00    +0.149 HD
BRANCH  24  25
ATOM     25  C   UNL     1       2.991  -0.230  22.951  0.00  0.00    +0.037 A 
ATOM     27  C   UNL     1       3.569   1.009  22.676  0.00  0.00    +0.016 A 
ATOM     28  C   UNL     1       3.747  -1.235  23.553  0.00  0.00    +0.016 A 
ATOM     30  C   UNL     1       4.904   1.242  23.004  0.00  0.00    +0.046 A 
ATOM     31  C   UNL     1       5.082  -1.002  23.881  0.00  0.00    +0.046 A 
ATOM     32  C   UNL     1       5.662   0.238  23.607  0.00  0.00    +0.120 A 
BRANCH  32   4
ATOM      4  O   UNL     1       6.964   0.466  23.928  0.00  0.00    -0.495 OA
ATOM     38  C   UNL     1       7.950  -0.257  23.193  0.00  0.00    +0.277 C 
ENDBRANCH  32   4
ENDBRANCH  24  25
ENDBRANCH  16   7
BRANCH  12   1
ATOM      1  O   UNL     1      -3.972   2.126  23.597  0.00  0.00    -0.391 OA
ATOM     42  H   UNL     1      -4.312   2.894  24.086  0.00  0.00    +0.210 HD
ENDBRANCH  12   1
BRANCH  15  20
ATOM     20  C   UNL     1      -6.549   1.566  24.894  0.00  0.00    +0.077 C 
ATOM     22  C   UNL     1      -7.297   2.277  23.772  0.00  0.00    +0.017 C 
BRANCH  20  23
ATOM      2  O   UNL     1      -5.695   2.444  26.984  0.00  0.00    -0.276 OA
ATOM      8  N   UNL     1      -5.191   3.569  25.019  0.00  0.00    -0.311 N 
ATOM     23  C   UNL     1      -5.776   2.555  25.762  0.00  0.00    +0.216 C 
ATOM     43  H   UNL     1      -5.259   3.561  24.007  0.00  0.00    +0.149 HD
BRANCH   8  26
ATOM     26  C   UNL     1      -4.408   4.626  25.618  0.00  0.00    +0.139 C 
BRANCH  26  29
ATOM     29  C   UNL     1      -2.971   4.229  25.795  0.00  0.00    -0.027 A 
ATOM     33  C   UNL     1      -1.982   4.822  25.010  0.00  0.00    +0.054 A 
ATOM     34  C   UNL     1      -2.624   3.266  26.744  0.00  0.00    +0.009 A 
ATOM     35  C   UNL     1      -0.647   4.453  25.175  0.00  0.00    +0.162 A 
ATOM     36  C   UNL     1      -1.289   2.898  26.908  0.00  0.00    +0.050 A 
ATOM     37  C   UNL     1      -0.300   3.492  26.123  0.00  0.00    +0.162 A 
BRANCH  35   5
ATOM      5  O   UNL     1       0.310   5.041  24.402  0.00  0.00    -0.491 OA
ATOM     39  C   UNL     1       0.153   4.940  22.988  0.00  0.00    +0.277 C 
ENDBRANCH  35   5
BRANCH  37   6
ATOM      6  O   UNL     1       1.000   3.122  26.291  0.00  0.00    -0.491 OA
ATOM     40  C   UNL     1       1.404   2.759  27.610  0.00  0.00    +0.277 C 
ENDBRANCH  37   6
ENDBRANCH  26  29
ENDBRANCH   8  26
ENDBRANCH  20  23
ENDBRANCH  15  20
TORSDOF 10
ENDMDL
