MODEL 1
REMARK VINA RESULT:       5.6      0.000      0.000
REMARK  Name = 25389854
REMARK  9 active torsions:
REMARK  status: ('A' for Active; 'I' for Inactive)
REMARK    1  A    between atoms: O_1  and  C_20
REMARK    2  A    between atoms: O_1  and  C_32
REMARK    3  A    between atoms: N_5  and  C_11
REMARK    4  A    between atoms: N_5  and  C_21
REMARK    5  A    between atoms: N_7  and  C_26
REMARK    6  A    between atoms: C_9  and  C_17
REMARK    7  A    between atoms: C_13  and  C_20
REMARK    8  A    between atoms: C_21  and  C_26
REMARK    9  A    between atoms: C_33  and  C_34
REMARK                            x       y       z     vdW  Elec       q    Type
REMARK                         _______ _______ _______ _____ _____    ______ ____
ROOT
ATOM      4  N   UNL     1      -1.096   1.489  25.904  0.00  0.00    -0.274 NA
ATOM      6  N   UNL     1      -3.827  -0.052  23.835  0.00  0.00    -0.356 N 
ATOM      8  C   UNL     1      -2.126   1.586  24.823  0.00  0.00    +0.106 C 
ATOM      9  C   UNL     1      -0.476   2.806  26.200  0.00  0.00    +0.090 C 
ATOM     10  C   UNL     1      -3.227   2.586  25.209  0.00  0.00    +0.044 C 
ATOM     11  C   UNL     1      -2.627   3.967  25.475  0.00  0.00    +0.057 C 
ATOM     12  C   UNL     1      -1.553   3.860  26.556  0.00  0.00    +0.042 C 
ATOM     13  C   UNL     1      -0.129   0.379  25.684  0.00  0.00    +0.172 C 
ATOM     14  C   UNL     1      -2.688   0.226  24.540  0.00  0.00    +0.038 A 
ATOM     15  C   UNL     1      -0.817  -1.009  25.647  0.00  0.00    +0.068 C 
ATOM     16  C   UNL     1      -2.097  -0.969  24.890  0.00  0.00    -0.016 A 
ATOM     18  C   UNL     1      -2.927  -2.020  24.412  0.00  0.00    +0.003 A 
ATOM     19  C   UNL     1      -4.005  -1.418  23.755  0.00  0.00    +0.047 A 
ATOM     24  C   UNL     1      -2.867  -3.427  24.467  0.00  0.00    +0.010 A 
ATOM     25  C   UNL     1      -5.027  -2.158  23.150  0.00  0.00    +0.026 A 
ATOM     27  C   UNL     1      -3.884  -4.178  23.868  0.00  0.00    +0.001 A 
ATOM     30  C   UNL     1      -4.947  -3.551  23.220  0.00  0.00    +0.002 A 
ATOM     36  H   UNL     1      -4.451   0.633  23.432  0.00  0.00    +0.166 HD
ENDROOT
BRANCH   9  17
ATOM     17  C   UNL     1       0.536   2.775  27.342  0.00  0.00    -0.030 A 
ATOM     22  C   UNL     1       0.136   2.369  28.616  0.00  0.00    +0.005 A 
ATOM     23  C   UNL     1       1.858   3.154  27.114  0.00  0.00    +0.005 A 
ATOM     28  C   UNL     1       1.061   2.341  29.660  0.00  0.00    +0.000 A 
ATOM     29  C   UNL     1       2.783   3.126  28.157  0.00  0.00    +0.000 A 
ATOM     31  C   UNL     1       2.384   2.720  29.431  0.00  0.00    +0.000 A 
ENDBRANCH   9  17
BRANCH  13  20
ATOM      2  O   UNL     1       1.263   1.656  24.186  0.00  0.00    -0.249 OA
ATOM     20  C   UNL     1       0.668   0.616  24.434  0.00  0.00    +0.325 C 
BRANCH  20   1
ATOM      1  O   UNL     1       0.621  -0.495  23.645  0.00  0.00    -0.467 OA
ATOM     32  C   UNL     1       1.290  -0.384  22.385  0.00  0.00    +0.280 C 
ENDBRANCH  20   1
ENDBRANCH  13  20
BRANCH  11   5
ATOM      5  N   UNL     1      -3.677   4.903  25.874  0.00  0.00    -0.312 NA
ATOM     35  H   UNL     1      -4.093   4.601  26.755  0.00  0.00    +0.122 HD
BRANCH   5  21
ATOM     21  C   UNL     1      -4.720   4.970  24.862  0.00  0.00    +0.100 C 
BRANCH  21  26
ATOM     26  C   UNL     1      -6.081   4.711  25.490  0.00  0.00    +0.119 C 
BRANCH  26   7
ATOM      3  O   UNL     1      -6.433   2.001  24.510  0.00  0.00    -0.276 OA
ATOM      7  N   UNL     1      -6.078   3.496  26.260  0.00  0.00    -0.314 N 
ATOM     33  C   UNL     1      -6.255   2.237  25.702  0.00  0.00    +0.210 C 
ATOM     34  C   UNL     1      -6.182   1.138  26.727  0.00  0.00    +0.109 C 
ATOM     37  H   UNL     1      -5.920   3.573  27.260  0.00  0.00    +0.149 HD
ENDBRANCH  26   7
ENDBRANCH  21  26
ENDBRANCH   5  21
ENDBRANCH  11   5
TORSDOF 7
ENDMDL
MODEL 2
REMARK VINA RESULT:       8.9      1.793      5.811
REMARK  Name = 25389854
REMARK  9 active torsions:
REMARK  status: ('A' for Active; 'I' for Inactive)
REMARK    1  A    between atoms: O_1  and  C_20
REMARK    2  A    between atoms: O_1  and  C_32
REMARK    3  A    between atoms: N_5  and  C_11
REMARK    4  A    between atoms: N_5  and  C_21
REMARK    5  A    between atoms: N_7  and  C_26
REMARK    6  A    between atoms: C_9  and  C_17
REMARK    7  A    between atoms: C_13  and  C_20
REMARK    8  A    between atoms: C_21  and  C_26
REMARK    9  A    between atoms: C_33  and  C_34
REMARK                            x       y       z     vdW  Elec       q    Type
REMARK                         _______ _______ _______ _____ _____    ______ ____
ROOT
ATOM      4  N   UNL     1      -0.822   1.241  24.409  0.00  0.00    -0.274 NA
ATOM      6  N   UNL     1      -4.135   2.200  25.897  0.00  0.00    -0.356 N 
ATOM      8  C   UNL     1      -1.850   1.121  25.489  0.00  0.00    +0.106 C 
ATOM      9  C   UNL     1       0.273   0.251  24.572  0.00  0.00    +0.090 C 
ATOM     10  C   UNL     1      -2.449  -0.294  25.514  0.00  0.00    +0.044 C 
ATOM     11  C   UNL     1      -1.352  -1.337  25.728  0.00  0.00    +0.057 C 
ATOM     12  C   UNL     1      -0.286  -1.190  24.643  0.00  0.00    +0.042 C 
ATOM     13  C   UNL     1      -0.369   2.643  24.195  0.00  0.00    +0.172 C 
ATOM     14  C   UNL     1      -2.907   2.166  25.297  0.00  0.00    +0.038 A 
ATOM     15  C   UNL     1      -1.525   3.582  23.767  0.00  0.00    +0.068 C 
ATOM     16  C   UNL     1      -2.771   3.304  24.532  0.00  0.00    -0.016 A 
ATOM     18  C   UNL     1      -3.980   4.046  24.639  0.00  0.00    +0.003 A 
ATOM     19  C   UNL     1      -4.818   3.331  25.500  0.00  0.00    +0.047 A 
ATOM     24  C   UNL     1      -4.444   5.260  24.093  0.00  0.00    +0.010 A 
ATOM     25  C   UNL     1      -6.101   3.773  25.841  0.00  0.00    +0.026 A 
ATOM     27  C   UNL     1      -5.726   5.711  24.424  0.00  0.00    +0.001 A 
ATOM     30  C   UNL     1      -6.541   4.977  25.285  0.00  0.00    +0.002 A 
ATOM     36  H   UNL     1      -4.498   1.505  26.534  0.00  0.00    +0.166 HD
ENDROOT
BRANCH   9  17
ATOM     17  C   UNL     1       1.317   0.287  23.459  0.00  0.00    -0.030 A 
ATOM     22  C   UNL     1       1.078  -0.382  22.258  0.00  0.00    +0.005 A 
ATOM     23  C   UNL     1       2.509   0.988  23.642  0.00  0.00    +0.005 A 
ATOM     28  C   UNL     1       2.032  -0.350  21.241  0.00  0.00    +0.000 A 
ATOM     29  C   UNL     1       3.462   1.021  22.625  0.00  0.00    +0.000 A 
ATOM     31  C   UNL     1       3.224   0.351  21.423  0.00  0.00    +0.000 A 
ENDBRANCH   9  17
BRANCH  13  20
ATOM      2  O   UNL     1       0.529   4.353  25.639  0.00  0.00    -0.249 OA
ATOM     20  C   UNL     1       0.320   3.167  25.422  0.00  0.00    +0.325 C 
BRANCH  20   1
ATOM      1  O   UNL     1       0.663   2.125  26.232  0.00  0.00    -0.467 OA
ATOM     32  C   UNL     1       0.802   2.444  27.620  0.00  0.00    +0.280 C 
ENDBRANCH  20   1
ENDBRANCH  13  20
BRANCH  11   5
ATOM      5  N   UNL     1      -1.926  -2.681  25.717  0.00  0.00    -0.312 NA
ATOM     35  H   UNL     1      -1.319  -3.321  26.229  0.00  0.00    +0.122 HD
BRANCH   5  21
ATOM     21  C   UNL     1      -2.073  -3.167  24.353  0.00  0.00    +0.100 C 
BRANCH  21  26
ATOM     26  C   UNL     1      -3.536  -3.452  24.049  0.00  0.00    +0.119 C 
BRANCH  26   7
ATOM      3  O   UNL     1      -3.777  -0.840  22.803  0.00  0.00    -0.276 OA
ATOM      7  N   UNL     1      -4.377  -2.361  24.463  0.00  0.00    -0.314 N 
ATOM     33  C   UNL     1      -4.426  -1.141  23.802  0.00  0.00    +0.210 C 
ATOM     34  C   UNL     1      -5.406  -0.186  24.429  0.00  0.00    +0.109 C 
ATOM     37  H   UNL     1      -4.973  -2.506  25.272  0.00  0.00    +0.149 HD
ENDBRANCH  26   7
ENDBRANCH  21  26
ENDBRANCH   5  21
ENDBRANCH  11   5
TORSDOF 7
ENDMDL
