MODEL 1
REMARK VINA RESULT:      -0.2      0.000      0.000
REMARK  Name = 45783818
REMARK  8 active torsions:
REMARK  status: ('A' for Active; 'I' for Inactive)
REMARK    1  A    between atoms: N_5  and  C_14
REMARK    2  A    between atoms: N_9  and  C_28
REMARK    3  A    between atoms: N_9  and  C_29
REMARK    4  A    between atoms: N_9  and  C_30
REMARK    5  A    between atoms: C_10  and  C_15
REMARK    6  A    between atoms: C_14  and  C_16
REMARK    7  A    between atoms: C_19  and  C_23
REMARK    8  A    between atoms: C_22  and  C_24
REMARK                            x       y       z     vdW  Elec       q    Type
REMARK                         _______ _______ _______ _____ _____    ______ ____
ROOT
ATOM      5  N   UNL     1      -5.550   2.632  25.414  0.00  0.00    -0.287 NA
ATOM     10  C   UNL     1      -4.631   3.289  24.463  0.00  0.00    +0.146 C 
ATOM     11  C   UNL     1      -4.852   4.797  24.685  0.00  0.00    +0.030 C 
ATOM     12  C   UNL     1      -5.954   4.888  25.732  0.00  0.00    +0.017 C 
ATOM     13  C   UNL     1      -6.666   3.556  25.617  0.00  0.00    +0.085 C 
ENDROOT
BRANCH  10  15
ATOM      4  O   UNL     1      -2.631   3.185  25.864  0.00  0.00    -0.336 OA
ATOM      6  N   UNL     1      -2.382   2.252  23.842  0.00  0.00    -0.190 NA
ATOM      7  N   UNL     1      -1.314   2.709  25.813  0.00  0.00    -0.056 NA
ATOM     15  C   UNL     1      -3.189   2.874  24.665  0.00  0.00    +0.245 A 
ATOM     19  C   UNL     1      -1.244   2.173  24.591  0.00  0.00    +0.204 A 
BRANCH  19  23
ATOM      8  N   UNL     1       2.334   1.653  23.721  0.00  0.00    -0.240 NA
ATOM     23  C   UNL     1      -0.054   1.549  24.089  0.00  0.00    +0.041 A 
ATOM     25  C   UNL     1      -0.097   0.291  23.501  0.00  0.00    +0.016 A 
ATOM     26  C   UNL     1       1.175   2.184  24.174  0.00  0.00    +0.124 A 
ATOM     27  C   UNL     1       1.073  -0.288  23.022  0.00  0.00    +0.044 A 
ATOM     28  C   UNL     1       2.253   0.428  23.155  0.00  0.00    +0.121 A 
BRANCH  28   9
ATOM      9  N   UNL     1       3.436  -0.175  22.664  0.00  0.00    -0.321 N 
ATOM     29  C   UNL     1       3.932   0.163  21.348  0.00  0.00    +0.130 C 
ATOM     30  C   UNL     1       4.151  -1.138  23.471  0.00  0.00    +0.130 C 
ENDBRANCH  28   9
ENDBRANCH  19  23
ENDBRANCH  10  15
BRANCH   5  14
ATOM     14  C   UNL     1      -5.998   1.320  24.965  0.00  0.00    +0.120 C 
BRANCH  14  16
ATOM     16  C   UNL     1      -4.872   0.322  24.937  0.00  0.00    -0.033 A 
ATOM     17  C   UNL     1      -4.161   0.039  26.104  0.00  0.00    +0.005 A 
ATOM     18  C   UNL     1      -4.540  -0.323  23.745  0.00  0.00    +0.005 A 
ATOM     20  C   UNL     1      -3.118  -0.885  26.078  0.00  0.00    +0.012 A 
ATOM     21  C   UNL     1      -3.496  -1.247  23.719  0.00  0.00    +0.012 A 
ATOM     22  C   UNL     1      -2.786  -1.529  24.886  0.00  0.00    +0.055 A 
BRANCH  22  24
ATOM      1  F   UNL     1      -1.290  -2.880  23.598  0.00  0.00    -0.166 F 
ATOM      2  F   UNL     1      -1.992  -3.687  25.492  0.00  0.00    -0.166 F 
ATOM      3  F   UNL     1      -0.530  -2.078  25.464  0.00  0.00    -0.166 F 
ATOM     24  C   UNL     1      -1.671  -2.520  24.860  0.00  0.00    +0.417 C 
ENDBRANCH  22  24
ENDBRANCH  14  16
ENDBRANCH   5  14
TORSDOF 6
ENDMDL
MODEL 2
REMARK VINA RESULT:       0.3      1.547      2.136
REMARK  Name = 45783818
REMARK  8 active torsions:
REMARK  status: ('A' for Active; 'I' for Inactive)
REMARK    1  A    between atoms: N_5  and  C_14
REMARK    2  A    between atoms: N_9  and  C_28
REMARK    3  A    between atoms: N_9  and  C_29
REMARK    4  A    between atoms: N_9  and  C_30
REMARK    5  A    between atoms: C_10  and  C_15
REMARK    6  A    between atoms: C_14  and  C_16
REMARK    7  A    between atoms: C_19  and  C_23
REMARK    8  A    between atoms: C_22  and  C_24
REMARK                            x       y       z     vdW  Elec       q    Type
REMARK                         _______ _______ _______ _____ _____    ______ ____
ROOT
ATOM      5  N   UNL     1      -3.771   3.247  25.679  0.00  0.00    -0.287 NA
ATOM     10  C   UNL     1      -3.212   3.715  24.394  0.00  0.00    +0.146 C 
ATOM     11  C   UNL     1      -2.605   5.094  24.711  0.00  0.00    +0.030 C 
ATOM     12  C   UNL     1      -2.926   5.342  26.179  0.00  0.00    +0.017 C 
ATOM     13  C   UNL     1      -4.120   4.446  26.440  0.00  0.00    +0.085 C 
ENDROOT
BRANCH  10  15
ATOM      4  O   UNL     1      -2.602   2.024  22.738  0.00  0.00    -0.336 OA
ATOM      6  N   UNL     1      -0.973   2.504  24.198  0.00  0.00    -0.190 NA
ATOM      7  N   UNL     1      -1.513   1.217  22.385  0.00  0.00    -0.056 NA
ATOM     15  C   UNL     1      -2.200   2.751  23.813  0.00  0.00    +0.245 A 
ATOM     19  C   UNL     1      -0.592   1.557  23.292  0.00  0.00    +0.204 A 
BRANCH  19  23
ATOM      8  N   UNL     1       3.115   1.279  23.377  0.00  0.00    -0.240 NA
ATOM     23  C   UNL     1       0.717   0.972  23.319  0.00  0.00    +0.041 A 
ATOM     25  C   UNL     1       0.887  -0.407  23.317  0.00  0.00    +0.016 A 
ATOM     26  C   UNL     1       1.853   1.765  23.350  0.00  0.00    +0.124 A 
ATOM     27  C   UNL     1       2.169  -0.945  23.344  0.00  0.00    +0.044 A 
ATOM     28  C   UNL     1       3.240  -0.066  23.373  0.00  0.00    +0.121 A 
BRANCH  28   9
ATOM      9  N   UNL     1       4.539  -0.630  23.402  0.00  0.00    -0.321 N 
ATOM     29  C   UNL     1       5.693   0.189  23.103  0.00  0.00    +0.130 C 
ATOM     30  C   UNL     1       4.720  -2.029  23.721  0.00  0.00    +0.130 C 
ENDBRANCH  28   9
ENDBRANCH  19  23
ENDBRANCH  10  15
BRANCH   5  14
ATOM     14  C   UNL     1      -4.908   2.349  25.517  0.00  0.00    +0.120 C 
BRANCH  14  16
ATOM     16  C   UNL     1      -4.472   0.936  25.240  0.00  0.00    -0.033 A 
ATOM     17  C   UNL     1      -5.062   0.214  24.202  0.00  0.00    +0.005 A 
ATOM     18  C   UNL     1      -3.476   0.347  26.021  0.00  0.00    +0.005 A 
ATOM     20  C   UNL     1      -4.657  -1.096  23.946  0.00  0.00    +0.012 A 
ATOM     21  C   UNL     1      -3.073  -0.964  25.765  0.00  0.00    +0.012 A 
ATOM     22  C   UNL     1      -3.663  -1.684  24.727  0.00  0.00    +0.055 A 
BRANCH  22  24
ATOM      1  F   UNL     1      -3.260  -3.893  25.551  0.00  0.00    -0.166 F 
ATOM      2  F   UNL     1      -1.948  -3.154  23.981  0.00  0.00    -0.166 F 
ATOM      3  F   UNL     1      -3.995  -3.722  23.518  0.00  0.00    -0.166 F 
ATOM     24  C   UNL     1      -3.229  -3.084  24.450  0.00  0.00    +0.417 C 
ENDBRANCH  22  24
ENDBRANCH  14  16
ENDBRANCH   5  14
TORSDOF 6
ENDMDL
MODEL 3
REMARK VINA RESULT:       3.1      3.362      5.183
REMARK  Name = 45783818
REMARK  8 active torsions:
REMARK  status: ('A' for Active; 'I' for Inactive)
REMARK    1  A    between atoms: N_5  and  C_14
REMARK    2  A    between atoms: N_9  and  C_28
REMARK    3  A    between atoms: N_9  and  C_29
REMARK    4  A    between atoms: N_9  and  C_30
REMARK    5  A    between atoms: C_10  and  C_15
REMARK    6  A    between atoms: C_14  and  C_16
REMARK    7  A    between atoms: C_19  and  C_23
REMARK    8  A    between atoms: C_22  and  C_24
REMARK                            x       y       z     vdW  Elec       q    Type
REMARK                         _______ _______ _______ _____ _____    ______ ____
ROOT
ATOM      5  N   UNL     1      -3.576  -0.771  24.560  0.00  0.00    -0.287 NA
ATOM     10  C   UNL     1      -2.380  -1.636  24.622  0.00  0.00    +0.146 C 
ATOM     11  C   UNL     1      -2.766  -2.894  23.823  0.00  0.00    +0.030 C 
ATOM     12  C   UNL     1      -4.213  -2.672  23.405  0.00  0.00    +0.017 C 
ATOM     13  C   UNL     1      -4.725  -1.665  24.414  0.00  0.00    +0.085 C 
ENDROOT
BRANCH  10  15
ATOM      4  O   UNL     1      -1.343   0.109  23.260  0.00  0.00    -0.336 OA
ATOM      6  N   UNL     1       0.120  -1.246  24.281  0.00  0.00    -0.190 NA
ATOM      7  N   UNL     1      -0.070   0.561  22.890  0.00  0.00    -0.056 NA
ATOM     15  C   UNL     1      -1.141  -0.956  24.079  0.00  0.00    +0.245 A 
ATOM     19  C   UNL     1       0.739  -0.288  23.531  0.00  0.00    +0.204 A 
BRANCH  19  23
ATOM      8  N   UNL     1       4.322  -1.237  23.826  0.00  0.00    -0.240 NA
ATOM     23  C   UNL     1       2.168  -0.205  23.446  0.00  0.00    +0.041 A 
ATOM     25  C   UNL     1       2.792   0.923  22.928  0.00  0.00    +0.016 A 
ATOM     26  C   UNL     1       2.970  -1.250  23.878  0.00  0.00    +0.124 A 
ATOM     27  C   UNL     1       4.180   0.974  22.858  0.00  0.00    +0.044 A 
ATOM     28  C   UNL     1       4.893  -0.123  23.317  0.00  0.00    +0.121 A 
BRANCH  28   9
ATOM      9  N   UNL     1       6.305  -0.057  23.238  0.00  0.00    -0.321 N 
ATOM     29  C   UNL     1       7.023   0.992  23.927  0.00  0.00    +0.130 C 
ATOM     30  C   UNL     1       7.038  -1.032  22.461  0.00  0.00    +0.130 C 
ENDBRANCH  28   9
ENDBRANCH  19  23
ENDBRANCH  10  15
BRANCH   5  14
ATOM     14  C   UNL     1      -3.708   0.109  25.714  0.00  0.00    +0.120 C 
BRANCH  14  16
ATOM     16  C   UNL     1      -3.138   1.476  25.445  0.00  0.00    -0.033 A 
ATOM     17  C   UNL     1      -3.927   2.454  24.838  0.00  0.00    +0.005 A 
ATOM     18  C   UNL     1      -1.821   1.766  25.802  0.00  0.00    +0.005 A 
ATOM     20  C   UNL     1      -3.400   3.720  24.589  0.00  0.00    +0.012 A 
ATOM     21  C   UNL     1      -1.293   3.033  25.552  0.00  0.00    +0.012 A 
ATOM     22  C   UNL     1      -2.083   4.010  24.947  0.00  0.00    +0.055 A 
BRANCH  22  24
ATOM      1  F   UNL     1      -0.171   5.363  24.463  0.00  0.00    -0.166 F 
ATOM      2  F   UNL     1      -1.720   6.229  25.721  0.00  0.00    -0.166 F 
ATOM      3  F   UNL     1      -2.058   5.979  23.587  0.00  0.00    -0.166 F 
ATOM     24  C   UNL     1      -1.520   5.365  24.682  0.00  0.00    +0.417 C 
ENDBRANCH  22  24
ENDBRANCH  14  16
ENDBRANCH   5  14
TORSDOF 6
ENDMDL
