MODEL 1
REMARK VINA RESULT:      -3.4      0.000      0.000
REMARK  Name = 71693044
REMARK  13 active torsions:
REMARK  status: ('A' for Active; 'I' for Inactive)
REMARK    1  A    between atoms: N_2  and  C_13
REMARK    2  A    between atoms: N_5  and  C_22
REMARK    3  A    between atoms: N_5  and  C_28
REMARK    4  A    between atoms: N_5  and  C_29
REMARK    5  A    between atoms: C_6  and  C_10
REMARK    6  A    between atoms: C_7  and  C_13
REMARK    7  A    between atoms: C_9  and  C_14
REMARK    8  A    between atoms: C_10  and  C_15
REMARK    9  A    between atoms: C_10  and  C_16
REMARK   10  A    between atoms: C_11  and  C_17
REMARK   11  A    between atoms: C_14  and  C_18
REMARK   12  A    between atoms: C_19  and  C_22
REMARK   13  A    between atoms: C_25  and  C_27
REMARK                            x       y       z     vdW  Elec       q    Type
REMARK                         _______ _______ _______ _____ _____    ______ ____
ROOT
ATOM      6  C   UNL     1      -1.308   0.770  25.389  0.00  0.00    +0.000 C 
ATOM      7  C   UNL     1      -0.012   0.255  24.716  0.00  0.00    +0.032 C 
ATOM      8  C   UNL     1      -1.965  -0.348  26.212  0.00  0.00    +0.012 C 
ATOM      9  C   UNL     1      -2.318  -1.576  25.350  0.00  0.00    +0.022 C 
ATOM     11  C   UNL     1      -1.166  -1.983  24.454  0.00  0.00    -0.073 C 
ATOM     12  C   UNL     1      -0.138  -1.156  24.192  0.00  0.00    -0.022 C 
ATOM     17  C   UNL     1      -1.201  -3.379  23.899  0.00  0.00    +0.039 C 
ENDROOT
BRANCH   6  10
ATOM     10  C   UNL     1      -1.040   1.984  26.285  0.00  0.00    -0.013 C 
ATOM     15  C   UNL     1       0.437   2.051  26.663  0.00  0.00    +0.007 C 
ATOM     16  C   UNL     1      -1.480   3.267  25.589  0.00  0.00    +0.007 C 
ENDBRANCH   6  10
BRANCH   7  13
ATOM     13  C   UNL     1       0.428   1.185  23.578  0.00  0.00    +0.112 C 
BRANCH  13   2
ATOM      1  O   UNL     1       1.987  -0.207  21.578  0.00  0.00    -0.274 OA
ATOM      2  N   UNL     1       1.850   1.178  23.440  0.00  0.00    -0.314 N 
ATOM     19  C   UNL     1       2.531   0.478  22.442  0.00  0.00    +0.227 C 
ATOM     30  H   UNL     1       2.390   1.766  24.069  0.00  0.00    +0.149 HD
BRANCH  19  22
ATOM     22  C   UNL     1       4.034   0.627  22.554  0.00  0.00    +0.180 C 
BRANCH  22   5
ATOM      5  N   UNL     1       4.469   0.051  23.819  0.00  0.00    -0.300 NA
ATOM     28  C   UNL     1       5.831   0.484  24.143  0.00  0.00    +0.105 C 
ATOM     29  C   UNL     1       4.400  -1.411  23.774  0.00  0.00    +0.105 C 
ENDBRANCH  22   5
ENDBRANCH  19  22
ENDBRANCH  13   2
ENDBRANCH   7  13
BRANCH   9  14
ATOM     14  C   UNL     1      -3.591  -1.329  24.533  0.00  0.00    +0.082 C 
BRANCH  14  18
ATOM      3  N   UNL     1      -4.780   0.698  25.389  0.00  0.00    -0.342 N 
ATOM      4  N   UNL     1      -3.495   1.009  23.603  0.00  0.00    -0.232 NA
ATOM     18  C   UNL     1      -3.934   0.131  24.477  0.00  0.00    +0.109 A 
ATOM     20  C   UNL     1      -4.896   2.029  25.082  0.00  0.00    +0.066 A 
ATOM     21  C   UNL     1      -4.085   2.198  23.964  0.00  0.00    +0.089 A 
ATOM     23  C   UNL     1      -5.619   3.069  25.670  0.00  0.00    +0.031 A 
ATOM     24  C   UNL     1      -3.977   3.474  23.384  0.00  0.00    +0.030 A 
ATOM     25  C   UNL     1      -5.499   4.330  25.079  0.00  0.00    -0.048 A 
ATOM     26  C   UNL     1      -4.694   4.532  23.957  0.00  0.00    +0.005 A 
ATOM     27  C   UNL     1      -6.248   5.484  25.662  0.00  0.00    +0.044 C 
ATOM     31  H   UNL     1      -5.240   0.222  26.154  0.00  0.00    +0.167 HD
ENDBRANCH  14  18
ENDBRANCH   9  14
TORSDOF 7
ENDMDL
MODEL 2
REMARK VINA RESULT:      -2.6      1.625      4.755
REMARK  Name = 71693044
REMARK  13 active torsions:
REMARK  status: ('A' for Active; 'I' for Inactive)
REMARK    1  A    between atoms: N_2  and  C_13
REMARK    2  A    between atoms: N_5  and  C_22
REMARK    3  A    between atoms: N_5  and  C_28
REMARK    4  A    between atoms: N_5  and  C_29
REMARK    5  A    between atoms: C_6  and  C_10
REMARK    6  A    between atoms: C_7  and  C_13
REMARK    7  A    between atoms: C_9  and  C_14
REMARK    8  A    between atoms: C_10  and  C_15
REMARK    9  A    between atoms: C_10  and  C_16
REMARK   10  A    between atoms: C_11  and  C_17
REMARK   11  A    between atoms: C_14  and  C_18
REMARK   12  A    between atoms: C_19  and  C_22
REMARK   13  A    between atoms: C_25  and  C_27
REMARK                            x       y       z     vdW  Elec       q    Type
REMARK                         _______ _______ _______ _____ _____    ______ ____
ROOT
ATOM      6  C   UNL     1      -2.567   2.359  23.665  0.00  0.00    +0.000 C 
ATOM      7  C   UNL     1      -1.375   2.834  24.531  0.00  0.00    +0.032 C 
ATOM      8  C   UNL     1      -3.641   3.454  23.584  0.00  0.00    +0.012 C 
ATOM      9  C   UNL     1      -4.175   3.850  24.974  0.00  0.00    +0.022 C 
ATOM     11  C   UNL     1      -3.051   4.076  25.965  0.00  0.00    -0.073 C 
ATOM     12  C   UNL     1      -1.803   3.626  25.744  0.00  0.00    -0.022 C 
ATOM     17  C   UNL     1      -3.384   4.870  27.197  0.00  0.00    +0.039 C 
ENDROOT
BRANCH   6  10
ATOM     10  C   UNL     1      -2.123   1.964  22.253  0.00  0.00    -0.013 C 
ATOM     15  C   UNL     1      -2.366   0.476  22.015  0.00  0.00    +0.007 C 
ATOM     16  C   UNL     1      -2.854   2.804  21.210  0.00  0.00    +0.007 C 
ENDBRANCH   6  10
BRANCH   7  13
ATOM     13  C   UNL     1      -0.506   1.651  24.975  0.00  0.00    +0.112 C 
BRANCH  13   2
ATOM      1  O   UNL     1       0.167  -0.923  23.839  0.00  0.00    -0.274 OA
ATOM      2  N   UNL     1       0.504   1.371  24.002  0.00  0.00    -0.314 N 
ATOM     19  C   UNL     1       0.768   0.095  23.502  0.00  0.00    +0.227 C 
ATOM     30  H   UNL     1       1.016   2.157  23.612  0.00  0.00    +0.149 HD
BRANCH  19  22
ATOM     22  C   UNL     1       1.911   0.089  22.507  0.00  0.00    +0.180 C 
BRANCH  22   5
ATOM      5  N   UNL     1       3.164   0.246  23.232  0.00  0.00    -0.300 NA
ATOM     28  C   UNL     1       4.097   1.085  22.475  0.00  0.00    +0.105 C 
ATOM     29  C   UNL     1       3.768  -1.058  23.512  0.00  0.00    +0.105 C 
ENDBRANCH  22   5
ENDBRANCH  19  22
ENDBRANCH  13   2
ENDBRANCH   7  13
BRANCH   9  14
ATOM     14  C   UNL     1      -5.171   2.810  25.501  0.00  0.00    +0.082 C 
BRANCH  14  18
ATOM      3  N   UNL     1      -5.128   0.574  24.380  0.00  0.00    -0.342 N 
ATOM      4  N   UNL     1      -3.700   0.845  26.062  0.00  0.00    -0.232 NA
ATOM     18  C   UNL     1      -4.642   1.414  25.343  0.00  0.00    +0.109 A 
ATOM     20  C   UNL     1      -4.455  -0.616  24.484  0.00  0.00    +0.066 A 
ATOM     21  C   UNL     1      -3.569  -0.422  25.541  0.00  0.00    +0.089 A 
ATOM     23  C   UNL     1      -4.542  -1.810  23.766  0.00  0.00    +0.031 A 
ATOM     24  C   UNL     1      -2.712  -1.471  25.916  0.00  0.00    +0.030 A 
ATOM     25  C   UNL     1      -3.681  -2.842  24.155  0.00  0.00    -0.048 A 
ATOM     26  C   UNL     1      -2.783  -2.678  25.210  0.00  0.00    +0.005 A 
ATOM     27  C   UNL     1      -3.727  -4.144  23.424  0.00  0.00    +0.044 C 
ATOM     31  H   UNL     1      -5.853   0.790  23.709  0.00  0.00    +0.167 HD
ENDBRANCH  14  18
ENDBRANCH   9  14
TORSDOF 7
ENDMDL
MODEL 3
REMARK VINA RESULT:      -1.9      2.233      6.643
REMARK  Name = 71693044
REMARK  13 active torsions:
REMARK  status: ('A' for Active; 'I' for Inactive)
REMARK    1  A    between atoms: N_2  and  C_13
REMARK    2  A    between atoms: N_5  and  C_22
REMARK    3  A    between atoms: N_5  and  C_28
REMARK    4  A    between atoms: N_5  and  C_29
REMARK    5  A    between atoms: C_6  and  C_10
REMARK    6  A    between atoms: C_7  and  C_13
REMARK    7  A    between atoms: C_9  and  C_14
REMARK    8  A    between atoms: C_10  and  C_15
REMARK    9  A    between atoms: C_10  and  C_16
REMARK   10  A    between atoms: C_11  and  C_17
REMARK   11  A    between atoms: C_14  and  C_18
REMARK   12  A    between atoms: C_19  and  C_22
REMARK   13  A    between atoms: C_25  and  C_27
REMARK                            x       y       z     vdW  Elec       q    Type
REMARK                         _______ _______ _______ _____ _____    ______ ____
ROOT
ATOM      6  C   UNL     1      -4.112   3.031  25.274  0.00  0.00    +0.000 C 
ATOM      7  C   UNL     1      -3.794   3.539  23.846  0.00  0.00    +0.032 C 
ATOM      8  C   UNL     1      -3.512   3.978  26.325  0.00  0.00    +0.012 C 
ATOM      9  C   UNL     1      -1.984   4.112  26.183  0.00  0.00    +0.022 C 
ATOM     11  C   UNL     1      -1.571   4.349  24.745  0.00  0.00    -0.073 C 
ATOM     12  C   UNL     1      -2.398   4.100  23.714  0.00  0.00    -0.022 C 
ATOM     17  C   UNL     1      -0.199   4.922  24.520  0.00  0.00    +0.039 C 
ENDROOT
BRANCH   6  10
ATOM     10  C   UNL     1      -5.619   2.889  25.506  0.00  0.00    -0.013 C 
ATOM     15  C   UNL     1      -5.892   1.956  26.682  0.00  0.00    +0.007 C 
ATOM     16  C   UNL     1      -6.253   4.256  25.741  0.00  0.00    +0.007 C 
ENDBRANCH   6  10
BRANCH   7  13
ATOM     13  C   UNL     1      -3.999   2.430  22.806  0.00  0.00    +0.112 C 
BRANCH  13   2
ATOM      1  O   UNL     1      -5.188   0.067  23.978  0.00  0.00    -0.274 OA
ATOM      2  N   UNL     1      -3.330   1.231  23.205  0.00  0.00    -0.314 N 
ATOM     19  C   UNL     1      -3.978   0.130  23.766  0.00  0.00    +0.227 C 
ATOM     30  H   UNL     1      -2.335   1.158  23.013  0.00  0.00    +0.149 HD
BRANCH  19  22
ATOM     22  C   UNL     1      -3.018  -0.988  24.119  0.00  0.00    +0.180 C 
BRANCH  22   5
ATOM      5  N   UNL     1      -3.645  -1.847  25.114  0.00  0.00    -0.300 NA
ATOM     28  C   UNL     1      -3.162  -1.519  26.458  0.00  0.00    +0.105 C 
ATOM     29  C   UNL     1      -3.392  -3.257  24.815  0.00  0.00    +0.105 C 
ENDBRANCH  22   5
ENDBRANCH  19  22
ENDBRANCH  13   2
ENDBRANCH   7  13
BRANCH   9  14
ATOM     14  C   UNL     1      -1.265   2.891  26.767  0.00  0.00    +0.082 C 
BRANCH  14  18
ATOM      3  N   UNL     1       0.718   2.430  25.314  0.00  0.00    -0.342 N 
ATOM      4  N   UNL     1      -1.024   1.077  25.037  0.00  0.00    -0.232 NA
ATOM     18  C   UNL     1      -0.554   2.110  25.701  0.00  0.00    +0.109 A 
ATOM     20  C   UNL     1       1.093   1.546  24.335  0.00  0.00    +0.066 A 
ATOM     21  C   UNL     1      -0.011   0.712  24.181  0.00  0.00    +0.089 A 
ATOM     23  C   UNL     1       2.267   1.408  23.594  0.00  0.00    +0.031 A 
ATOM     24  C   UNL     1       0.043  -0.327  23.236  0.00  0.00    +0.030 A 
ATOM     25  C   UNL     1       2.303   0.369  22.659  0.00  0.00    -0.048 A 
ATOM     26  C   UNL     1       1.212  -0.484  22.480  0.00  0.00    +0.005 A 
ATOM     27  C   UNL     1       3.533   0.170  21.835  0.00  0.00    +0.044 C 
ATOM     31  H   UNL     1       1.283   3.183  25.682  0.00  0.00    +0.167 HD
ENDBRANCH  14  18
ENDBRANCH   9  14
TORSDOF 7
ENDMDL
MODEL 4
REMARK VINA RESULT:      -1.3      1.880      7.547
REMARK  Name = 71693044
REMARK  13 active torsions:
REMARK  status: ('A' for Active; 'I' for Inactive)
REMARK    1  A    between atoms: N_2  and  C_13
REMARK    2  A    between atoms: N_5  and  C_22
REMARK    3  A    between atoms: N_5  and  C_28
REMARK    4  A    between atoms: N_5  and  C_29
REMARK    5  A    between atoms: C_6  and  C_10
REMARK    6  A    between atoms: C_7  and  C_13
REMARK    7  A    between atoms: C_9  and  C_14
REMARK    8  A    between atoms: C_10  and  C_15
REMARK    9  A    between atoms: C_10  and  C_16
REMARK   10  A    between atoms: C_11  and  C_17
REMARK   11  A    between atoms: C_14  and  C_18
REMARK   12  A    between atoms: C_19  and  C_22
REMARK   13  A    between atoms: C_25  and  C_27
REMARK                            x       y       z     vdW  Elec       q    Type
REMARK                         _______ _______ _______ _____ _____    ______ ____
ROOT
ATOM      6  C   UNL     1      -3.258  -1.367  24.352  0.00  0.00    +0.000 C 
ATOM      7  C   UNL     1      -3.709  -0.269  25.346  0.00  0.00    +0.032 C 
ATOM      8  C   UNL     1      -1.871  -1.902  24.738  0.00  0.00    +0.012 C 
ATOM      9  C   UNL     1      -0.803  -0.791  24.756  0.00  0.00    +0.022 C 
ATOM     11  C   UNL     1      -1.283   0.439  25.497  0.00  0.00    -0.073 C 
ATOM     12  C   UNL     1      -2.584   0.650  25.764  0.00  0.00    -0.022 C 
ATOM     17  C   UNL     1      -0.228   1.403  25.965  0.00  0.00    +0.039 C 
ENDROOT
BRANCH   6  10
ATOM     10  C   UNL     1      -4.260  -2.524  24.289  0.00  0.00    -0.013 C 
ATOM     15  C   UNL     1      -4.755  -2.722  22.859  0.00  0.00    +0.007 C 
ATOM     16  C   UNL     1      -3.629  -3.804  24.826  0.00  0.00    +0.007 C 
ENDBRANCH   6  10
BRANCH   7  13
ATOM     13  C   UNL     1      -4.859   0.564  24.767  0.00  0.00    +0.112 C 
BRANCH  13   2
ATOM      1  O   UNL     1      -3.310   2.112  22.877  0.00  0.00    -0.274 OA
ATOM      2  N   UNL     1      -4.558   1.960  24.832  0.00  0.00    -0.314 N 
ATOM     19  C   UNL     1      -3.800   2.637  23.876  0.00  0.00    +0.227 C 
ATOM     30  H   UNL     1      -4.971   2.498  25.589  0.00  0.00    +0.149 HD
BRANCH  19  22
ATOM     22  C   UNL     1      -3.614   4.102  24.215  0.00  0.00    +0.180 C 
BRANCH  22   5
ATOM      5  N   UNL     1      -2.581   4.220  25.234  0.00  0.00    -0.300 NA
ATOM     28  C   UNL     1      -3.179   4.394  26.560  0.00  0.00    +0.105 C 
ATOM     29  C   UNL     1      -1.682   5.335  24.933  0.00  0.00    +0.105 C 
ENDBRANCH  22   5
ENDBRANCH  19  22
ENDBRANCH  13   2
ENDBRANCH   7  13
BRANCH   9  14
ATOM     14  C   UNL     1      -0.351  -0.436  23.335  0.00  0.00    +0.082 C 
BRANCH  14  18
ATOM      3  N   UNL     1       2.018  -1.142  23.721  0.00  0.00    -0.342 N 
ATOM      4  N   UNL     1       1.740   0.864  22.804  0.00  0.00    -0.232 NA
ATOM     18  C   UNL     1       1.131  -0.203  23.271  0.00  0.00    +0.109 A 
ATOM     20  C   UNL     1       3.282  -0.647  23.532  0.00  0.00    +0.066 A 
ATOM     21  C   UNL     1       3.082   0.605  22.958  0.00  0.00    +0.089 A 
ATOM     23  C   UNL     1       4.546  -1.172  23.805  0.00  0.00    +0.031 A 
ATOM     24  C   UNL     1       4.199   1.394  22.630  0.00  0.00    +0.030 A 
ATOM     25  C   UNL     1       5.645  -0.373  23.472  0.00  0.00    -0.048 A 
ATOM     26  C   UNL     1       5.477   0.887  22.896  0.00  0.00    +0.005 A 
ATOM     27  C   UNL     1       7.024  -0.881  23.740  0.00  0.00    +0.044 C 
ATOM     31  H   UNL     1       1.785  -2.041  24.122  0.00  0.00    +0.167 HD
ENDBRANCH  14  18
ENDBRANCH   9  14
TORSDOF 7
ENDMDL
MODEL 5
REMARK VINA RESULT:       0.1      2.269      8.182
REMARK  Name = 71693044
REMARK  13 active torsions:
REMARK  status: ('A' for Active; 'I' for Inactive)
REMARK    1  A    between atoms: N_2  and  C_13
REMARK    2  A    between atoms: N_5  and  C_22
REMARK    3  A    between atoms: N_5  and  C_28
REMARK    4  A    between atoms: N_5  and  C_29
REMARK    5  A    between atoms: C_6  and  C_10
REMARK    6  A    between atoms: C_7  and  C_13
REMARK    7  A    between atoms: C_9  and  C_14
REMARK    8  A    between atoms: C_10  and  C_15
REMARK    9  A    between atoms: C_10  and  C_16
REMARK   10  A    between atoms: C_11  and  C_17
REMARK   11  A    between atoms: C_14  and  C_18
REMARK   12  A    between atoms: C_19  and  C_22
REMARK   13  A    between atoms: C_25  and  C_27
REMARK                            x       y       z     vdW  Elec       q    Type
REMARK                         _______ _______ _______ _____ _____    ______ ____
ROOT
ATOM      6  C   UNL     1      -2.505  -1.034  24.286  0.00  0.00    +0.000 C 
ATOM      7  C   UNL     1      -3.350   0.063  24.979  0.00  0.00    +0.032 C 
ATOM      8  C   UNL     1      -1.132  -1.160  24.963  0.00  0.00    +0.012 C 
ATOM      9  C   UNL     1      -0.341   0.161  24.926  0.00  0.00    +0.022 C 
ATOM     11  C   UNL     1      -1.195   1.341  25.344  0.00  0.00    -0.073 C 
ATOM     12  C   UNL     1      -2.538   1.275  25.374  0.00  0.00    -0.022 C 
ATOM     17  C   UNL     1      -0.468   2.586  25.769  0.00  0.00    +0.039 C 
ENDROOT
BRANCH   6  10
ATOM     10  C   UNL     1      -3.215  -2.391  24.297  0.00  0.00    -0.013 C 
ATOM     15  C   UNL     1      -3.353  -2.908  25.727  0.00  0.00    +0.007 C 
ATOM     16  C   UNL     1      -4.581  -2.283  23.626  0.00  0.00    +0.007 C 
ENDBRANCH   6  10
BRANCH   7  13
ATOM     13  C   UNL     1      -4.522   0.502  24.092  0.00  0.00    +0.112 C 
BRANCH  13   2
ATOM      1  O   UNL     1      -6.061   1.660  26.250  0.00  0.00    -0.274 OA
ATOM      2  N   UNL     1      -4.822   1.885  24.297  0.00  0.00    -0.314 N 
ATOM     19  C   UNL     1      -5.575   2.366  25.369  0.00  0.00    +0.227 C 
ATOM     30  H   UNL     1      -4.412   2.558  23.655  0.00  0.00    +0.149 HD
BRANCH  19  22
ATOM     22  C   UNL     1      -5.761   3.869  25.317  0.00  0.00    +0.180 C 
BRANCH  22   5
ATOM      5  N   UNL     1      -4.451   4.504  25.333  0.00  0.00    -0.300 NA
ATOM     28  C   UNL     1      -3.701   4.172  24.119  0.00  0.00    +0.105 C 
ATOM     29  C   UNL     1      -3.694   4.102  26.521  0.00  0.00    +0.105 C 
ENDBRANCH  22   5
ENDBRANCH  19  22
ENDBRANCH  13   2
ENDBRANCH   7  13
BRANCH   9  14
ATOM     14  C   UNL     1       0.281   0.395  23.544  0.00  0.00    +0.082 C 
BRANCH  14  18
ATOM      3  N   UNL     1       2.705   0.955  23.285  0.00  0.00    -0.342 N 
ATOM      4  N   UNL     1       2.242  -1.174  23.725  0.00  0.00    -0.232 NA
ATOM     18  C   UNL     1       1.735   0.022  23.525  0.00  0.00    +0.109 A 
ATOM     20  C   UNL     1       3.918   0.318  23.333  0.00  0.00    +0.066 A 
ATOM     21  C   UNL     1       3.603  -1.009  23.609  0.00  0.00    +0.089 A 
ATOM     23  C   UNL     1       5.226   0.776  23.164  0.00  0.00    +0.031 A 
ATOM     24  C   UNL     1       4.641  -1.949  23.727  0.00  0.00    +0.030 A 
ATOM     25  C   UNL     1       6.246  -0.173  23.285  0.00  0.00    -0.048 A 
ATOM     26  C   UNL     1       5.961  -1.512  23.560  0.00  0.00    +0.005 A 
ATOM     27  C   UNL     1       7.666   0.256  23.114  0.00  0.00    +0.044 C 
ATOM     31  H   UNL     1       2.556   1.939  23.105  0.00  0.00    +0.167 HD
ENDBRANCH  14  18
ENDBRANCH   9  14
TORSDOF 7
ENDMDL
