MODEL 1
REMARK VINA RESULT:      -1.8      0.000      0.000
REMARK  Name = 45361417
REMARK  14 active torsions:
REMARK  status: ('A' for Active; 'I' for Inactive)
REMARK    1  A    between atoms: O_2  and  C_10
REMARK    2  A    between atoms: N_5  and  C_14
REMARK    3  A    between atoms: N_6  and  C_25
REMARK    4  A    between atoms: C_7  and  C_17
REMARK    5  A    between atoms: C_9  and  C_19
REMARK    6  A    between atoms: C_13  and  C_18
REMARK    7  A    between atoms: C_18  and  C_20
REMARK    8  A    between atoms: C_18  and  C_21
REMARK    9  A    between atoms: C_22  and  C_23
REMARK   10  A    between atoms: C_23  and  C_24
REMARK   11  A    between atoms: C_24  and  C_26
REMARK   12  A    between atoms: C_24  and  C_27
REMARK   13  A    between atoms: C_24  and  C_28
REMARK   14  A    between atoms: C_25  and  C_29
REMARK                            x       y       z     vdW  Elec       q    Type
REMARK                         _______ _______ _______ _____ _____    ______ ____
ROOT
ATOM      7  C   UNL     1      -2.182  -0.977  25.064  0.00  0.00    -0.027 C 
ATOM      8  C   UNL     1      -2.223   0.268  24.115  0.00  0.00    +0.028 C 
ATOM      9  C   UNL     1      -0.796   0.907  23.969  0.00  0.00    +0.012 C 
ATOM     10  C   UNL     1      -3.357   1.251  24.525  0.00  0.00    +0.122 C 
ATOM     11  C   UNL     1      -3.575  -1.648  25.097  0.00  0.00    +0.007 C 
ATOM     12  C   UNL     1      -1.177  -2.007  24.500  0.00  0.00    +0.009 C 
ATOM     13  C   UNL     1      -4.731   0.552  24.658  0.00  0.00    +0.029 C 
ATOM     14  C   UNL     1       0.223  -0.158  23.472  0.00  0.00    +0.076 C 
ATOM     15  C   UNL     1      -4.681  -0.698  25.536  0.00  0.00    +0.007 C 
ATOM     16  C   UNL     1       0.222  -1.437  24.310  0.00  0.00    +0.023 C 
ATOM     17  C   UNL     1      -1.774  -0.606  26.512  0.00  0.00    +0.011 C 
ATOM     19  C   UNL     1      -0.759   2.120  23.024  0.00  0.00    +0.010 C 
ENDROOT
BRANCH  14   5
ATOM      4  O   UNL     1       2.145  -0.402  21.320  0.00  0.00    -0.276 OA
ATOM      5  N   UNL     1       1.572   0.367  23.436  0.00  0.00    -0.312 N 
ATOM     22  C   UNL     1       2.420   0.197  22.357  0.00  0.00    +0.214 C 
ATOM     35  H   UNL     1       1.910   0.849  24.263  0.00  0.00    +0.149 HD
BRANCH  22  23
ATOM     23  C   UNL     1       3.783   0.835  22.570  0.00  0.00    +0.102 C 
BRANCH  23  24
ATOM     24  C   UNL     1       4.803  -0.055  23.320  0.00  0.00    -0.029 C 
ATOM     26  C   UNL     1       5.357   0.652  24.567  0.00  0.00    +0.011 C 
ATOM     27  C   UNL     1       5.976  -0.348  22.363  0.00  0.00    +0.011 C 
ATOM     28  C   UNL     1       4.169  -1.394  23.734  0.00  0.00    +0.011 C 
ENDBRANCH  23  24
ENDBRANCH  22  23
ENDBRANCH  14   5
BRANCH  10   2
ATOM      2  O   UNL     1      -3.505   2.254  23.520  0.00  0.00    -0.391 OA
ATOM     36  H   UNL     1      -2.707   2.244  22.964  0.00  0.00    +0.210 HD
ENDBRANCH  10   2
BRANCH  13  18
ATOM     18  C   UNL     1      -5.806   1.509  25.188  0.00  0.00    +0.077 C 
ATOM     20  C   UNL     1      -6.941   1.634  24.176  0.00  0.00    +0.017 C 
BRANCH  18  21
ATOM      3  O   UNL     1      -5.453   3.882  24.860  0.00  0.00    -0.276 OA
ATOM      6  N   UNL     1      -4.305   2.815  26.570  0.00  0.00    -0.311 N 
ATOM     21  C   UNL     1      -5.186   2.867  25.500  0.00  0.00    +0.216 C 
ATOM     37  H   UNL     1      -4.178   1.948  27.081  0.00  0.00    +0.149 HD
BRANCH   6  25
ATOM     25  C   UNL     1      -3.593   3.976  27.052  0.00  0.00    +0.139 C 
BRANCH  25  29
ATOM      1  F   UNL     1       0.689   5.371  23.672  0.00  0.00    -0.205 F 
ATOM     29  C   UNL     1      -2.451   4.348  26.152  0.00  0.00    -0.030 A 
ATOM     30  C   UNL     1      -2.553   5.463  25.321  0.00  0.00    +0.008 A 
ATOM     31  C   UNL     1      -1.288   3.578  26.145  0.00  0.00    +0.008 A 
ATOM     32  C   UNL     1      -1.493   5.809  24.483  0.00  0.00    +0.038 A 
ATOM     33  C   UNL     1      -0.227   3.923  25.307  0.00  0.00    +0.038 A 
ATOM     34  C   UNL     1      -0.330   5.039  24.476  0.00  0.00    +0.123 A 
ENDBRANCH  25  29
ENDBRANCH   6  25
ENDBRANCH  18  21
ENDBRANCH  13  18
TORSDOF 8
ENDMDL
