MODEL 1
REMARK VINA RESULT:      -2.0      0.000      0.000
REMARK  Name = 26743848
REMARK  6 active torsions:
REMARK  status: ('A' for Active; 'I' for Inactive)
REMARK    1  A    between atoms: O_1  and  C_9
REMARK    2  A    between atoms: N_3  and  C_11
REMARK    3  A    between atoms: C_7  and  C_12
REMARK    4  A    between atoms: C_11  and  C_13
REMARK    5  A    between atoms: C_17  and  C_20
REMARK    6  A    between atoms: C_25  and  C_28
REMARK                            x       y       z     vdW  Elec       q    Type
REMARK                         _______ _______ _______ _____ _____    ______ ____
ROOT
ATOM      3  N   UNL     1      -3.358  -0.548  24.623  0.00  0.00    -0.285 NA
ATOM      7  C   UNL     1      -2.128  -1.361  24.715  0.00  0.00    +0.149 C 
ATOM      8  C   UNL     1      -2.474  -2.682  24.004  0.00  0.00    +0.061 C 
ATOM      9  C   UNL     1      -3.932  -2.535  23.586  0.00  0.00    +0.130 C 
ATOM     10  C   UNL     1      -4.472  -1.490  24.545  0.00  0.00    +0.116 C 
ENDROOT
BRANCH   7  12
ATOM      2  O   UNL     1      -1.181   0.394  23.302  0.00  0.00    -0.336 OA
ATOM      4  N   UNL     1       0.347  -0.941  24.252  0.00  0.00    -0.190 NA
ATOM      6  N   UNL     1       0.068   0.861  22.870  0.00  0.00    -0.056 NA
ATOM     12  C   UNL     1      -0.925  -0.668  24.111  0.00  0.00    +0.245 A 
ATOM     17  C   UNL     1       0.917   0.023  23.472  0.00  0.00    +0.202 A 
BRANCH  17  20
ATOM     20  C   UNL     1       2.340   0.123  23.317  0.00  0.00    +0.023 A 
ATOM     23  C   UNL     1       3.162  -0.924  23.732  0.00  0.00    +0.015 A 
ATOM     24  C   UNL     1       2.900   1.266  22.748  0.00  0.00    +0.012 A 
ATOM     25  C   UNL     1       4.546  -0.828  23.579  0.00  0.00    -0.050 A 
ATOM     26  C   UNL     1       4.283   1.364  22.595  0.00  0.00    +0.001 A 
ATOM     27  C   UNL     1       5.106   0.316  23.011  0.00  0.00    +0.003 A 
ATOM     28  C   UNL     1       5.426  -1.946  24.023  0.00  0.00    +0.044 C 
ENDBRANCH  17  20
ENDBRANCH   7  12
BRANCH   9   1
ATOM      1  O   UNL     1      -4.618  -3.766  23.710  0.00  0.00    -0.390 OA
ATOM     29  H   UNL     1      -4.447  -4.105  24.606  0.00  0.00    +0.210 HD
ENDBRANCH   9   1
BRANCH   3  11
ATOM     11  C   UNL     1      -3.510   0.392  25.726  0.00  0.00    +0.122 C 
BRANCH  11  13
ATOM      5  N   UNL     1      -4.292   3.736  24.404  0.00  0.00    -0.360 N 
ATOM     13  C   UNL     1      -3.555   1.817  25.245  0.00  0.00    -0.008 A 
ATOM     14  C   UNL     1      -2.478   2.747  25.246  0.00  0.00    +0.004 A 
ATOM     15  C   UNL     1      -4.657   2.454  24.720  0.00  0.00    +0.088 A 
ATOM     16  C   UNL     1      -2.967   3.942  24.714  0.00  0.00    +0.047 A 
ATOM     18  C   UNL     1      -1.130   2.686  25.652  0.00  0.00    +0.010 A 
ATOM     19  C   UNL     1      -2.172   5.084  24.566  0.00  0.00    +0.026 A 
ATOM     21  C   UNL     1      -0.323   3.821  25.509  0.00  0.00    +0.001 A 
ATOM     22  C   UNL     1      -0.837   5.000  24.974  0.00  0.00    +0.002 A 
ATOM     30  H   UNL     1      -4.906   4.430  24.001  0.00  0.00    +0.165 HD
ENDBRANCH  11  13
ENDBRANCH   3  11
TORSDOF 5
ENDMDL
MODEL 2
REMARK VINA RESULT:      -1.0      2.351      5.051
REMARK  Name = 26743848
REMARK  6 active torsions:
REMARK  status: ('A' for Active; 'I' for Inactive)
REMARK    1  A    between atoms: O_1  and  C_9
REMARK    2  A    between atoms: N_3  and  C_11
REMARK    3  A    between atoms: C_7  and  C_12
REMARK    4  A    between atoms: C_11  and  C_13
REMARK    5  A    between atoms: C_17  and  C_20
REMARK    6  A    between atoms: C_25  and  C_28
REMARK                            x       y       z     vdW  Elec       q    Type
REMARK                         _______ _______ _______ _____ _____    ______ ____
ROOT
ATOM      3  N   UNL     1      -4.593   2.085  25.565  0.00  0.00    -0.285 NA
ATOM      7  C   UNL     1      -4.034   2.685  24.336  0.00  0.00    +0.149 C 
ATOM      8  C   UNL     1      -4.405   4.178  24.422  0.00  0.00    +0.061 C 
ATOM      9  C   UNL     1      -5.207   4.311  25.710  0.00  0.00    +0.130 C 
ATOM     10  C   UNL     1      -5.739   2.909  25.943  0.00  0.00    +0.116 C 
ENDROOT
BRANCH   7  12
ATOM      2  O   UNL     1      -1.737   3.312  24.885  0.00  0.00    -0.336 OA
ATOM      4  N   UNL     1      -1.901   1.549  23.513  0.00  0.00    -0.190 NA
ATOM      6  N   UNL     1      -0.424   2.910  24.610  0.00  0.00    -0.056 NA
ATOM     12  C   UNL     1      -2.544   2.459  24.201  0.00  0.00    +0.245 A 
ATOM     17  C   UNL     1      -0.604   1.866  23.794  0.00  0.00    +0.202 A 
BRANCH  17  20
ATOM     20  C   UNL     1       0.490   1.118  23.246  0.00  0.00    +0.023 A 
ATOM     23  C   UNL     1       1.801   1.534  23.471  0.00  0.00    +0.015 A 
ATOM     24  C   UNL     1       0.242  -0.027  22.489  0.00  0.00    +0.012 A 
ATOM     25  C   UNL     1       2.866   0.805  22.939  0.00  0.00    -0.050 A 
ATOM     26  C   UNL     1       1.305  -0.756  21.956  0.00  0.00    +0.001 A 
ATOM     27  C   UNL     1       2.618  -0.340  22.182  0.00  0.00    +0.003 A 
ATOM     28  C   UNL     1       4.269   1.249  23.178  0.00  0.00    +0.044 C 
ENDBRANCH  17  20
ENDBRANCH   7  12
BRANCH   9   1
ATOM      1  O   UNL     1      -6.254   5.250  25.556  0.00  0.00    -0.390 OA
ATOM     29  H   UNL     1      -6.263   5.524  24.623  0.00  0.00    +0.210 HD
ENDBRANCH   9   1
BRANCH   3  11
ATOM     11  C   UNL     1      -4.953   0.682  25.407  0.00  0.00    +0.122 C 
BRANCH  11  13
ATOM      5  N   UNL     1      -1.711  -1.018  25.774  0.00  0.00    -0.360 N 
ATOM     13  C   UNL     1      -3.740  -0.208  25.379  0.00  0.00    -0.008 A 
ATOM     14  C   UNL     1      -3.596  -1.423  24.651  0.00  0.00    +0.004 A 
ATOM     15  C   UNL     1      -2.564   0.015  26.058  0.00  0.00    +0.088 A 
ATOM     16  C   UNL     1      -2.315  -1.909  24.916  0.00  0.00    +0.047 A 
ATOM     18  C   UNL     1      -4.437  -2.156  23.791  0.00  0.00    +0.010 A 
ATOM     19  C   UNL     1      -1.830  -3.099  24.361  0.00  0.00    +0.026 A 
ATOM     21  C   UNL     1      -3.965  -3.348  23.228  0.00  0.00    +0.001 A 
ATOM     22  C   UNL     1      -2.682  -3.811  23.510  0.00  0.00    +0.002 A 
ATOM     30  H   UNL     1      -0.773  -1.113  26.139  0.00  0.00    +0.165 HD
ENDBRANCH  11  13
ENDBRANCH   3  11
TORSDOF 5
ENDMDL
MODEL 3
REMARK VINA RESULT:      -1.0      2.285      4.506
REMARK  Name = 26743848
REMARK  6 active torsions:
REMARK  status: ('A' for Active; 'I' for Inactive)
REMARK    1  A    between atoms: O_1  and  C_9
REMARK    2  A    between atoms: N_3  and  C_11
REMARK    3  A    between atoms: C_7  and  C_12
REMARK    4  A    between atoms: C_11  and  C_13
REMARK    5  A    between atoms: C_17  and  C_20
REMARK    6  A    between atoms: C_25  and  C_28
REMARK                            x       y       z     vdW  Elec       q    Type
REMARK                         _______ _______ _______ _____ _____    ______ ____
ROOT
ATOM      3  N   UNL     1      -4.511   2.010  25.836  0.00  0.00    -0.285 NA
ATOM      7  C   UNL     1      -3.950   2.295  24.500  0.00  0.00    +0.149 C 
ATOM      8  C   UNL     1      -4.253   3.785  24.255  0.00  0.00    +0.061 C 
ATOM      9  C   UNL     1      -5.024   4.239  25.488  0.00  0.00    +0.130 C 
ATOM     10  C   UNL     1      -5.612   2.951  26.032  0.00  0.00    +0.116 C 
ENDROOT
BRANCH   7  12
ATOM      2  O   UNL     1      -1.701   2.367  25.453  0.00  0.00    -0.336 OA
ATOM      4  N   UNL     1      -1.815   1.365  23.453  0.00  0.00    -0.190 NA
ATOM      6  N   UNL     1      -0.395   1.967  25.143  0.00  0.00    -0.056 NA
ATOM     12  C   UNL     1      -2.474   1.974  24.406  0.00  0.00    +0.245 A 
ATOM     17  C   UNL     1      -0.545   1.384  23.949  0.00  0.00    +0.202 A 
BRANCH  17  20
ATOM     20  C   UNL     1       0.554   0.810  23.228  0.00  0.00    +0.023 A 
ATOM     23  C   UNL     1       1.862   1.181  23.539  0.00  0.00    +0.015 A 
ATOM     24  C   UNL     1       0.315  -0.119  22.216  0.00  0.00    +0.012 A 
ATOM     25  C   UNL     1       2.932   0.621  22.839  0.00  0.00    -0.050 A 
ATOM     26  C   UNL     1       1.384  -0.679  21.515  0.00  0.00    +0.001 A 
ATOM     27  C   UNL     1       2.692  -0.308  21.827  0.00  0.00    +0.003 A 
ATOM     28  C   UNL     1       4.331   1.017  23.171  0.00  0.00    +0.044 C 
ENDBRANCH  17  20
ENDBRANCH   7  12
BRANCH   9   1
ATOM      1  O   UNL     1      -6.031   5.169  25.137  0.00  0.00    -0.390 OA
ATOM     29  H   UNL     1      -6.648   5.226  25.886  0.00  0.00    +0.210 HD
ENDBRANCH   9   1
BRANCH   3  11
ATOM     11  C   UNL     1      -4.936   0.626  25.998  0.00  0.00    +0.122 C 
BRANCH  11  13
ATOM      5  N   UNL     1      -3.614  -1.590  23.375  0.00  0.00    -0.360 N 
ATOM     13  C   UNL     1      -4.168  -0.304  25.099  0.00  0.00    -0.008 A 
ATOM     14  C   UNL     1      -2.881  -0.859  25.352  0.00  0.00    +0.004 A 
ATOM     15  C   UNL     1      -4.592  -0.774  23.876  0.00  0.00    +0.088 A 
ATOM     16  C   UNL     1      -2.558  -1.661  24.256  0.00  0.00    +0.047 A 
ATOM     18  C   UNL     1      -1.959  -0.753  26.411  0.00  0.00    +0.010 A 
ATOM     19  C   UNL     1      -1.353  -2.367  24.166  0.00  0.00    +0.026 A 
ATOM     21  C   UNL     1      -0.749  -1.454  26.336  0.00  0.00    +0.001 A 
ATOM     22  C   UNL     1      -0.453  -2.247  25.230  0.00  0.00    +0.002 A 
ATOM     30  H   UNL     1      -3.659  -2.072  22.488  0.00  0.00    +0.165 HD
ENDBRANCH  11  13
ENDBRANCH   3  11
TORSDOF 5
ENDMDL
MODEL 4
REMARK VINA RESULT:      -0.9      1.686      4.876
REMARK  Name = 26743848
REMARK  6 active torsions:
REMARK  status: ('A' for Active; 'I' for Inactive)
REMARK    1  A    between atoms: O_1  and  C_9
REMARK    2  A    between atoms: N_3  and  C_11
REMARK    3  A    between atoms: C_7  and  C_12
REMARK    4  A    between atoms: C_11  and  C_13
REMARK    5  A    between atoms: C_17  and  C_20
REMARK    6  A    between atoms: C_25  and  C_28
REMARK                            x       y       z     vdW  Elec       q    Type
REMARK                         _______ _______ _______ _____ _____    ______ ____
ROOT
ATOM      3  N   UNL     1      -1.988   2.707  25.305  0.00  0.00    -0.285 NA
ATOM      7  C   UNL     1      -1.469   2.900  23.935  0.00  0.00    +0.149 C 
ATOM      8  C   UNL     1      -0.997   4.365  23.895  0.00  0.00    +0.061 C 
ATOM      9  C   UNL     1      -1.333   4.926  25.272  0.00  0.00    +0.130 C 
ATOM     10  C   UNL     1      -2.445   4.018  25.762  0.00  0.00    +0.116 C 
ENDROOT
BRANCH   7  12
ATOM      2  O   UNL     1      -0.748   0.795  22.925  0.00  0.00    -0.336 OA
ATOM      4  N   UNL     1       0.915   1.993  23.828  0.00  0.00    -0.190 NA
ATOM      6  N   UNL     1       0.423   0.055  22.715  0.00  0.00    -0.056 NA
ATOM     12  C   UNL     1      -0.369   1.921  23.586  0.00  0.00    +0.245 A 
ATOM     17  C   UNL     1       1.360   0.827  23.276  0.00  0.00    +0.202 A 
BRANCH  17  20
ATOM     20  C   UNL     1       2.747   0.463  23.300  0.00  0.00    +0.023 A 
ATOM     23  C   UNL     1       3.119  -0.844  23.614  0.00  0.00    +0.015 A 
ATOM     24  C   UNL     1       3.723   1.415  23.007  0.00  0.00    +0.012 A 
ATOM     25  C   UNL     1       4.469  -1.199  23.635  0.00  0.00    -0.050 A 
ATOM     26  C   UNL     1       5.072   1.061  23.028  0.00  0.00    +0.001 A 
ATOM     27  C   UNL     1       5.445  -0.247  23.342  0.00  0.00    +0.003 A 
ATOM     28  C   UNL     1       4.868  -2.596  23.971  0.00  0.00    +0.044 C 
ENDBRANCH  17  20
ENDBRANCH   7  12
BRANCH   9   1
ATOM      1  O   UNL     1      -1.757   6.272  25.176  0.00  0.00    -0.390 OA
ATOM     29  H   UNL     1      -2.485   6.302  24.532  0.00  0.00    +0.210 HD
ENDBRANCH   9   1
BRANCH   3  11
ATOM     11  C   UNL     1      -3.039   1.701  25.384  0.00  0.00    +0.122 C 
BRANCH  11  13
ATOM      5  N   UNL     1      -1.135  -1.428  25.728  0.00  0.00    -0.360 N 
ATOM     13  C   UNL     1      -2.479   0.305  25.380  0.00  0.00    -0.008 A 
ATOM     14  C   UNL     1      -3.076  -0.847  24.795  0.00  0.00    +0.004 A 
ATOM     15  C   UNL     1      -1.285  -0.085  25.945  0.00  0.00    +0.088 A 
ATOM     16  C   UNL     1      -2.213  -1.920  25.028  0.00  0.00    +0.047 A 
ATOM     18  C   UNL     1      -4.273  -1.080  24.089  0.00  0.00    +0.010 A 
ATOM     19  C   UNL     1      -2.488  -3.220  24.587  0.00  0.00    +0.026 A 
ATOM     21  C   UNL     1      -4.561  -2.375  23.642  0.00  0.00    +0.001 A 
ATOM     22  C   UNL     1      -3.682  -3.427  23.888  0.00  0.00    +0.002 A 
ATOM     30  H   UNL     1      -0.347  -1.981  26.037  0.00  0.00    +0.165 HD
ENDBRANCH  11  13
ENDBRANCH   3  11
TORSDOF 5
ENDMDL
MODEL 5
REMARK VINA RESULT:      -0.7      3.183      5.764
REMARK  Name = 26743848
REMARK  6 active torsions:
REMARK  status: ('A' for Active; 'I' for Inactive)
REMARK    1  A    between atoms: O_1  and  C_9
REMARK    2  A    between atoms: N_3  and  C_11
REMARK    3  A    between atoms: C_7  and  C_12
REMARK    4  A    between atoms: C_11  and  C_13
REMARK    5  A    between atoms: C_17  and  C_20
REMARK    6  A    between atoms: C_25  and  C_28
REMARK                            x       y       z     vdW  Elec       q    Type
REMARK                         _______ _______ _______ _____ _____    ______ ____
ROOT
ATOM      3  N   UNL     1      -3.923   2.030  24.676  0.00  0.00    -0.285 NA
ATOM      7  C   UNL     1      -3.101   3.258  24.684  0.00  0.00    +0.149 C 
ATOM      8  C   UNL     1      -3.939   4.288  25.464  0.00  0.00    +0.061 C 
ATOM      9  C   UNL     1      -5.231   3.561  25.815  0.00  0.00    +0.130 C 
ATOM     10  C   UNL     1      -5.315   2.464  24.770  0.00  0.00    +0.116 C 
ENDROOT
BRANCH   7  12
ATOM      2  O   UNL     1      -0.728   2.736  24.423  0.00  0.00    -0.336 OA
ATOM      4  N   UNL     1      -1.358   3.095  26.543  0.00  0.00    -0.190 NA
ATOM      6  N   UNL     1       0.425   2.580  25.204  0.00  0.00    -0.056 NA
ATOM     12  C   UNL     1      -1.731   3.038  25.289  0.00  0.00    +0.245 A 
ATOM     17  C   UNL     1      -0.028   2.807  26.441  0.00  0.00    +0.202 A 
BRANCH  17  20
ATOM     20  C   UNL     1       0.822   2.756  27.595  0.00  0.00    +0.023 A 
ATOM     23  C   UNL     1       0.269   2.565  28.861  0.00  0.00    +0.015 A 
ATOM     24  C   UNL     1       2.202   2.895  27.451  0.00  0.00    +0.012 A 
ATOM     25  C   UNL     1       1.096   2.512  29.983  0.00  0.00    -0.050 A 
ATOM     26  C   UNL     1       3.030   2.844  28.573  0.00  0.00    +0.001 A 
ATOM     27  C   UNL     1       2.477   2.652  29.839  0.00  0.00    +0.003 A 
ATOM     28  C   UNL     1       0.506   2.308  31.337  0.00  0.00    +0.044 C 
ENDBRANCH  17  20
ENDBRANCH   7  12
BRANCH   9   1
ATOM      1  O   UNL     1      -6.338   4.440  25.742  0.00  0.00    -0.390 OA
ATOM     29  H   UNL     1      -6.986   4.147  26.405  0.00  0.00    +0.210 HD
ENDBRANCH   9   1
BRANCH   3  11
ATOM     11  C   UNL     1      -3.687   1.189  23.510  0.00  0.00    +0.122 C 
BRANCH  11  13
ATOM      5  N   UNL     1      -3.974  -2.398  24.281  0.00  0.00    -0.360 N 
ATOM     13  C   UNL     1      -3.525  -0.259  23.888  0.00  0.00    -0.008 A 
ATOM     14  C   UNL     1      -2.328  -0.892  24.326  0.00  0.00    +0.004 A 
ATOM     15  C   UNL     1      -4.520  -1.210  23.872  0.00  0.00    +0.088 A 
ATOM     16  C   UNL     1      -2.637  -2.232  24.565  0.00  0.00    +0.047 A 
ATOM     18  C   UNL     1      -1.007  -0.451  24.541  0.00  0.00    +0.010 A 
ATOM     19  C   UNL     1      -1.687  -3.158  25.012  0.00  0.00    +0.026 A 
ATOM     21  C   UNL     1      -0.046  -1.366  24.988  0.00  0.00    +0.001 A 
ATOM     22  C   UNL     1      -0.383  -2.698  25.219  0.00  0.00    +0.002 A 
ATOM     30  H   UNL     1      -4.478  -3.270  24.363  0.00  0.00    +0.165 HD
ENDBRANCH  11  13
ENDBRANCH   3  11
TORSDOF 5
ENDMDL
MODEL 6
REMARK VINA RESULT:      -0.6      2.486      6.921
REMARK  Name = 26743848
REMARK  6 active torsions:
REMARK  status: ('A' for Active; 'I' for Inactive)
REMARK    1  A    between atoms: O_1  and  C_9
REMARK    2  A    between atoms: N_3  and  C_11
REMARK    3  A    between atoms: C_7  and  C_12
REMARK    4  A    between atoms: C_11  and  C_13
REMARK    5  A    between atoms: C_17  and  C_20
REMARK    6  A    between atoms: C_25  and  C_28
REMARK                            x       y       z     vdW  Elec       q    Type
REMARK                         _______ _______ _______ _____ _____    ______ ____
ROOT
ATOM      3  N   UNL     1       1.062   0.090  22.455  0.00  0.00    -0.285 NA
ATOM      7  C   UNL     1       1.250   0.709  23.782  0.00  0.00    +0.149 C 
ATOM      8  C   UNL     1       2.681   1.276  23.754  0.00  0.00    +0.061 C 
ATOM      9  C   UNL     1       3.232   0.888  22.387  0.00  0.00    +0.130 C 
ATOM     10  C   UNL     1       2.389  -0.310  21.993  0.00  0.00    +0.116 C 
ENDROOT
BRANCH   7  12
ATOM      2  O   UNL     1       0.582   3.057  23.897  0.00  0.00    -0.336 OA
ATOM      4  N   UNL     1      -1.021   1.619  24.513  0.00  0.00    -0.190 NA
ATOM      6  N   UNL     1      -0.531   3.837  24.239  0.00  0.00    -0.056 NA
ATOM     12  C   UNL     1       0.208   1.764  24.087  0.00  0.00    +0.245 A 
ATOM     17  C   UNL     1      -1.434   2.916  24.592  0.00  0.00    +0.202 A 
BRANCH  17  20
ATOM     20  C   UNL     1      -2.758   3.261  25.025  0.00  0.00    +0.023 A 
ATOM     23  C   UNL     1      -3.833   2.433  24.707  0.00  0.00    +0.015 A 
ATOM     24  C   UNL     1      -2.968   4.424  25.767  0.00  0.00    +0.012 A 
ATOM     25  C   UNL     1      -5.121   2.767  25.130  0.00  0.00    -0.050 A 
ATOM     26  C   UNL     1      -4.254   4.759  26.190  0.00  0.00    +0.001 A 
ATOM     27  C   UNL     1      -5.330   3.930  25.872  0.00  0.00    +0.003 A 
ATOM     28  C   UNL     1      -6.272   1.883  24.791  0.00  0.00    +0.044 C 
ENDBRANCH  17  20
ENDBRANCH   7  12
BRANCH   9   1
ATOM      1  O   UNL     1       4.605   0.558  22.474  0.00  0.00    -0.390 OA
ATOM     29  H   UNL     1       4.753  -0.223  21.914  0.00  0.00    +0.210 HD
ENDBRANCH   9   1
BRANCH   3  11
ATOM     11  C   UNL     1       0.125  -1.026  22.468  0.00  0.00    +0.122 C 
BRANCH  11  13
ATOM      5  N   UNL     1      -0.631  -1.695  26.007  0.00  0.00    -0.360 N 
ATOM     13  C   UNL     1      -0.456  -1.253  23.838  0.00  0.00    -0.008 A 
ATOM     14  C   UNL     1      -1.831  -1.178  24.199  0.00  0.00    +0.004 A 
ATOM     15  C   UNL     1       0.257  -1.574  24.971  0.00  0.00    +0.088 A 
ATOM     16  C   UNL     1      -1.912  -1.459  25.563  0.00  0.00    +0.047 A 
ATOM     18  C   UNL     1      -3.016  -0.895  23.492  0.00  0.00    +0.010 A 
ATOM     19  C   UNL     1      -3.126  -1.472  26.260  0.00  0.00    +0.026 A 
ATOM     21  C   UNL     1      -4.238  -0.906  24.175  0.00  0.00    +0.001 A 
ATOM     22  C   UNL     1      -4.290  -1.190  25.538  0.00  0.00    +0.002 A 
ATOM     30  H   UNL     1      -0.382  -1.924  26.959  0.00  0.00    +0.165 HD
ENDBRANCH  11  13
ENDBRANCH   3  11
TORSDOF 5
ENDMDL
MODEL 7
REMARK VINA RESULT:      -0.1      2.117      6.976
REMARK  Name = 26743848
REMARK  6 active torsions:
REMARK  status: ('A' for Active; 'I' for Inactive)
REMARK    1  A    between atoms: O_1  and  C_9
REMARK    2  A    between atoms: N_3  and  C_11
REMARK    3  A    between atoms: C_7  and  C_12
REMARK    4  A    between atoms: C_11  and  C_13
REMARK    5  A    between atoms: C_17  and  C_20
REMARK    6  A    between atoms: C_25  and  C_28
REMARK                            x       y       z     vdW  Elec       q    Type
REMARK                         _______ _______ _______ _____ _____    ______ ____
ROOT
ATOM      3  N   UNL     1       1.164  -0.644  23.607  0.00  0.00    -0.285 NA
ATOM      7  C   UNL     1       1.018   0.767  24.020  0.00  0.00    +0.149 C 
ATOM      8  C   UNL     1       2.040   1.536  23.162  0.00  0.00    +0.061 C 
ATOM      9  C   UNL     1       2.742   0.468  22.332  0.00  0.00    +0.130 C 
ATOM     10  C   UNL     1       2.541  -0.799  23.142  0.00  0.00    +0.116 C 
ENDROOT
BRANCH   7  12
ATOM      2  O   UNL     1      -0.938   1.160  22.609  0.00  0.00    -0.336 OA
ATOM      4  N   UNL     1      -1.189   1.835  24.730  0.00  0.00    -0.190 NA
ATOM      6  N   UNL     1      -2.229   1.696  22.696  0.00  0.00    -0.056 NA
ATOM     12  C   UNL     1      -0.395   1.281  23.849  0.00  0.00    +0.245 A 
ATOM     17  C   UNL     1      -2.302   2.073  23.977  0.00  0.00    +0.202 A 
BRANCH  17  20
ATOM     20  C   UNL     1      -3.472   2.688  24.535  0.00  0.00    +0.023 A 
ATOM     23  C   UNL     1      -4.435   1.905  25.170  0.00  0.00    +0.015 A 
ATOM     24  C   UNL     1      -3.645   4.068  24.443  0.00  0.00    +0.012 A 
ATOM     25  C   UNL     1      -5.572   2.503  25.715  0.00  0.00    -0.050 A 
ATOM     26  C   UNL     1      -4.781   4.667  24.986  0.00  0.00    +0.001 A 
ATOM     27  C   UNL     1      -5.745   3.884  25.623  0.00  0.00    +0.003 A 
ATOM     28  C   UNL     1      -6.603   1.667  26.395  0.00  0.00    +0.044 C 
ENDBRANCH  17  20
ENDBRANCH   7  12
BRANCH   9   1
ATOM      1  O   UNL     1       4.114   0.777  22.173  0.00  0.00    -0.390 OA
ATOM     29  H   UNL     1       4.208   1.740  22.269  0.00  0.00    +0.210 HD
ENDBRANCH   9   1
BRANCH   3  11
ATOM     11  C   UNL     1       0.832  -1.590  24.665  0.00  0.00    +0.122 C 
BRANCH  11  13
ATOM      5  N   UNL     1      -2.208  -0.618  26.496  0.00  0.00    -0.360 N 
ATOM     13  C   UNL     1      -0.547  -1.351  25.217  0.00  0.00    -0.008 A 
ATOM     14  C   UNL     1      -1.769  -1.869  24.701  0.00  0.00    +0.004 A 
ATOM     15  C   UNL     1      -0.850  -0.587  26.321  0.00  0.00    +0.088 A 
ATOM     16  C   UNL     1      -2.793  -1.395  25.522  0.00  0.00    +0.047 A 
ATOM     18  C   UNL     1      -2.100  -2.698  23.612  0.00  0.00    +0.010 A 
ATOM     19  C   UNL     1      -4.140  -1.710  25.306  0.00  0.00    +0.026 A 
ATOM     21  C   UNL     1      -3.443  -3.022  23.384  0.00  0.00    +0.001 A 
ATOM     22  C   UNL     1      -4.446  -2.535  24.219  0.00  0.00    +0.002 A 
ATOM     30  H   UNL     1      -2.708  -0.142  27.233  0.00  0.00    +0.165 HD
ENDBRANCH  11  13
ENDBRANCH   3  11
TORSDOF 5
ENDMDL
MODEL 8
REMARK VINA RESULT:       1.1      3.430      5.956
REMARK  Name = 26743848
REMARK  6 active torsions:
REMARK  status: ('A' for Active; 'I' for Inactive)
REMARK    1  A    between atoms: O_1  and  C_9
REMARK    2  A    between atoms: N_3  and  C_11
REMARK    3  A    between atoms: C_7  and  C_12
REMARK    4  A    between atoms: C_11  and  C_13
REMARK    5  A    between atoms: C_17  and  C_20
REMARK    6  A    between atoms: C_25  and  C_28
REMARK                            x       y       z     vdW  Elec       q    Type
REMARK                         _______ _______ _______ _____ _____    ______ ____
ROOT
ATOM      3  N   UNL     1      -3.944   2.411  24.664  0.00  0.00    -0.285 NA
ATOM      7  C   UNL     1      -3.196   3.681  24.755  0.00  0.00    +0.149 C 
ATOM      8  C   UNL     1      -4.114   4.623  25.556  0.00  0.00    +0.061 C 
ATOM      9  C   UNL     1      -5.371   3.808  25.832  0.00  0.00    +0.130 C 
ATOM     10  C   UNL     1      -5.361   2.759  24.735  0.00  0.00    +0.116 C 
ENDROOT
BRANCH   7  12
ATOM      2  O   UNL     1      -0.758   3.718  24.586  0.00  0.00    -0.336 OA
ATOM      4  N   UNL     1      -1.526   3.187  26.623  0.00  0.00    -0.190 NA
ATOM      6  N   UNL     1       0.373   3.505  25.386  0.00  0.00    -0.056 NA
ATOM     12  C   UNL     1      -1.833   3.510  25.392  0.00  0.00    +0.245 A 
ATOM     17  C   UNL     1      -0.163   3.196  26.571  0.00  0.00    +0.202 A 
BRANCH  17  20
ATOM     20  C   UNL     1       0.637   2.893  27.723  0.00  0.00    +0.023 A 
ATOM     23  C   UNL     1       2.025   2.824  27.610  0.00  0.00    +0.015 A 
ATOM     24  C   UNL     1       0.026   2.670  28.957  0.00  0.00    +0.012 A 
ATOM     25  C   UNL     1       2.803   2.531  28.731  0.00  0.00    -0.050 A 
ATOM     26  C   UNL     1       0.803   2.377  30.078  0.00  0.00    +0.001 A 
ATOM     27  C   UNL     1       2.192   2.308  29.964  0.00  0.00    +0.003 A 
ATOM     28  C   UNL     1       4.288   2.456  28.611  0.00  0.00    +0.044 C 
ENDBRANCH  17  20
ENDBRANCH   7  12
BRANCH   9   1
ATOM      1  O   UNL     1      -6.524   4.625  25.766  0.00  0.00    -0.390 OA
ATOM     29  H   UNL     1      -6.660   5.008  26.649  0.00  0.00    +0.210 HD
ENDBRANCH   9   1
BRANCH   3  11
ATOM     11  C   UNL     1      -3.626   1.641  23.468  0.00  0.00    +0.122 C 
BRANCH  11  13
ATOM      5  N   UNL     1      -0.801  -0.618  24.138  0.00  0.00    -0.360 N 
ATOM     13  C   UNL     1      -2.674   0.515  23.763  0.00  0.00    -0.008 A 
ATOM     14  C   UNL     1      -3.015  -0.848  23.991  0.00  0.00    +0.004 A 
ATOM     15  C   UNL     1      -1.304   0.624  23.859  0.00  0.00    +0.088 A 
ATOM     16  C   UNL     1      -1.823  -1.536  24.223  0.00  0.00    +0.047 A 
ATOM     18  C   UNL     1      -4.229  -1.562  24.023  0.00  0.00    +0.010 A 
ATOM     19  C   UNL     1      -1.784  -2.910  24.487  0.00  0.00    +0.026 A 
ATOM     21  C   UNL     1      -4.205  -2.937  24.285  0.00  0.00    +0.001 A 
ATOM     22  C   UNL     1      -3.001  -3.599  24.513  0.00  0.00    +0.002 A 
ATOM     30  H   UNL     1       0.179  -0.832  24.263  0.00  0.00    +0.165 HD
ENDBRANCH  11  13
ENDBRANCH   3  11
TORSDOF 5
ENDMDL
MODEL 9
REMARK VINA RESULT:       1.5      1.511      2.227
REMARK  Name = 26743848
REMARK  6 active torsions:
REMARK  status: ('A' for Active; 'I' for Inactive)
REMARK    1  A    between atoms: O_1  and  C_9
REMARK    2  A    between atoms: N_3  and  C_11
REMARK    3  A    between atoms: C_7  and  C_12
REMARK    4  A    between atoms: C_11  and  C_13
REMARK    5  A    between atoms: C_17  and  C_20
REMARK    6  A    between atoms: C_25  and  C_28
REMARK                            x       y       z     vdW  Elec       q    Type
REMARK                         _______ _______ _______ _____ _____    ______ ____
ROOT
ATOM      3  N   UNL     1      -2.774  -0.731  23.213  0.00  0.00    -0.285 NA
ATOM      7  C   UNL     1      -1.698  -0.502  24.199  0.00  0.00    +0.149 C 
ATOM      8  C   UNL     1      -1.807  -1.681  25.183  0.00  0.00    +0.061 C 
ATOM      9  C   UNL     1      -2.999  -2.494  24.693  0.00  0.00    +0.130 C 
ATOM     10  C   UNL     1      -3.815  -1.487  23.905  0.00  0.00    +0.116 C 
ENDROOT
BRANCH   7  12
ATOM      2  O   UNL     1      -0.283  -0.548  22.207  0.00  0.00    -0.336 OA
ATOM      4  N   UNL     1       0.834  -0.184  24.114  0.00  0.00    -0.190 NA
ATOM      6  N   UNL     1       1.065  -0.415  21.850  0.00  0.00    -0.056 NA
ATOM     12  C   UNL     1      -0.331  -0.399  23.557  0.00  0.00    +0.245 A 
ATOM     17  C   UNL     1       1.659  -0.203  23.028  0.00  0.00    +0.202 A 
BRANCH  17  20
ATOM     20  C   UNL     1       3.074  -0.005  23.154  0.00  0.00    +0.023 A 
ATOM     23  C   UNL     1       3.871  -1.000  23.718  0.00  0.00    +0.015 A 
ATOM     24  C   UNL     1       3.654   1.184  22.710  0.00  0.00    +0.012 A 
ATOM     25  C   UNL     1       5.248  -0.808  23.838  0.00  0.00    -0.050 A 
ATOM     26  C   UNL     1       5.030   1.377  22.830  0.00  0.00    +0.001 A 
ATOM     27  C   UNL     1       5.827   0.380  23.395  0.00  0.00    +0.003 A 
ATOM     28  C   UNL     1       6.101  -1.873  24.441  0.00  0.00    +0.044 C 
ENDBRANCH  17  20
ENDBRANCH   7  12
BRANCH   9   1
ATOM      1  O   UNL     1      -3.729  -3.022  25.784  0.00  0.00    -0.390 OA
ATOM     29  H   UNL     1      -3.759  -2.336  26.473  0.00  0.00    +0.210 HD
ENDBRANCH   9   1
BRANCH   3  11
ATOM     11  C   UNL     1      -3.287   0.500  22.625  0.00  0.00    +0.122 C 
BRANCH  11  13
ATOM      5  N   UNL     1      -2.067   3.420  24.502  0.00  0.00    -0.360 N 
ATOM     13  C   UNL     1      -3.047   1.688  23.516  0.00  0.00    -0.008 A 
ATOM     14  C   UNL     1      -3.965   2.248  24.449  0.00  0.00    +0.004 A 
ATOM     15  C   UNL     1      -1.889   2.430  23.573  0.00  0.00    +0.088 A 
ATOM     16  C   UNL     1      -3.325   3.332  25.053  0.00  0.00    +0.047 A 
ATOM     18  C   UNL     1      -5.283   1.935  24.836  0.00  0.00    +0.010 A 
ATOM     19  C   UNL     1      -3.941   4.122  26.031  0.00  0.00    +0.026 A 
ATOM     21  C   UNL     1      -5.910   2.716  25.814  0.00  0.00    +0.001 A 
ATOM     22  C   UNL     1      -5.248   3.792  26.401  0.00  0.00    +0.002 A 
ATOM     30  H   UNL     1      -1.376   4.114  24.749  0.00  0.00    +0.165 HD
ENDBRANCH  11  13
ENDBRANCH   3  11
TORSDOF 5
ENDMDL
