MODEL 1
REMARK VINA RESULT:      -1.5      0.000      0.000
REMARK  Name = 45783816
REMARK  7 active torsions:
REMARK  status: ('A' for Active; 'I' for Inactive)
REMARK    1  A    between atoms: N_3  and  C_12
REMARK    2  A    between atoms: N_7  and  C_23
REMARK    3  A    between atoms: N_7  and  C_24
REMARK    4  A    between atoms: N_7  and  C_25
REMARK    5  A    between atoms: C_8  and  C_13
REMARK    6  A    between atoms: C_12  and  C_14
REMARK    7  A    between atoms: C_15  and  C_17
REMARK                            x       y       z     vdW  Elec       q    Type
REMARK                         _______ _______ _______ _____ _____    ______ ____
ROOT
ATOM      2  O   UNL     1      -3.049   2.195  22.110  0.00  0.00    -0.336 OA
ATOM      4  N   UNL     1      -1.980   1.681  24.010  0.00  0.00    -0.190 NA
ATOM      5  N   UNL     1      -1.767   1.773  21.734  0.00  0.00    -0.056 NA
ATOM     13  C   UNL     1      -3.091   2.111  23.465  0.00  0.00    +0.245 A 
ATOM     15  C   UNL     1      -1.198   1.487  22.909  0.00  0.00    +0.204 A 
ENDROOT
BRANCH  15  17
ATOM      6  N   UNL     1       2.413   1.366  23.786  0.00  0.00    -0.240 NA
ATOM     17  C   UNL     1       0.149   1.008  23.017  0.00  0.00    +0.041 A 
ATOM     20  C   UNL     1       0.516  -0.225  22.489  0.00  0.00    +0.016 A 
ATOM     21  C   UNL     1       1.127   1.759  23.651  0.00  0.00    +0.124 A 
ATOM     22  C   UNL     1       1.830  -0.663  22.608  0.00  0.00    +0.044 A 
ATOM     23  C   UNL     1       2.733   0.162  23.260  0.00  0.00    +0.121 A 
BRANCH  23   7
ATOM      7  N   UNL     1       4.067  -0.298  23.375  0.00  0.00    -0.321 N 
ATOM     24  C   UNL     1       4.335  -1.647  23.825  0.00  0.00    +0.130 C 
ATOM     25  C   UNL     1       5.170   0.574  23.038  0.00  0.00    +0.130 C 
ENDBRANCH  23   7
ENDBRANCH  15  17
BRANCH  13   8
ATOM      3  N   UNL     1      -4.693   1.711  25.327  0.00  0.00    -0.287 NA
ATOM      8  C   UNL     1      -4.390   2.517  24.127  0.00  0.00    +0.146 C 
ATOM      9  C   UNL     1      -4.373   3.973  24.629  0.00  0.00    +0.030 C 
ATOM     10  C   UNL     1      -4.736   3.889  26.104  0.00  0.00    +0.017 C 
ATOM     11  C   UNL     1      -5.473   2.571  26.217  0.00  0.00    +0.085 C 
BRANCH   3  12
ATOM     12  C   UNL     1      -5.386   0.465  25.021  0.00  0.00    +0.127 C 
BRANCH  12  14
ATOM      1  S   UNL     1      -3.184  -0.926  25.996  0.00  0.00    -0.100 S 
ATOM     14  C   UNL     1      -4.426  -0.681  24.843  0.00  0.00    +0.004 A 
ATOM     16  C   UNL     1      -4.390  -1.620  23.836  0.00  0.00    +0.012 A 
ATOM     18  C   UNL     1      -3.328  -2.553  24.013  0.00  0.00    +0.008 A 
ATOM     19  C   UNL     1      -2.593  -2.292  25.149  0.00  0.00    +0.045 A 
ENDBRANCH  12  14
ENDBRANCH   3  12
ENDBRANCH  13   8
TORSDOF 5
ENDMDL
MODEL 2
REMARK VINA RESULT:      -1.2     14.814     16.430
REMARK  Name = 45783816
REMARK  7 active torsions:
REMARK  status: ('A' for Active; 'I' for Inactive)
REMARK    1  A    between atoms: N_3  and  C_12
REMARK    2  A    between atoms: N_7  and  C_23
REMARK    3  A    between atoms: N_7  and  C_24
REMARK    4  A    between atoms: N_7  and  C_25
REMARK    5  A    between atoms: C_8  and  C_13
REMARK    6  A    between atoms: C_12  and  C_14
REMARK    7  A    between atoms: C_15  and  C_17
REMARK                            x       y       z     vdW  Elec       q    Type
REMARK                         _______ _______ _______ _____ _____    ______ ____
ROOT
ATOM      2  O   UNL     1      -7.101 -10.781  12.825  0.00  0.00    -0.336 OA
ATOM      4  N   UNL     1      -6.199  -9.795  11.027  0.00  0.00    -0.190 NA
ATOM      5  N   UNL     1      -5.736 -10.635  13.104  0.00  0.00    -0.056 NA
ATOM     13  C   UNL     1      -7.289 -10.262  11.583  0.00  0.00    +0.245 A 
ATOM     15  C   UNL     1      -5.273 -10.046  11.997  0.00  0.00    +0.204 A 
ENDROOT
BRANCH  15  17
ATOM      6  N   UNL     1      -1.651  -9.644  12.735  0.00  0.00    -0.240 NA
ATOM     17  C   UNL     1      -3.893  -9.698  11.830  0.00  0.00    +0.041 A 
ATOM     20  C   UNL     1      -3.442  -9.098  10.659  0.00  0.00    +0.016 A 
ATOM     21  C   UNL     1      -2.965  -9.948  12.829  0.00  0.00    +0.124 A 
ATOM     22  C   UNL     1      -2.097  -8.770  10.526  0.00  0.00    +0.044 A 
ATOM     23  C   UNL     1      -1.250  -9.062  11.583  0.00  0.00    +0.121 A 
BRANCH  23   7
ATOM      7  N   UNL     1       0.117  -8.724  11.432  0.00  0.00    -0.321 N 
ATOM     24  C   UNL     1       0.719  -7.724  12.286  0.00  0.00    +0.130 C 
ATOM     25  C   UNL     1       0.923  -9.382  10.427  0.00  0.00    +0.130 C 
ENDBRANCH  23   7
ENDBRANCH  15  17
BRANCH  13   8
ATOM      3  N   UNL     1      -9.624  -9.429  11.801  0.00  0.00    -0.287 NA
ATOM      8  C   UNL     1      -8.702 -10.299  11.042  0.00  0.00    +0.146 C 
ATOM      9  C   UNL     1      -8.797  -9.797   9.590  0.00  0.00    +0.030 C 
ATOM     10  C   UNL     1      -9.838  -8.688   9.620  0.00  0.00    +0.017 C 
ATOM     11  C   UNL     1     -10.656  -8.998  10.857  0.00  0.00    +0.085 C 
BRANCH   3  12
ATOM     12  C   UNL     1     -10.192 -10.080  12.974  0.00  0.00    +0.127 C 
BRANCH  12  14
ATOM      1  S   UNL     1      -9.031  -9.768  15.482  0.00  0.00    -0.100 S 
ATOM     14  C   UNL     1     -10.046  -9.234  14.211  0.00  0.00    +0.004 A 
ATOM     16  C   UNL     1     -10.639  -8.022  14.495  0.00  0.00    +0.012 A 
ATOM     18  C   UNL     1     -10.254  -7.527  15.774  0.00  0.00    +0.008 A 
ATOM     19  C   UNL     1      -9.382  -8.377  16.418  0.00  0.00    +0.045 A 
ENDBRANCH  12  14
ENDBRANCH   3  12
ENDBRANCH  13   8
TORSDOF 5
ENDMDL
MODEL 3
REMARK VINA RESULT:      -1.0     14.339     15.883
REMARK  Name = 45783816
REMARK  7 active torsions:
REMARK  status: ('A' for Active; 'I' for Inactive)
REMARK    1  A    between atoms: N_3  and  C_12
REMARK    2  A    between atoms: N_7  and  C_23
REMARK    3  A    between atoms: N_7  and  C_24
REMARK    4  A    between atoms: N_7  and  C_25
REMARK    5  A    between atoms: C_8  and  C_13
REMARK    6  A    between atoms: C_12  and  C_14
REMARK    7  A    between atoms: C_15  and  C_17
REMARK                            x       y       z     vdW  Elec       q    Type
REMARK                         _______ _______ _______ _____ _____    ______ ____
ROOT
ATOM      2  O   UNL     1      -3.191 -10.717  11.722  0.00  0.00    -0.336 OA
ATOM      4  N   UNL     1      -2.530  -8.941  10.528  0.00  0.00    -0.190 NA
ATOM      5  N   UNL     1      -1.916 -10.384  12.194  0.00  0.00    -0.056 NA
ATOM     13  C   UNL     1      -3.477  -9.820  10.743  0.00  0.00    +0.245 A 
ATOM     15  C   UNL     1      -1.593  -9.327  11.442  0.00  0.00    +0.204 A 
ENDROOT
BRANCH  15  17
ATOM      6  N   UNL     1       0.951  -6.901  12.652  0.00  0.00    -0.240 NA
ATOM     17  C   UNL     1      -0.343  -8.637  11.577  0.00  0.00    +0.041 A 
ATOM     20  C   UNL     1       0.760  -8.995  10.810  0.00  0.00    +0.016 A 
ATOM     21  C   UNL     1      -0.197  -7.593  12.477  0.00  0.00    +0.124 A 
ATOM     22  C   UNL     1       1.958  -8.306  10.963  0.00  0.00    +0.044 A 
ATOM     23  C   UNL     1       2.002  -7.277  11.889  0.00  0.00    +0.121 A 
BRANCH  23   7
ATOM      7  N   UNL     1       3.230  -6.587  12.035  0.00  0.00    -0.321 N 
ATOM     24  C   UNL     1       3.245  -5.144  12.148  0.00  0.00    +0.130 C 
ATOM     25  C   UNL     1       4.477  -7.319  12.079  0.00  0.00    +0.130 C 
ENDBRANCH  23   7
ENDBRANCH  15  17
BRANCH  13   8
ATOM      3  N   UNL     1      -5.950  -9.647  10.960  0.00  0.00    -0.287 NA
ATOM      8  C   UNL     1      -4.822  -9.967  10.063  0.00  0.00    +0.146 C 
ATOM      9  C   UNL     1      -4.991  -9.013   8.866  0.00  0.00    +0.030 C 
ATOM     10  C   UNL     1      -6.271  -8.242   9.151  0.00  0.00    +0.017 C 
ATOM     11  C   UNL     1      -7.026  -9.142  10.106  0.00  0.00    +0.085 C 
BRANCH   3  12
ATOM     12  C   UNL     1      -6.379 -10.781  11.770  0.00  0.00    +0.127 C 
BRANCH  12  14
ATOM      1  S   UNL     1      -8.131 -10.256  13.864  0.00  0.00    -0.100 S 
ATOM     14  C   UNL     1      -6.553 -10.403  13.216  0.00  0.00    +0.004 A 
ATOM     16  C   UNL     1      -5.581 -10.140  14.157  0.00  0.00    +0.012 A 
ATOM     18  C   UNL     1      -6.139  -9.814  15.426  0.00  0.00    +0.008 A 
ATOM     19  C   UNL     1      -7.517  -9.840  15.408  0.00  0.00    +0.045 A 
ENDBRANCH  12  14
ENDBRANCH   3  12
ENDBRANCH  13   8
TORSDOF 5
ENDMDL
MODEL 4
REMARK VINA RESULT:       0.4     15.013     16.587
REMARK  Name = 45783816
REMARK  7 active torsions:
REMARK  status: ('A' for Active; 'I' for Inactive)
REMARK    1  A    between atoms: N_3  and  C_12
REMARK    2  A    between atoms: N_7  and  C_23
REMARK    3  A    between atoms: N_7  and  C_24
REMARK    4  A    between atoms: N_7  and  C_25
REMARK    5  A    between atoms: C_8  and  C_13
REMARK    6  A    between atoms: C_12  and  C_14
REMARK    7  A    between atoms: C_15  and  C_17
REMARK                            x       y       z     vdW  Elec       q    Type
REMARK                         _______ _______ _______ _____ _____    ______ ____
ROOT
ATOM      2  O   UNL     1      -3.346 -10.781  11.982  0.00  0.00    -0.336 OA
ATOM      4  N   UNL     1      -2.556  -9.296  10.502  0.00  0.00    -0.190 NA
ATOM      5  N   UNL     1      -2.136 -10.312  12.509  0.00  0.00    -0.056 NA
ATOM     13  C   UNL     1      -3.519 -10.133  10.800  0.00  0.00    +0.245 A 
ATOM     15  C   UNL     1      -1.732  -9.441  11.580  0.00  0.00    +0.204 A 
ENDROOT
BRANCH  15  17
ATOM      6  N   UNL     1       1.723  -8.257  10.883  0.00  0.00    -0.240 NA
ATOM     17  C   UNL     1      -0.509  -8.700  11.698  0.00  0.00    +0.041 A 
ATOM     20  C   UNL     1      -0.345  -7.741  12.691  0.00  0.00    +0.016 A 
ATOM     21  C   UNL     1       0.546  -8.919  10.826  0.00  0.00    +0.124 A 
ATOM     22  C   UNL     1       0.852  -7.040  12.781  0.00  0.00    +0.044 A 
ATOM     23  C   UNL     1       1.847  -7.332  11.861  0.00  0.00    +0.121 A 
BRANCH  23   7
ATOM      7  N   UNL     1       3.059  -6.608  11.965  0.00  0.00    -0.321 N 
ATOM     24  C   UNL     1       3.042  -5.162  12.012  0.00  0.00    +0.130 C 
ATOM     25  C   UNL     1       4.323  -7.310  12.031  0.00  0.00    +0.130 C 
ENDBRANCH  23   7
ENDBRANCH  15  17
BRANCH  13   8
ATOM      3  N   UNL     1      -5.949  -9.701  10.481  0.00  0.00    -0.287 NA
ATOM      8  C   UNL     1      -4.773 -10.469  10.022  0.00  0.00    +0.146 C 
ATOM      9  C   UNL     1      -4.651 -10.138   8.523  0.00  0.00    +0.030 C 
ATOM     10  C   UNL     1      -5.832  -9.229   8.219  0.00  0.00    +0.017 C 
ATOM     11  C   UNL     1      -6.824  -9.551   9.317  0.00  0.00    +0.085 C 
BRANCH   3  12
ATOM     12  C   UNL     1      -6.635 -10.320  11.608  0.00  0.00    +0.127 C 
BRANCH  12  14
ATOM      1  S   UNL     1      -8.963 -10.032  13.101  0.00  0.00    -0.100 S 
ATOM     14  C   UNL     1      -8.103  -9.988  11.621  0.00  0.00    +0.004 A 
ATOM     16  C   UNL     1      -8.911  -9.633  10.563  0.00  0.00    +0.012 A 
ATOM     18  C   UNL     1     -10.254  -9.393  10.974  0.00  0.00    +0.008 A 
ATOM     19  C   UNL     1     -10.422  -9.574  12.329  0.00  0.00    +0.045 A 
ENDBRANCH  12  14
ENDBRANCH   3  12
ENDBRANCH  13   8
TORSDOF 5
ENDMDL
MODEL 5
REMARK VINA RESULT:       2.5      1.888      3.939
REMARK  Name = 45783816
REMARK  7 active torsions:
REMARK  status: ('A' for Active; 'I' for Inactive)
REMARK    1  A    between atoms: N_3  and  C_12
REMARK    2  A    between atoms: N_7  and  C_23
REMARK    3  A    between atoms: N_7  and  C_24
REMARK    4  A    between atoms: N_7  and  C_25
REMARK    5  A    between atoms: C_8  and  C_13
REMARK    6  A    between atoms: C_12  and  C_14
REMARK    7  A    between atoms: C_15  and  C_17
REMARK                            x       y       z     vdW  Elec       q    Type
REMARK                         _______ _______ _______ _____ _____    ______ ____
ROOT
ATOM      2  O   UNL     1      -1.244   0.179  23.182  0.00  0.00    -0.336 OA
ATOM      4  N   UNL     1       0.187  -1.063  24.377  0.00  0.00    -0.190 NA
ATOM      5  N   UNL     1       0.040   0.556  22.767  0.00  0.00    -0.056 NA
ATOM     13  C   UNL     1      -1.067  -0.778  24.130  0.00  0.00    +0.245 A 
ATOM     15  C   UNL     1       0.828  -0.220  23.517  0.00  0.00    +0.204 A 
ENDROOT
BRANCH  15  17
ATOM      6  N   UNL     1       4.384  -1.270  23.794  0.00  0.00    -0.240 NA
ATOM     17  C   UNL     1       2.259  -0.175  23.432  0.00  0.00    +0.041 A 
ATOM     20  C   UNL     1       2.913   0.945  22.932  0.00  0.00    +0.016 A 
ATOM     21  C   UNL     1       3.034  -1.248  23.846  0.00  0.00    +0.124 A 
ATOM     22  C   UNL     1       4.302   0.959  22.863  0.00  0.00    +0.044 A 
ATOM     23  C   UNL     1       4.985  -0.164  23.302  0.00  0.00    +0.121 A 
BRANCH  23   7
ATOM      7  N   UNL     1       6.399  -0.135  23.223  0.00  0.00    -0.321 N 
ATOM     24  C   UNL     1       7.108  -1.164  22.495  0.00  0.00    +0.130 C 
ATOM     25  C   UNL     1       7.143   0.928  23.864  0.00  0.00    +0.130 C 
ENDBRANCH  23   7
ENDBRANCH  15  17
BRANCH  13   8
ATOM      3  N   UNL     1      -3.500  -0.487  24.564  0.00  0.00    -0.287 NA
ATOM      8  C   UNL     1      -2.322  -1.359  24.746  0.00  0.00    +0.146 C 
ATOM      9  C   UNL     1      -2.728  -2.703  24.114  0.00  0.00    +0.030 C 
ATOM     10  C   UNL     1      -4.168  -2.509  23.660  0.00  0.00    +0.017 C 
ATOM     11  C   UNL     1      -4.666  -1.371  24.526  0.00  0.00    +0.085 C 
BRANCH   3  12
ATOM     12  C   UNL     1      -3.622   0.537  25.595  0.00  0.00    +0.127 C 
BRANCH  12  14
ATOM      1  S   UNL     1      -2.027   2.782  25.204  0.00  0.00    -0.100 S 
ATOM     14  C   UNL     1      -3.498   1.924  25.023  0.00  0.00    +0.004 A 
ATOM     16  C   UNL     1      -4.442   2.655  24.336  0.00  0.00    +0.012 A 
ATOM     18  C   UNL     1      -3.951   3.936  23.953  0.00  0.00    +0.008 A 
ATOM     19  C   UNL     1      -2.650   4.136  24.362  0.00  0.00    +0.045 A 
ENDBRANCH  12  14
ENDBRANCH   3  12
ENDBRANCH  13   8
TORSDOF 5
ENDMDL
