MODEL 1
REMARK VINA RESULT:      -4.2      0.000      0.000
REMARK  Name = 26743460
REMARK  7 active torsions:
REMARK  status: ('A' for Active; 'I' for Inactive)
REMARK    1  A    between atoms: S_2  and  C_19
REMARK    2  A    between atoms: S_2  and  C_23
REMARK    3  A    between atoms: O_4  and  C_13
REMARK    4  A    between atoms: N_8  and  C_15
REMARK    5  A    between atoms: C_11  and  C_16
REMARK    6  A    between atoms: C_15  and  C_17
REMARK    7  A    between atoms: C_18  and  C_19
REMARK                            x       y       z     vdW  Elec       q    Type
REMARK                         _______ _______ _______ _____ _____    ______ ____
ROOT
ATOM      5  O   UNL     1      -2.059   1.989  25.599  0.00  0.00    -0.336 OA
ATOM      9  N   UNL     1      -1.668   2.163  23.401  0.00  0.00    -0.193 NA
ATOM     10  N   UNL     1      -0.684   1.783  25.431  0.00  0.00    -0.060 NA
ATOM     16  C   UNL     1      -2.562   2.205  24.356  0.00  0.00    +0.245 A 
ATOM     18  C   UNL     1      -0.531   1.901  24.109  0.00  0.00    +0.193 A 
ENDROOT
BRANCH  16  11
ATOM      8  N   UNL     1      -4.843   1.504  25.065  0.00  0.00    -0.284 NA
ATOM     11  C   UNL     1      -4.052   2.461  24.265  0.00  0.00    +0.149 C 
ATOM     12  C   UNL     1      -4.452   3.848  24.801  0.00  0.00    +0.061 C 
ATOM     13  C   UNL     1      -5.505   3.570  25.867  0.00  0.00    +0.130 C 
ATOM     14  C   UNL     1      -6.054   2.210  25.478  0.00  0.00    +0.116 C 
BRANCH  13   4
ATOM      4  O   UNL     1      -6.509   4.565  25.852  0.00  0.00    -0.390 OA
ATOM     29  H   UNL     1      -7.230   4.246  25.283  0.00  0.00    +0.210 HD
ENDBRANCH  13   4
BRANCH   8  15
ATOM     15  C   UNL     1      -5.145   0.270  24.351  0.00  0.00    +0.127 C 
BRANCH  15  17
ATOM      1  S   UNL     1      -4.033  -2.191  23.683  0.00  0.00    -0.100 S 
ATOM     17  C   UNL     1      -4.195  -0.838  24.720  0.00  0.00    +0.004 A 
ATOM     20  C   UNL     1      -3.385  -0.939  25.831  0.00  0.00    +0.012 A 
ATOM     21  C   UNL     1      -2.623  -2.143  25.830  0.00  0.00    +0.008 A 
ATOM     22  C   UNL     1      -2.879  -2.916  24.719  0.00  0.00    +0.045 A 
ENDBRANCH  15  17
ENDBRANCH   8  15
ENDBRANCH  16  11
BRANCH  18  19
ATOM     19  C   UNL     1       0.778   1.759  23.463  0.00  0.00    +0.251 C 
BRANCH  19   2
ATOM      2  S   UNL     1       1.068   0.042  23.139  0.00  0.00    +0.004 S 
ATOM      6  O   UNL     1       0.686  -0.214  21.762  0.00  0.00    -0.169 OA
ATOM      7  O   UNL     1       0.489  -0.735  24.219  0.00  0.00    -0.169 OA
BRANCH   2  23
ATOM      3  F   UNL     1       6.924  -0.505  23.550  0.00  0.00    -0.205 F 
ATOM     23  C   UNL     1       2.822  -0.123  23.262  0.00  0.00    +0.089 A 
ATOM     24  C   UNL     1       3.379  -1.310  23.735  0.00  0.00    +0.030 A 
ATOM     25  C   UNL     1       3.650   0.935  22.885  0.00  0.00    +0.030 A 
ATOM     26  C   UNL     1       4.765  -1.439  23.832  0.00  0.00    +0.040 A 
ATOM     27  C   UNL     1       5.034   0.806  22.982  0.00  0.00    +0.040 A 
ATOM     28  C   UNL     1       5.592  -0.382  23.457  0.00  0.00    +0.124 A 
ENDBRANCH   2  23
ENDBRANCH  19   2
ENDBRANCH  18  19
TORSDOF 7
ENDMDL
MODEL 2
REMARK VINA RESULT:      -2.8      3.134      6.325
REMARK  Name = 26743460
REMARK  7 active torsions:
REMARK  status: ('A' for Active; 'I' for Inactive)
REMARK    1  A    between atoms: S_2  and  C_19
REMARK    2  A    between atoms: S_2  and  C_23
REMARK    3  A    between atoms: O_4  and  C_13
REMARK    4  A    between atoms: N_8  and  C_15
REMARK    5  A    between atoms: C_11  and  C_16
REMARK    6  A    between atoms: C_15  and  C_17
REMARK    7  A    between atoms: C_18  and  C_19
REMARK                            x       y       z     vdW  Elec       q    Type
REMARK                         _______ _______ _______ _____ _____    ______ ____
ROOT
ATOM      5  O   UNL     1      -0.616   3.990  25.045  0.00  0.00    -0.336 OA
ATOM      9  N   UNL     1      -2.027   2.673  26.180  0.00  0.00    -0.193 NA
ATOM     10  N   UNL     1      -1.697   4.801  25.410  0.00  0.00    -0.060 NA
ATOM     16  C   UNL     1      -0.890   2.753  25.537  0.00  0.00    +0.245 A 
ATOM     18  C   UNL     1      -2.486   3.953  26.076  0.00  0.00    +0.193 A 
ENDROOT
BRANCH  16  11
ATOM      8  N   UNL     1      -0.452   0.436  24.741  0.00  0.00    -0.284 NA
ATOM     11  C   UNL     1       0.143   1.677  25.275  0.00  0.00    +0.149 C 
ATOM     12  C   UNL     1       1.187   2.098  24.224  0.00  0.00    +0.061 C 
ATOM     13  C   UNL     1       1.137   1.008  23.161  0.00  0.00    +0.130 C 
ATOM     14  C   UNL     1       0.571  -0.187  23.904  0.00  0.00    +0.116 C 
BRANCH  13   4
ATOM      4  O   UNL     1       2.430   0.745  22.651  0.00  0.00    -0.390 OA
ATOM     29  H   UNL     1       2.888   1.598  22.562  0.00  0.00    +0.210 HD
ENDBRANCH  13   4
BRANCH   8  15
ATOM     15  C   UNL     1      -0.932  -0.464  25.781  0.00  0.00    +0.127 C 
BRANCH  15  17
ATOM      1  S   UNL     1      -3.555  -1.392  25.813  0.00  0.00    -0.100 S 
ATOM     17  C   UNL     1      -1.940  -1.449  25.249  0.00  0.00    +0.004 A 
ATOM     20  C   UNL     1      -1.752  -2.450  24.321  0.00  0.00    +0.012 A 
ATOM     21  C   UNL     1      -2.951  -3.180  24.071  0.00  0.00    +0.008 A 
ATOM     22  C   UNL     1      -4.008  -2.708  24.817  0.00  0.00    +0.045 A 
ENDBRANCH  15  17
ENDBRANCH   8  15
ENDBRANCH  16  11
BRANCH  18  19
ATOM     19  C   UNL     1      -3.765   4.376  26.658  0.00  0.00    +0.251 C 
BRANCH  19   2
ATOM      2  S   UNL     1      -5.082   3.628  25.738  0.00  0.00    +0.004 S 
ATOM      6  O   UNL     1      -5.965   4.691  25.295  0.00  0.00    -0.169 OA
ATOM      7  O   UNL     1      -5.601   2.510  26.504  0.00  0.00    -0.169 OA
BRANCH   2  23
ATOM      3  F   UNL     1      -2.395   1.383  20.994  0.00  0.00    -0.205 F 
ATOM     23  C   UNL     1      -4.277   2.955  24.317  0.00  0.00    +0.089 A 
ATOM     24  C   UNL     1      -3.999   1.590  24.255  0.00  0.00    +0.030 A 
ATOM     25  C   UNL     1      -3.920   3.789  23.257  0.00  0.00    +0.030 A 
ATOM     26  C   UNL     1      -3.363   1.059  23.132  0.00  0.00    +0.040 A 
ATOM     27  C   UNL     1      -3.285   3.258  22.136  0.00  0.00    +0.040 A 
ATOM     28  C   UNL     1      -3.006   1.893  22.073  0.00  0.00    +0.124 A 
ENDBRANCH   2  23
ENDBRANCH  19   2
ENDBRANCH  18  19
TORSDOF 7
ENDMDL
MODEL 3
REMARK VINA RESULT:      -2.0      2.134      3.732
REMARK  Name = 26743460
REMARK  7 active torsions:
REMARK  status: ('A' for Active; 'I' for Inactive)
REMARK    1  A    between atoms: S_2  and  C_19
REMARK    2  A    between atoms: S_2  and  C_23
REMARK    3  A    between atoms: O_4  and  C_13
REMARK    4  A    between atoms: N_8  and  C_15
REMARK    5  A    between atoms: C_11  and  C_16
REMARK    6  A    between atoms: C_15  and  C_17
REMARK    7  A    between atoms: C_18  and  C_19
REMARK                            x       y       z     vdW  Elec       q    Type
REMARK                         _______ _______ _______ _____ _____    ______ ____
ROOT
ATOM      5  O   UNL     1      -3.266  -1.053  24.316  0.00  0.00    -0.336 OA
ATOM      9  N   UNL     1      -1.618   0.207  25.159  0.00  0.00    -0.193 NA
ATOM     10  N   UNL     1      -2.068  -1.651  23.903  0.00  0.00    -0.060 NA
ATOM     16  C   UNL     1      -2.910   0.033  25.050  0.00  0.00    +0.245 A 
ATOM     18  C   UNL     1      -1.142  -0.851  24.439  0.00  0.00    +0.193 A 
ENDROOT
BRANCH  16  11
ATOM      8  N   UNL     1      -3.894   2.302  25.333  0.00  0.00    -0.284 NA
ATOM     11  C   UNL     1      -4.042   0.861  25.623  0.00  0.00    +0.149 C 
ATOM     12  C   UNL     1      -5.414   0.480  25.037  0.00  0.00    +0.061 C 
ATOM     13  C   UNL     1      -5.980   1.780  24.481  0.00  0.00    +0.130 C 
ATOM     14  C   UNL     1      -5.247   2.851  25.266  0.00  0.00    +0.116 C 
BRANCH  13   4
ATOM      4  O   UNL     1      -7.378   1.845  24.683  0.00  0.00    -0.390 OA
ATOM     29  H   UNL     1      -7.805   1.418  23.921  0.00  0.00    +0.210 HD
ENDBRANCH  13   4
BRANCH   8  15
ATOM     15  C   UNL     1      -3.067   3.001  26.307  0.00  0.00    +0.127 C 
BRANCH  15  17
ATOM      1  S   UNL     1      -0.497   3.335  25.295  0.00  0.00    -0.100 S 
ATOM     17  C   UNL     1      -2.070   3.914  25.643  0.00  0.00    +0.004 A 
ATOM     20  C   UNL     1      -2.238   5.223  25.247  0.00  0.00    +0.012 A 
ATOM     21  C   UNL     1      -1.058   5.757  24.650  0.00  0.00    +0.008 A 
ATOM     22  C   UNL     1      -0.035   4.836  24.614  0.00  0.00    +0.045 A 
ENDBRANCH  15  17
ENDBRANCH   8  15
ENDBRANCH  16  11
BRANCH  18  19
ATOM     19  C   UNL     1       0.293  -1.096  24.264  0.00  0.00    +0.251 C 
BRANCH  19   2
ATOM      2  S   UNL     1       0.890  -0.062  22.955  0.00  0.00    +0.004 S 
ATOM      6  O   UNL     1       0.435   1.290  23.223  0.00  0.00    -0.169 OA
ATOM      7  O   UNL     1       0.590  -0.703  21.688  0.00  0.00    -0.169 OA
BRANCH   2  23
ATOM      3  F   UNL     1       6.748  -0.188  23.615  0.00  0.00    -0.205 F 
ATOM     23  C   UNL     1       2.645  -0.100  23.153  0.00  0.00    +0.089 A 
ATOM     24  C   UNL     1       3.408   1.019  22.819  0.00  0.00    +0.030 A 
ATOM     25  C   UNL     1       3.267  -1.248  23.644  0.00  0.00    +0.030 A 
ATOM     26  C   UNL     1       4.793   0.989  22.975  0.00  0.00    +0.040 A 
ATOM     27  C   UNL     1       4.652  -1.277  23.800  0.00  0.00    +0.040 A 
ATOM     28  C   UNL     1       5.416  -0.159  23.465  0.00  0.00    +0.124 A 
ENDBRANCH   2  23
ENDBRANCH  19   2
ENDBRANCH  18  19
TORSDOF 7
ENDMDL
MODEL 4
REMARK VINA RESULT:      -1.3      2.924      6.519
REMARK  Name = 26743460
REMARK  7 active torsions:
REMARK  status: ('A' for Active; 'I' for Inactive)
REMARK    1  A    between atoms: S_2  and  C_19
REMARK    2  A    between atoms: S_2  and  C_23
REMARK    3  A    between atoms: O_4  and  C_13
REMARK    4  A    between atoms: N_8  and  C_15
REMARK    5  A    between atoms: C_11  and  C_16
REMARK    6  A    between atoms: C_15  and  C_17
REMARK    7  A    between atoms: C_18  and  C_19
REMARK                            x       y       z     vdW  Elec       q    Type
REMARK                         _______ _______ _______ _____ _____    ______ ____
ROOT
ATOM      5  O   UNL     1      -2.102   1.381  22.959  0.00  0.00    -0.336 OA
ATOM      9  N   UNL     1      -2.823   1.043  25.052  0.00  0.00    -0.193 NA
ATOM     10  N   UNL     1      -3.481   1.625  22.940  0.00  0.00    -0.060 NA
ATOM     16  C   UNL     1      -1.797   1.045  24.240  0.00  0.00    +0.245 A 
ATOM     18  C   UNL     1      -3.834   1.406  24.210  0.00  0.00    +0.193 A 
ENDROOT
BRANCH  16  11
ATOM      8  N   UNL     1       0.082  -0.563  23.958  0.00  0.00    -0.284 NA
ATOM     11  C   UNL     1      -0.344   0.731  24.529  0.00  0.00    +0.149 C 
ATOM     12  C   UNL     1       0.620   1.766  23.921  0.00  0.00    +0.061 C 
ATOM     13  C   UNL     1       1.579   0.954  23.060  0.00  0.00    +0.130 C 
ATOM     14  C   UNL     1       1.508  -0.435  23.663  0.00  0.00    +0.116 C 
BRANCH  13   4
ATOM      4  O   UNL     1       2.887   1.489  23.125  0.00  0.00    -0.390 OA
ATOM     29  H   UNL     1       3.507   0.741  23.175  0.00  0.00    +0.210 HD
ENDBRANCH  13   4
BRANCH   8  15
ATOM     15  C   UNL     1      -0.198  -1.695  24.830  0.00  0.00    +0.127 C 
BRANCH  15  17
ATOM      1  S   UNL     1      -2.660  -1.724  26.126  0.00  0.00    -0.100 S 
ATOM     17  C   UNL     1      -1.651  -2.088  24.790  0.00  0.00    +0.004 A 
ATOM     20  C   UNL     1      -2.338  -2.732  23.785  0.00  0.00    +0.012 A 
ATOM     21  C   UNL     1      -3.710  -2.931  24.116  0.00  0.00    +0.008 A 
ATOM     22  C   UNL     1      -4.019  -2.430  25.361  0.00  0.00    +0.045 A 
ENDBRANCH  15  17
ENDBRANCH   8  15
ENDBRANCH  16  11
BRANCH  18  19
ATOM     19  C   UNL     1      -5.221   1.547  24.666  0.00  0.00    +0.251 C 
BRANCH  19   2
ATOM      2  S   UNL     1      -5.348   3.016  25.648  0.00  0.00    +0.004 S 
ATOM      6  O   UNL     1      -5.445   2.606  27.038  0.00  0.00    -0.169 OA
ATOM      7  O   UNL     1      -6.359   3.876  25.063  0.00  0.00    -0.169 OA
BRANCH   2  23
ATOM      3  F   UNL     1      -0.145   5.682  24.884  0.00  0.00    -0.205 F 
ATOM     23  C   UNL     1      -3.790   3.815  25.419  0.00  0.00    +0.089 A 
ATOM     24  C   UNL     1      -3.572   4.607  24.292  0.00  0.00    +0.030 A 
ATOM     25  C   UNL     1      -2.778   3.653  26.366  0.00  0.00    +0.030 A 
ATOM     26  C   UNL     1      -2.341   5.237  24.112  0.00  0.00    +0.040 A 
ATOM     27  C   UNL     1      -1.548   4.284  26.185  0.00  0.00    +0.040 A 
ATOM     28  C   UNL     1      -1.329   5.076  25.057  0.00  0.00    +0.124 A 
ENDBRANCH   2  23
ENDBRANCH  19   2
ENDBRANCH  18  19
TORSDOF 7
ENDMDL
MODEL 5
REMARK VINA RESULT:      -1.1      3.544      7.717
REMARK  Name = 26743460
REMARK  7 active torsions:
REMARK  status: ('A' for Active; 'I' for Inactive)
REMARK    1  A    between atoms: S_2  and  C_19
REMARK    2  A    between atoms: S_2  and  C_23
REMARK    3  A    between atoms: O_4  and  C_13
REMARK    4  A    between atoms: N_8  and  C_15
REMARK    5  A    between atoms: C_11  and  C_16
REMARK    6  A    between atoms: C_15  and  C_17
REMARK    7  A    between atoms: C_18  and  C_19
REMARK                            x       y       z     vdW  Elec       q    Type
REMARK                         _______ _______ _______ _____ _____    ______ ____
ROOT
ATOM      5  O   UNL     1       0.516  -1.437  24.623  0.00  0.00    -0.336 OA
ATOM      9  N   UNL     1      -1.222  -0.150  24.044  0.00  0.00    -0.193 NA
ATOM     10  N   UNL     1      -0.585  -1.928  25.335  0.00  0.00    -0.060 NA
ATOM     16  C   UNL     1       0.054  -0.392  23.888  0.00  0.00    +0.245 A 
ATOM     18  C   UNL     1      -1.572  -1.118  24.941  0.00  0.00    +0.193 A 
ENDROOT
BRANCH  16  11
ATOM      8  N   UNL     1       1.615   1.533  23.654  0.00  0.00    -0.284 NA
ATOM     11  C   UNL     1       1.066   0.320  23.014  0.00  0.00    +0.149 C 
ATOM     12  C   UNL     1       2.296  -0.551  22.699  0.00  0.00    +0.061 C 
ATOM     13  C   UNL     1       3.492   0.276  23.155  0.00  0.00    +0.130 C 
ATOM     14  C   UNL     1       2.969   1.700  23.129  0.00  0.00    +0.116 C 
BRANCH  13   4
ATOM      4  O   UNL     1       4.586   0.103  22.276  0.00  0.00    -0.390 OA
ATOM     29  H   UNL     1       5.108   0.924  22.292  0.00  0.00    +0.210 HD
ENDBRANCH  13   4
BRANCH   8  15
ATOM     15  C   UNL     1       0.794   2.717  23.438  0.00  0.00    +0.127 C 
BRANCH  15  17
ATOM      1  S   UNL     1      -1.168   4.338  24.561  0.00  0.00    -0.100 S 
ATOM     17  C   UNL     1      -0.092   3.007  24.620  0.00  0.00    +0.004 A 
ATOM     20  C   UNL     1      -0.178   2.327  25.815  0.00  0.00    +0.012 A 
ATOM     21  C   UNL     1      -1.139   2.906  26.694  0.00  0.00    +0.008 A 
ATOM     22  C   UNL     1      -1.751   4.007  26.136  0.00  0.00    +0.045 A 
ENDBRANCH  15  17
ENDBRANCH   8  15
ENDBRANCH  16  11
BRANCH  18  19
ATOM     19  C   UNL     1      -2.943  -1.263  25.441  0.00  0.00    +0.251 C 
BRANCH  19   2
ATOM      2  S   UNL     1      -4.069  -0.799  24.154  0.00  0.00    +0.004 S 
ATOM      6  O   UNL     1      -5.208  -1.696  24.226  0.00  0.00    -0.169 OA
ATOM      7  O   UNL     1      -3.323  -0.655  22.919  0.00  0.00    -0.169 OA
BRANCH   2  23
ATOM      3  F   UNL     1      -5.877   4.587  25.729  0.00  0.00    -0.205 F 
ATOM     23  C   UNL     1      -4.611   0.815  24.627  0.00  0.00    +0.089 A 
ATOM     24  C   UNL     1      -5.556   0.963  25.641  0.00  0.00    +0.030 A 
ATOM     25  C   UNL     1      -4.092   1.940  23.985  0.00  0.00    +0.030 A 
ATOM     26  C   UNL     1      -5.984   2.237  26.013  0.00  0.00    +0.040 A 
ATOM     27  C   UNL     1      -4.520   3.213  24.358  0.00  0.00    +0.040 A 
ATOM     28  C   UNL     1      -5.466   3.362  25.372  0.00  0.00    +0.124 A 
ENDBRANCH   2  23
ENDBRANCH  19   2
ENDBRANCH  18  19
TORSDOF 7
ENDMDL
MODEL 6
REMARK VINA RESULT:      -0.8      2.803      6.999
REMARK  Name = 26743460
REMARK  7 active torsions:
REMARK  status: ('A' for Active; 'I' for Inactive)
REMARK    1  A    between atoms: S_2  and  C_19
REMARK    2  A    between atoms: S_2  and  C_23
REMARK    3  A    between atoms: O_4  and  C_13
REMARK    4  A    between atoms: N_8  and  C_15
REMARK    5  A    between atoms: C_11  and  C_16
REMARK    6  A    between atoms: C_15  and  C_17
REMARK    7  A    between atoms: C_18  and  C_19
REMARK                            x       y       z     vdW  Elec       q    Type
REMARK                         _______ _______ _______ _____ _____    ______ ____
ROOT
ATOM      5  O   UNL     1      -3.978  -0.735  25.469  0.00  0.00    -0.336 OA
ATOM      9  N   UNL     1      -3.772   0.945  24.002  0.00  0.00    -0.193 NA
ATOM     10  N   UNL     1      -5.109   0.074  25.641  0.00  0.00    -0.060 NA
ATOM     16  C   UNL     1      -3.244  -0.151  24.486  0.00  0.00    +0.245 A 
ATOM     18  C   UNL     1      -4.915   1.043  24.742  0.00  0.00    +0.193 A 
ENDROOT
BRANCH  16  11
ATOM      8  N   UNL     1      -0.756  -0.069  24.492  0.00  0.00    -0.284 NA
ATOM     11  C   UNL     1      -1.953  -0.844  24.105  0.00  0.00    +0.149 C 
ATOM     12  C   UNL     1      -1.782  -2.207  24.799  0.00  0.00    +0.061 C 
ATOM     13  C   UNL     1      -0.439  -2.119  25.514  0.00  0.00    +0.130 C 
ATOM     14  C   UNL     1       0.303  -1.044  24.744  0.00  0.00    +0.116 C 
BRANCH  13   4
ATOM      4  O   UNL     1       0.237  -3.361  25.466  0.00  0.00    -0.390 OA
ATOM     29  H   UNL     1       0.475  -3.600  26.378  0.00  0.00    +0.210 HD
ENDBRANCH  13   4
BRANCH   8  15
ATOM     15  C   UNL     1      -0.365   0.919  23.495  0.00  0.00    +0.127 C 
BRANCH  15  17
ATOM      1  S   UNL     1       1.414  -0.415  21.824  0.00  0.00    -0.100 S 
ATOM     17  C   UNL     1       1.060   0.729  23.047  0.00  0.00    +0.004 A 
ATOM     20  C   UNL     1       2.192   1.373  23.495  0.00  0.00    +0.012 A 
ATOM     21  C   UNL     1       3.366   0.920  22.826  0.00  0.00    +0.008 A 
ATOM     22  C   UNL     1       3.086  -0.052  21.892  0.00  0.00    +0.045 A 
ENDBRANCH  15  17
ENDBRANCH   8  15
ENDBRANCH  16  11
BRANCH  18  19
ATOM     19  C   UNL     1      -5.872   2.139  24.562  0.00  0.00    +0.251 C 
BRANCH  19   2
ATOM      2  S   UNL     1      -5.548   3.381  25.784  0.00  0.00    +0.004 S 
ATOM      6  O   UNL     1      -5.664   2.753  27.087  0.00  0.00    -0.169 OA
ATOM      7  O   UNL     1      -6.330   4.559  25.462  0.00  0.00    -0.169 OA
BRANCH   2  23
ATOM      3  F   UNL     1       0.117   4.768  24.919  0.00  0.00    -0.205 F 
ATOM     23  C   UNL     1      -3.851   3.797  25.525  0.00  0.00    +0.089 A 
ATOM     24  C   UNL     1      -3.494   4.647  24.478  0.00  0.00    +0.030 A 
ATOM     25  C   UNL     1      -2.868   3.276  26.367  0.00  0.00    +0.030 A 
ATOM     26  C   UNL     1      -2.153   4.975  24.274  0.00  0.00    +0.040 A 
ATOM     27  C   UNL     1      -1.529   3.604  26.162  0.00  0.00    +0.040 A 
ATOM     28  C   UNL     1      -1.171   4.453  25.115  0.00  0.00    +0.124 A 
ENDBRANCH   2  23
ENDBRANCH  19   2
ENDBRANCH  18  19
TORSDOF 7
ENDMDL
MODEL 7
REMARK VINA RESULT:      -0.5      1.872      3.494
REMARK  Name = 26743460
REMARK  7 active torsions:
REMARK  status: ('A' for Active; 'I' for Inactive)
REMARK    1  A    between atoms: S_2  and  C_19
REMARK    2  A    between atoms: S_2  and  C_23
REMARK    3  A    between atoms: O_4  and  C_13
REMARK    4  A    between atoms: N_8  and  C_15
REMARK    5  A    between atoms: C_11  and  C_16
REMARK    6  A    between atoms: C_15  and  C_17
REMARK    7  A    between atoms: C_18  and  C_19
REMARK                            x       y       z     vdW  Elec       q    Type
REMARK                         _______ _______ _______ _____ _____    ______ ____
ROOT
ATOM      5  O   UNL     1      -1.436   1.150  25.963  0.00  0.00    -0.336 OA
ATOM      9  N   UNL     1      -1.018   0.197  23.980  0.00  0.00    -0.193 NA
ATOM     10  N   UNL     1      -0.227   1.697  25.516  0.00  0.00    -0.060 NA
ATOM     16  C   UNL     1      -1.833   0.277  25.001  0.00  0.00    +0.245 A 
ATOM     18  C   UNL     1      -0.047   1.087  24.341  0.00  0.00    +0.193 A 
ENDROOT
BRANCH  16  11
ATOM      8  N   UNL     1      -4.271   0.140  24.515  0.00  0.00    -0.284 NA
ATOM     11  C   UNL     1      -3.135  -0.456  25.248  0.00  0.00    +0.149 C 
ATOM     12  C   UNL     1      -3.091  -1.923  24.781  0.00  0.00    +0.061 C 
ATOM     13  C   UNL     1      -4.266  -2.067  23.823  0.00  0.00    +0.130 C 
ATOM     14  C   UNL     1      -5.204  -0.951  24.241  0.00  0.00    +0.116 C 
BRANCH  13   4
ATOM      4  O   UNL     1      -4.870  -3.339  23.959  0.00  0.00    -0.390 OA
ATOM     29  H   UNL     1      -4.548  -3.729  24.789  0.00  0.00    +0.210 HD
ENDBRANCH  13   4
BRANCH   8  15
ATOM     15  C   UNL     1      -4.905   1.237  25.233  0.00  0.00    +0.127 C 
BRANCH  15  17
ATOM      1  S   UNL     1      -3.490   2.961  23.570  0.00  0.00    -0.100 S 
ATOM     17  C   UNL     1      -4.128   2.520  25.097  0.00  0.00    +0.004 A 
ATOM     20  C   UNL     1      -3.834   3.451  26.068  0.00  0.00    +0.012 A 
ATOM     21  C   UNL     1      -3.073   4.540  25.553  0.00  0.00    +0.008 A 
ATOM     22  C   UNL     1      -2.816   4.400  24.207  0.00  0.00    +0.045 A 
ENDBRANCH  15  17
ENDBRANCH   8  15
ENDBRANCH  16  11
BRANCH  18  19
ATOM     19  C   UNL     1       1.120   1.358  23.495  0.00  0.00    +0.251 C 
BRANCH  19   2
ATOM      2  S   UNL     1       1.675  -0.169  22.788  0.00  0.00    +0.004 S 
ATOM      6  O   UNL     1       1.535  -0.059  21.347  0.00  0.00    -0.169 OA
ATOM      7  O   UNL     1       1.052  -1.264  23.507  0.00  0.00    -0.169 OA
BRANCH   2  23
ATOM      3  F   UNL     1       7.430  -0.304  24.063  0.00  0.00    -0.205 F 
ATOM     23  C   UNL     1       3.399  -0.210  23.169  0.00  0.00    +0.089 A 
ATOM     24  C   UNL     1       3.969  -1.369  23.695  0.00  0.00    +0.030 A 
ATOM     25  C   UNL     1       4.190   0.918  22.945  0.00  0.00    +0.030 A 
ATOM     26  C   UNL     1       5.331  -1.401  23.996  0.00  0.00    +0.040 A 
ATOM     27  C   UNL     1       5.551   0.885  23.247  0.00  0.00    +0.040 A 
ATOM     28  C   UNL     1       6.121  -0.274  23.773  0.00  0.00    +0.124 A 
ENDBRANCH   2  23
ENDBRANCH  19   2
ENDBRANCH  18  19
TORSDOF 7
ENDMDL
