MODEL 1
REMARK VINA RESULT:      -1.2      0.000      0.000
REMARK  Name = 40533517
REMARK  5 active torsions:
REMARK  status: ('A' for Active; 'I' for Inactive)
REMARK    1  A    between atoms: N_2  and  C_13
REMARK    2  A    between atoms: C_13  and  C_18
REMARK    3  A    between atoms: C_16  and  C_19
REMARK    4  A    between atoms: C_26  and  C_29
REMARK    5  A    between atoms: C_27  and  C_32
REMARK                            x       y       z     vdW  Elec       q    Type
REMARK                         _______ _______ _______ _____ _____    ______ ____
ROOT
ATOM      1  O   UNL     1      -4.677  -7.634  11.375  0.00  0.00    -0.267 OA
ATOM      2  N   UNL     1      -9.028 -10.009  10.607  0.00  0.00    -0.297 NA
ATOM      3  N   UNL     1      -6.169  -8.744   9.969  0.00  0.00    -0.311 N 
ATOM      6  C   UNL     1      -8.513  -7.845   9.451  0.00  0.00    +0.024 C 
ATOM      7  C   UNL     1      -7.771  -9.952   8.449  0.00  0.00    +0.050 C 
ATOM      8  C   UNL     1      -8.337  -8.572   8.124  0.00  0.00    +0.017 C 
ATOM      9  C   UNL     1      -9.477  -8.633  10.363  0.00  0.00    +0.090 C 
ATOM     10  C   UNL     1      -8.766 -10.720   9.347  0.00  0.00    +0.094 C 
ATOM     11  C   UNL     1      -7.132  -7.640  10.089  0.00  0.00    +0.130 C 
ATOM     12  C   UNL     1      -6.422  -9.833   9.132  0.00  0.00    +0.026 A 
ATOM     14  C   UNL     1      -5.482 -10.775   8.951  0.00  0.00    +0.022 A 
ATOM     15  C   UNL     1      -4.949  -8.596  10.656  0.00  0.00    +0.259 A 
ATOM     16  C   UNL     1      -3.928  -9.686  10.460  0.00  0.00    +0.047 A 
ATOM     17  C   UNL     1      -4.220 -10.699   9.631  0.00  0.00    +0.015 A 
ENDROOT
BRANCH  16  19
ATOM     19  C   UNL     1      -2.634  -9.655  11.164  0.00  0.00    -0.011 A 
ATOM     24  C   UNL     1      -2.555 -10.059  12.498  0.00  0.00    +0.027 A 
ATOM     25  C   UNL     1      -1.488  -9.224  10.497  0.00  0.00    +0.009 A 
ATOM     27  C   UNL     1      -1.330 -10.031  13.163  0.00  0.00    +0.052 A 
ATOM     28  C   UNL     1      -0.263  -9.196  11.163  0.00  0.00    +0.002 A 
ATOM     30  C   UNL     1      -0.183  -9.600  12.496  0.00  0.00    +0.019 A 
BRANCH  27  32
ATOM      5  N   UNL     1      -1.181 -10.781  15.638  0.00  0.00    -0.191 NA
ATOM     32  C   UNL     1      -1.248 -10.445  14.529  0.00  0.00    +0.099 C 
ENDBRANCH  27  32
ENDBRANCH  16  19
BRANCH   2  13
ATOM     13  C   UNL     1      -9.991 -10.736  11.429  0.00  0.00    +0.119 C 
BRANCH  13  18
ATOM     18  C   UNL     1      -9.609 -10.722  12.886  0.00  0.00    -0.033 A 
ATOM     20  C   UNL     1      -8.265 -10.781  13.255  0.00  0.00    +0.005 A 
ATOM     21  C   UNL     1     -10.599 -10.650  13.866  0.00  0.00    +0.005 A 
ATOM     22  C   UNL     1      -7.911 -10.767  14.604  0.00  0.00    +0.010 A 
ATOM     23  C   UNL     1     -10.245 -10.637  15.216  0.00  0.00    +0.010 A 
ATOM     26  C   UNL     1      -8.900 -10.696  15.584  0.00  0.00    +0.000 A 
BRANCH  26  29
ATOM      4  N   UNL     1      -7.204 -10.665  17.227  0.00  0.00    -0.255 NA
ATOM     29  C   UNL     1      -8.534 -10.682  16.984  0.00  0.00    +0.071 A 
ATOM     31  C   UNL     1      -9.502 -10.687  17.976  0.00  0.00    +0.028 A 
ATOM     33  C   UNL     1      -9.079 -10.673  19.299  0.00  0.00    +0.004 A 
ATOM     34  C   UNL     1      -6.830 -10.652  18.525  0.00  0.00    +0.111 A 
ATOM     35  C   UNL     1      -7.719 -10.656  19.588  0.00  0.00    +0.020 A 
ENDBRANCH  26  29
ENDBRANCH  13  18
ENDBRANCH   2  13
TORSDOF 5
ENDMDL
