MODEL 1
REMARK VINA RESULT:      -1.8      0.000      0.000
REMARK  Name = 45361613
REMARK  12 active torsions:
REMARK  status: ('A' for Active; 'I' for Inactive)
REMARK    1  A    between atoms: O_1  and  C_11
REMARK    2  A    between atoms: N_4  and  C_15
REMARK    3  A    between atoms: N_5  and  C_25
REMARK    4  A    between atoms: N_5  and  C_26
REMARK    5  A    between atoms: C_8  and  C_18
REMARK    6  A    between atoms: C_10  and  C_20
REMARK    7  A    between atoms: C_13  and  C_19
REMARK    8  A    between atoms: C_19  and  C_21
REMARK    9  A    between atoms: C_19  and  C_22
REMARK   10  A    between atoms: C_23  and  C_24
REMARK   11  A    between atoms: C_25  and  C_27
REMARK   12  A    between atoms: C_27  and  C_31
REMARK                            x       y       z     vdW  Elec       q    Type
REMARK                         _______ _______ _______ _____ _____    ______ ____
ROOT
ATOM      8  C   UNL     1      -2.752  -0.976  24.915  0.00  0.00    -0.027 C 
ATOM      9  C   UNL     1      -2.261   0.164  23.961  0.00  0.00    +0.028 C 
ATOM     10  C   UNL     1      -0.702   0.332  24.048  0.00  0.00    +0.012 C 
ATOM     11  C   UNL     1      -3.086   1.467  24.169  0.00  0.00    +0.122 C 
ATOM     12  C   UNL     1      -4.272  -1.191  24.722  0.00  0.00    +0.007 C 
ATOM     13  C   UNL     1      -4.611   1.225  24.078  0.00  0.00    +0.029 C 
ATOM     14  C   UNL     1      -2.038  -2.294  24.534  0.00  0.00    +0.009 C 
ATOM     15  C   UNL     1       0.003  -1.018  23.736  0.00  0.00    +0.076 C 
ATOM     16  C   UNL     1      -5.086   0.072  24.964  0.00  0.00    +0.007 C 
ATOM     17  C   UNL     1      -0.520  -2.185  24.574  0.00  0.00    +0.023 C 
ATOM     18  C   UNL     1      -2.479  -0.661  26.408  0.00  0.00    +0.011 C 
ATOM     20  C   UNL     1      -0.147   1.419  23.112  0.00  0.00    +0.010 C 
ENDROOT
BRANCH  15   4
ATOM      3  O   UNL     1       1.929  -0.132  21.800  0.00  0.00    -0.269 OA
ATOM      4  N   UNL     1       1.437  -0.930  23.920  0.00  0.00    -0.307 N 
ATOM     23  C   UNL     1       2.285  -0.488  22.920  0.00  0.00    +0.263 C 
ATOM     33  H   UNL     1       1.833  -1.258  24.797  0.00  0.00    +0.149 HD
BRANCH  23  24
ATOM      6  N   UNL     1       4.217  -1.624  23.790  0.00  0.00    -0.250 NA
ATOM     24  C   UNL     1       3.733  -0.479  23.258  0.00  0.00    +0.125 A 
ATOM     28  C   UNL     1       4.497   0.653  23.024  0.00  0.00    +0.033 A 
ATOM     29  C   UNL     1       5.846   0.606  23.357  0.00  0.00    +0.004 A 
ATOM     30  C   UNL     1       5.532  -1.631  24.102  0.00  0.00    +0.111 A 
ATOM     32  C   UNL     1       6.382  -0.554  23.907  0.00  0.00    +0.020 A 
ENDBRANCH  23  24
ENDBRANCH  15   4
BRANCH  11   1
ATOM      1  O   UNL     1      -2.760   2.406  23.144  0.00  0.00    -0.391 OA
ATOM     34  H   UNL     1      -3.472   3.067  23.103  0.00  0.00    +0.210 HD
ENDBRANCH  11   1
BRANCH  13  19
ATOM     19  C   UNL     1      -5.408   2.491  24.414  0.00  0.00    +0.078 C 
ATOM     21  C   UNL     1      -5.079   3.585  23.398  0.00  0.00    +0.017 C 
BRANCH  19  22
ATOM      2  O   UNL     1      -5.795   2.577  26.776  0.00  0.00    -0.275 OA
ATOM      5  N   UNL     1      -3.978   3.792  26.015  0.00  0.00    -0.303 N 
ATOM     22  C   UNL     1      -5.079   2.947  25.838  0.00  0.00    +0.219 C 
ATOM     26  C   UNL     1      -3.651   4.263  27.356  0.00  0.00    +0.132 C 
BRANCH   5  25
ATOM     25  C   UNL     1      -3.064   4.245  24.969  0.00  0.00    +0.122 C 
BRANCH  25  27
ATOM     27  C   UNL     1      -1.706   4.660  25.523  0.00  0.00    +0.137 C 
BRANCH  27  31
ATOM      7  N   UNL     1      -0.305   2.590  26.341  0.00  0.00    -0.197 NA
ATOM     31  C   UNL     1      -0.924   3.503  25.979  0.00  0.00    +0.064 C 
ENDBRANCH  27  31
ENDBRANCH  25  27
ENDBRANCH   5  25
ENDBRANCH  19  22
ENDBRANCH  13  19
TORSDOF 8
ENDMDL
MODEL 2
REMARK VINA RESULT:       1.2      1.436      1.957
REMARK  Name = 45361613
REMARK  12 active torsions:
REMARK  status: ('A' for Active; 'I' for Inactive)
REMARK    1  A    between atoms: O_1  and  C_11
REMARK    2  A    between atoms: N_4  and  C_15
REMARK    3  A    between atoms: N_5  and  C_25
REMARK    4  A    between atoms: N_5  and  C_26
REMARK    5  A    between atoms: C_8  and  C_18
REMARK    6  A    between atoms: C_10  and  C_20
REMARK    7  A    between atoms: C_13  and  C_19
REMARK    8  A    between atoms: C_19  and  C_21
REMARK    9  A    between atoms: C_19  and  C_22
REMARK   10  A    between atoms: C_23  and  C_24
REMARK   11  A    between atoms: C_25  and  C_27
REMARK   12  A    between atoms: C_27  and  C_31
REMARK                            x       y       z     vdW  Elec       q    Type
REMARK                         _______ _______ _______ _____ _____    ______ ____
ROOT
ATOM      8  C   UNL     1      -2.635  -1.044  24.875  0.00  0.00    -0.027 C 
ATOM      9  C   UNL     1      -2.103   0.383  24.516  0.00  0.00    +0.028 C 
ATOM     10  C   UNL     1      -0.539   0.446  24.651  0.00  0.00    +0.012 C 
ATOM     11  C   UNL     1      -2.885   1.487  25.287  0.00  0.00    +0.122 C 
ATOM     12  C   UNL     1      -4.161  -1.104  24.624  0.00  0.00    +0.007 C 
ATOM     13  C   UNL     1      -4.417   1.358  25.116  0.00  0.00    +0.029 C 
ATOM     14  C   UNL     1      -1.965  -2.081  23.944  0.00  0.00    +0.009 C 
ATOM     15  C   UNL     1       0.122  -0.650  23.768  0.00  0.00    +0.076 C 
ATOM     16  C   UNL     1      -4.933  -0.051  25.407  0.00  0.00    +0.007 C 
ATOM     17  C   UNL     1      -0.444  -2.049  24.011  0.00  0.00    +0.023 C 
ATOM     18  C   UNL     1      -2.358  -1.429  26.351  0.00  0.00    +0.011 C 
ATOM     20  C   UNL     1       0.056   1.816  24.284  0.00  0.00    +0.010 C 
ENDROOT
BRANCH  15   4
ATOM      3  O   UNL     1       2.127   0.112  21.860  0.00  0.00    -0.269 OA
ATOM      4  N   UNL     1       1.557  -0.697  23.956  0.00  0.00    -0.307 N 
ATOM     23  C   UNL     1       2.445  -0.306  22.970  0.00  0.00    +0.263 C 
ATOM     33  H   UNL     1       1.918  -1.085  24.824  0.00  0.00    +0.149 HD
BRANCH  23  24
ATOM      6  N   UNL     1       4.268  -1.646  23.784  0.00  0.00    -0.250 NA
ATOM     24  C   UNL     1       3.886  -0.439  23.310  0.00  0.00    +0.125 A 
ATOM     28  C   UNL     1       4.747   0.633  23.134  0.00  0.00    +0.033 A 
ATOM     29  C   UNL     1       6.085   0.454  23.466  0.00  0.00    +0.004 A 
ATOM     30  C   UNL     1       5.576  -1.782  24.097  0.00  0.00    +0.111 A 
ATOM     32  C   UNL     1       6.515  -0.774  23.957  0.00  0.00    +0.020 A 
ENDBRANCH  23  24
ENDBRANCH  15   4
BRANCH  11   1
ATOM      1  O   UNL     1      -2.523   2.770  24.777  0.00  0.00    -0.391 OA
ATOM     34  H   UNL     1      -3.308   3.344  24.818  0.00  0.00    +0.210 HD
ENDBRANCH  11   1
BRANCH  13  19
ATOM     19  C   UNL     1      -5.172   2.371  25.985  0.00  0.00    +0.078 C 
ATOM     21  C   UNL     1      -6.677   2.209  25.765  0.00  0.00    +0.017 C 
BRANCH  19  22
ATOM      2  O   UNL     1      -4.501   4.599  26.551  0.00  0.00    -0.275 OA
ATOM      5  N   UNL     1      -4.579   4.122  24.287  0.00  0.00    -0.303 N 
ATOM     22  C   UNL     1      -4.716   3.791  25.640  0.00  0.00    +0.219 C 
ATOM     26  C   UNL     1      -4.168   5.473  23.924  0.00  0.00    +0.132 C 
BRANCH   5  25
ATOM     25  C   UNL     1      -4.779   3.220  23.155  0.00  0.00    +0.122 C 
BRANCH  25  27
ATOM     27  C   UNL     1      -3.853   3.538  21.987  0.00  0.00    +0.137 C 
BRANCH  27  31
ATOM      7  N   UNL     1      -2.157   1.581  21.524  0.00  0.00    -0.197 NA
ATOM     31  C   UNL     1      -2.904   2.445  21.728  0.00  0.00    +0.064 C 
ENDBRANCH  27  31
ENDBRANCH  25  27
ENDBRANCH   5  25
ENDBRANCH  19  22
ENDBRANCH  13  19
TORSDOF 8
ENDMDL
