MODEL 1
REMARK VINA RESULT:      -3.8      0.000      0.000
REMARK  Name = 71694054
REMARK  9 active torsions:
REMARK  status: ('A' for Active; 'I' for Inactive)
REMARK    1  A    between atoms: O_4  and  C_11
REMARK    2  A    between atoms: O_5  and  C_13
REMARK    3  A    between atoms: O_6  and  C_26
REMARK    4  A    between atoms: O_6  and  C_27
REMARK    5  A    between atoms: N_7  and  C_9
REMARK    6  A    between atoms: N_7  and  C_15
REMARK    7  A    between atoms: C_10  and  C_14
REMARK    8  A    between atoms: C_15  and  C_18
REMARK    9  A    between atoms: C_20  and  C_23
REMARK                            x       y       z     vdW  Elec       q    Type
REMARK                         _______ _______ _______ _____ _____    ______ ____
ROOT
ATOM      9  C   UNL     1      -3.210   3.642  25.405  0.00  0.00    +0.093 C 
ATOM     10  C   UNL     1      -4.092   2.930  24.332  0.00  0.00    +0.042 C 
ATOM     11  C   UNL     1      -4.197   4.450  26.264  0.00  0.00    +0.160 C 
ATOM     12  C   UNL     1      -5.540   3.375  24.615  0.00  0.00    +0.043 C 
ATOM     13  C   UNL     1      -5.374   4.709  25.327  0.00  0.00    +0.145 C 
ENDROOT
BRANCH  10  14
ATOM      8  N   UNL     1      -4.107  -0.698  25.438  0.00  0.00    -0.251 NA
ATOM     14  C   UNL     1      -3.925   1.425  24.297  0.00  0.00    -0.025 A 
ATOM     16  C   UNL     1      -3.458   0.782  23.157  0.00  0.00    +0.007 A 
ATOM     17  C   UNL     1      -4.233   0.647  25.402  0.00  0.00    +0.115 A 
ATOM     19  C   UNL     1      -3.316  -0.601  23.155  0.00  0.00    +0.032 A 
ATOM     20  C   UNL     1      -3.650  -1.289  24.311  0.00  0.00    +0.144 A 
BRANCH  20  23
ATOM      1  F   UNL     1      -3.500  -3.293  25.608  0.00  0.00    -0.164 F 
ATOM      2  F   UNL     1      -2.361  -3.228  23.762  0.00  0.00    -0.164 F 
ATOM      3  F   UNL     1      -4.527  -3.412  23.695  0.00  0.00    -0.164 F 
ATOM     23  C   UNL     1      -3.511  -2.774  24.344  0.00  0.00    +0.434 C 
ENDBRANCH  20  23
ENDBRANCH  10  14
BRANCH  11   4
ATOM      4  O   UNL     1      -4.600   3.639  27.367  0.00  0.00    -0.388 OA
ATOM     29  H   UNL     1      -4.117   3.952  28.151  0.00  0.00    +0.210 HD
ENDBRANCH  11   4
BRANCH  13   5
ATOM      5  O   UNL     1      -6.550   5.075  26.020  0.00  0.00    -0.389 OA
ATOM     30  H   UNL     1      -7.137   4.300  26.028  0.00  0.00    +0.210 HD
ENDBRANCH  13   5
BRANCH   9   7
ATOM      7  N   UNL     1      -2.269   4.548  24.743  0.00  0.00    -0.306 NA
ATOM     28  H   UNL     1      -2.448   5.503  25.055  0.00  0.00    +0.123 HD
BRANCH   7  15
ATOM     15  C   UNL     1      -0.895   4.202  25.073  0.00  0.00    +0.116 C 
BRANCH  15  18
ATOM     18  C   UNL     1      -0.628   2.730  24.896  0.00  0.00    -0.033 A 
ATOM     21  C   UNL     1      -0.845   1.849  25.955  0.00  0.00    +0.008 A 
ATOM     22  C   UNL     1      -0.167   2.248  23.671  0.00  0.00    +0.008 A 
ATOM     24  C   UNL     1      -0.599   0.487  25.790  0.00  0.00    +0.046 A 
ATOM     25  C   UNL     1       0.080   0.886  23.505  0.00  0.00    +0.046 A 
ATOM     26  C   UNL     1      -0.136   0.004  24.565  0.00  0.00    +0.120 A 
BRANCH  26   6
ATOM      6  O   UNL     1       0.103  -1.326  24.403  0.00  0.00    -0.495 OA
ATOM     27  C   UNL     1      -0.165  -2.174  25.518  0.00  0.00    +0.277 C 
ENDBRANCH  26   6
ENDBRANCH  15  18
ENDBRANCH   7  15
ENDBRANCH   9   7
TORSDOF 8
ENDMDL
MODEL 2
REMARK VINA RESULT:      -2.2      3.068      4.762
REMARK  Name = 71694054
REMARK  9 active torsions:
REMARK  status: ('A' for Active; 'I' for Inactive)
REMARK    1  A    between atoms: O_4  and  C_11
REMARK    2  A    between atoms: O_5  and  C_13
REMARK    3  A    between atoms: O_6  and  C_26
REMARK    4  A    between atoms: O_6  and  C_27
REMARK    5  A    between atoms: N_7  and  C_9
REMARK    6  A    between atoms: N_7  and  C_15
REMARK    7  A    between atoms: C_10  and  C_14
REMARK    8  A    between atoms: C_15  and  C_18
REMARK    9  A    between atoms: C_20  and  C_23
REMARK                            x       y       z     vdW  Elec       q    Type
REMARK                         _______ _______ _______ _____ _____    ______ ____
ROOT
ATOM      9  C   UNL     1      -3.003   3.108  24.026  0.00  0.00    +0.093 C 
ATOM     10  C   UNL     1      -2.217   2.144  24.969  0.00  0.00    +0.042 C 
ATOM     11  C   UNL     1      -3.172   4.407  24.831  0.00  0.00    +0.160 C 
ATOM     12  C   UNL     1      -1.987   2.929  26.275  0.00  0.00    +0.043 C 
ATOM     13  C   UNL     1      -3.115   3.949  26.285  0.00  0.00    +0.145 C 
ENDROOT
BRANCH  10  14
ATOM      8  N   UNL     1       1.386   1.942  23.801  0.00  0.00    -0.251 NA
ATOM     14  C   UNL     1      -0.939   1.599  24.368  0.00  0.00    -0.025 A 
ATOM     16  C   UNL     1      -0.886   0.314  23.841  0.00  0.00    +0.007 A 
ATOM     17  C   UNL     1       0.213   2.366  24.323  0.00  0.00    +0.115 A 
ATOM     19  C   UNL     1       0.302  -0.160  23.295  0.00  0.00    +0.032 A 
ATOM     20  C   UNL     1       1.400   0.686  23.298  0.00  0.00    +0.144 A 
BRANCH  20  23
ATOM      1  F   UNL     1       3.738   1.057  22.957  0.00  0.00    -0.164 F 
ATOM      2  F   UNL     1       2.658   0.054  21.365  0.00  0.00    -0.164 F 
ATOM      3  F   UNL     1       3.076  -0.998  23.221  0.00  0.00    -0.164 F 
ATOM     23  C   UNL     1       2.691   0.212  22.721  0.00  0.00    +0.434 C 
ENDBRANCH  20  23
ENDBRANCH  10  14
BRANCH  11   4
ATOM      4  O   UNL     1      -2.075   5.268  24.529  0.00  0.00    -0.388 OA
ATOM     29  H   UNL     1      -1.611   4.891  23.762  0.00  0.00    +0.210 HD
ENDBRANCH  11   4
BRANCH  13   5
ATOM      5  O   UNL     1      -2.845   5.010  27.179  0.00  0.00    -0.389 OA
ATOM     30  H   UNL     1      -3.529   4.991  27.870  0.00  0.00    +0.210 HD
ENDBRANCH  13   5
BRANCH   9   7
ATOM      7  N   UNL     1      -4.316   2.535  23.723  0.00  0.00    -0.306 NA
ATOM     28  H   UNL     1      -4.233   1.916  22.916  0.00  0.00    +0.123 HD
BRANCH   7  15
ATOM     15  C   UNL     1      -4.818   1.763  24.850  0.00  0.00    +0.116 C 
BRANCH  15  18
ATOM     18  C   UNL     1      -4.372   0.326  24.790  0.00  0.00    -0.033 A 
ATOM     21  C   UNL     1      -4.454  -0.381  23.591  0.00  0.00    +0.008 A 
ATOM     22  C   UNL     1      -3.874  -0.297  25.935  0.00  0.00    +0.008 A 
ATOM     24  C   UNL     1      -4.039  -1.711  23.535  0.00  0.00    +0.046 A 
ATOM     25  C   UNL     1      -3.460  -1.628  25.880  0.00  0.00    +0.046 A 
ATOM     26  C   UNL     1      -3.542  -2.335  24.680  0.00  0.00    +0.120 A 
BRANCH  26   6
ATOM      6  O   UNL     1      -3.137  -3.633  24.626  0.00  0.00    -0.495 OA
ATOM     27  C   UNL     1      -2.305  -4.009  23.530  0.00  0.00    +0.277 C 
ENDBRANCH  26   6
ENDBRANCH  15  18
ENDBRANCH   7  15
ENDBRANCH   9   7
TORSDOF 8
ENDMDL
MODEL 3
REMARK VINA RESULT:      -1.6      2.864      4.442
REMARK  Name = 71694054
REMARK  9 active torsions:
REMARK  status: ('A' for Active; 'I' for Inactive)
REMARK    1  A    between atoms: O_4  and  C_11
REMARK    2  A    between atoms: O_5  and  C_13
REMARK    3  A    between atoms: O_6  and  C_26
REMARK    4  A    between atoms: O_6  and  C_27
REMARK    5  A    between atoms: N_7  and  C_9
REMARK    6  A    between atoms: N_7  and  C_15
REMARK    7  A    between atoms: C_10  and  C_14
REMARK    8  A    between atoms: C_15  and  C_18
REMARK    9  A    between atoms: C_20  and  C_23
REMARK                            x       y       z     vdW  Elec       q    Type
REMARK                         _______ _______ _______ _____ _____    ______ ____
ROOT
ATOM      9  C   UNL     1      -3.790   2.259  24.274  0.00  0.00    +0.093 C 
ATOM     10  C   UNL     1      -2.429   2.800  24.813  0.00  0.00    +0.042 C 
ATOM     11  C   UNL     1      -4.496   3.482  23.665  0.00  0.00    +0.160 C 
ATOM     12  C   UNL     1      -2.425   4.310  24.504  0.00  0.00    +0.043 C 
ATOM     13  C   UNL     1      -3.902   4.665  24.424  0.00  0.00    +0.145 C 
ENDROOT
BRANCH  10  14
ATOM      8  N   UNL     1       1.186   1.829  24.207  0.00  0.00    -0.251 NA
ATOM     14  C   UNL     1      -1.218   2.075  24.267  0.00  0.00    -0.025 A 
ATOM     16  C   UNL     1      -1.355   1.031  23.360  0.00  0.00    +0.007 A 
ATOM     17  C   UNL     1       0.063   2.433  24.656  0.00  0.00    +0.115 A 
ATOM     19  C   UNL     1      -0.224   0.385  22.875  0.00  0.00    +0.032 A 
ATOM     20  C   UNL     1       1.013   0.817  23.326  0.00  0.00    +0.144 A 
BRANCH  20  23
ATOM      1  F   UNL     1       2.536  -1.020  23.478  0.00  0.00    -0.164 F 
ATOM      2  F   UNL     1       3.374   0.911  22.952  0.00  0.00    -0.164 F 
ATOM      3  F   UNL     1       2.172  -0.180  21.505  0.00  0.00    -0.164 F 
ATOM     23  C   UNL     1       2.249   0.146  22.828  0.00  0.00    +0.434 C 
ENDBRANCH  20  23
ENDBRANCH  10  14
BRANCH  11   4
ATOM      4  O   UNL     1      -4.159   3.550  22.280  0.00  0.00    -0.388 OA
ATOM     29  H   UNL     1      -4.730   4.225  21.874  0.00  0.00    +0.210 HD
ENDBRANCH  11   4
BRANCH  13   5
ATOM      5  O   UNL     1      -4.103   5.895  23.757  0.00  0.00    -0.389 OA
ATOM     30  H   UNL     1      -4.747   5.739  23.046  0.00  0.00    +0.210 HD
ENDBRANCH  13   5
BRANCH   9   7
ATOM      7  N   UNL     1      -4.583   1.730  25.387  0.00  0.00    -0.306 NA
ATOM     28  H   UNL     1      -5.403   2.321  25.523  0.00  0.00    +0.123 HD
BRANCH   7  15
ATOM     15  C   UNL     1      -5.028   0.373  25.108  0.00  0.00    +0.116 C 
BRANCH  15  18
ATOM     18  C   UNL     1      -3.881  -0.602  25.094  0.00  0.00    -0.033 A 
ATOM     21  C   UNL     1      -3.838  -1.615  24.136  0.00  0.00    +0.008 A 
ATOM     22  C   UNL     1      -2.859  -0.492  26.038  0.00  0.00    +0.008 A 
ATOM     24  C   UNL     1      -2.775  -2.518  24.121  0.00  0.00    +0.046 A 
ATOM     25  C   UNL     1      -1.796  -1.394  26.024  0.00  0.00    +0.046 A 
ATOM     26  C   UNL     1      -1.754  -2.408  25.066  0.00  0.00    +0.120 A 
BRANCH  26   6
ATOM      6  O   UNL     1      -0.716  -3.288  25.052  0.00  0.00    -0.495 OA
ATOM     27  C   UNL     1       0.567  -2.784  25.421  0.00  0.00    +0.277 C 
ENDBRANCH  26   6
ENDBRANCH  15  18
ENDBRANCH   7  15
ENDBRANCH   9   7
TORSDOF 8
ENDMDL
MODEL 4
REMARK VINA RESULT:      -1.2      4.225      6.892
REMARK  Name = 71694054
REMARK  9 active torsions:
REMARK  status: ('A' for Active; 'I' for Inactive)
REMARK    1  A    between atoms: O_4  and  C_11
REMARK    2  A    between atoms: O_5  and  C_13
REMARK    3  A    between atoms: O_6  and  C_26
REMARK    4  A    between atoms: O_6  and  C_27
REMARK    5  A    between atoms: N_7  and  C_9
REMARK    6  A    between atoms: N_7  and  C_15
REMARK    7  A    between atoms: C_10  and  C_14
REMARK    8  A    between atoms: C_15  and  C_18
REMARK    9  A    between atoms: C_20  and  C_23
REMARK                            x       y       z     vdW  Elec       q    Type
REMARK                         _______ _______ _______ _____ _____    ______ ____
ROOT
ATOM      9  C   UNL     1      -0.473   0.987  23.954  0.00  0.00    +0.093 C 
ATOM     10  C   UNL     1       0.228  -0.196  23.215  0.00  0.00    +0.042 C 
ATOM     11  C   UNL     1      -1.408   0.324  24.978  0.00  0.00    +0.160 C 
ATOM     12  C   UNL     1      -0.350  -1.481  23.838  0.00  0.00    +0.043 C 
ATOM     13  C   UNL     1      -1.706  -1.044  24.372  0.00  0.00    +0.145 C 
ENDROOT
BRANCH  10  14
ATOM      8  N   UNL     1       3.834  -1.251  23.733  0.00  0.00    -0.251 NA
ATOM     14  C   UNL     1       1.740  -0.140  23.257  0.00  0.00    -0.025 A 
ATOM     16  C   UNL     1       2.426   1.009  22.882  0.00  0.00    +0.007 A 
ATOM     17  C   UNL     1       2.483  -1.233  23.672  0.00  0.00    +0.115 A 
ATOM     19  C   UNL     1       3.815   1.031  22.931  0.00  0.00    +0.032 A 
ATOM     20  C   UNL     1       4.467  -0.115  23.360  0.00  0.00    +0.144 A 
BRANCH  20  23
ATOM      1  F   UNL     1       6.501   1.084  23.740  0.00  0.00    -0.164 F 
ATOM      2  F   UNL     1       6.552  -0.492  22.251  0.00  0.00    -0.164 F 
ATOM      3  F   UNL     1       6.433  -0.999  24.362  0.00  0.00    -0.164 F 
ATOM     23  C   UNL     1       5.957  -0.128  23.425  0.00  0.00    +0.434 C 
ENDBRANCH  20  23
ENDBRANCH  10  14
BRANCH  11   4
ATOM      4  O   UNL     1      -0.700   0.187  26.209  0.00  0.00    -0.388 OA
ATOM     29  H   UNL     1      -1.035   0.870  26.816  0.00  0.00    +0.210 HD
ENDBRANCH  11   4
BRANCH  13   5
ATOM      5  O   UNL     1      -2.208  -1.962  25.322  0.00  0.00    -0.389 OA
ATOM     30  H   UNL     1      -3.173  -2.005  25.205  0.00  0.00    +0.210 HD
ENDBRANCH  13   5
BRANCH   9   7
ATOM      7  N   UNL     1      -1.258   1.768  22.994  0.00  0.00    -0.306 NA
ATOM     28  H   UNL     1      -2.121   1.267  22.783  0.00  0.00    +0.123 HD
BRANCH   7  15
ATOM     15  C   UNL     1      -1.599   3.072  23.541  0.00  0.00    +0.116 C 
BRANCH  15  18
ATOM     18  C   UNL     1      -2.867   3.027  24.352  0.00  0.00    -0.033 A 
ATOM     21  C   UNL     1      -3.927   2.218  23.945  0.00  0.00    +0.008 A 
ATOM     22  C   UNL     1      -2.980   3.792  25.513  0.00  0.00    +0.008 A 
ATOM     24  C   UNL     1      -5.101   2.175  24.697  0.00  0.00    +0.046 A 
ATOM     25  C   UNL     1      -4.153   3.751  26.265  0.00  0.00    +0.046 A 
ATOM     26  C   UNL     1      -5.215   2.941  25.857  0.00  0.00    +0.120 A 
BRANCH  26   6
ATOM      6  O   UNL     1      -6.360   2.899  26.592  0.00  0.00    -0.495 OA
ATOM     27  C   UNL     1      -6.832   1.612  26.984  0.00  0.00    +0.277 C 
ENDBRANCH  26   6
ENDBRANCH  15  18
ENDBRANCH   7  15
ENDBRANCH   9   7
TORSDOF 8
ENDMDL
MODEL 5
REMARK VINA RESULT:      -1.0      3.594      6.055
REMARK  Name = 71694054
REMARK  9 active torsions:
REMARK  status: ('A' for Active; 'I' for Inactive)
REMARK    1  A    between atoms: O_4  and  C_11
REMARK    2  A    between atoms: O_5  and  C_13
REMARK    3  A    between atoms: O_6  and  C_26
REMARK    4  A    between atoms: O_6  and  C_27
REMARK    5  A    between atoms: N_7  and  C_9
REMARK    6  A    between atoms: N_7  and  C_15
REMARK    7  A    between atoms: C_10  and  C_14
REMARK    8  A    between atoms: C_15  and  C_18
REMARK    9  A    between atoms: C_20  and  C_23
REMARK                            x       y       z     vdW  Elec       q    Type
REMARK                         _______ _______ _______ _____ _____    ______ ____
ROOT
ATOM      9  C   UNL     1      -3.007  -0.314  24.647  0.00  0.00    +0.093 C 
ATOM     10  C   UNL     1      -2.072  -1.156  23.725  0.00  0.00    +0.042 C 
ATOM     11  C   UNL     1      -3.431  -1.272  25.772  0.00  0.00    +0.160 C 
ATOM     12  C   UNL     1      -2.016  -2.562  24.354  0.00  0.00    +0.043 C 
ATOM     13  C   UNL     1      -3.315  -2.656  25.140  0.00  0.00    +0.145 C 
ENDROOT
BRANCH  10  14
ATOM      8  N   UNL     1       1.406  -0.569  22.330  0.00  0.00    -0.251 NA
ATOM     14  C   UNL     1      -0.704  -0.544  23.509  0.00  0.00    -0.025 A 
ATOM     16  C   UNL     1      -0.288   0.559  24.246  0.00  0.00    +0.007 A 
ATOM     17  C   UNL     1       0.172  -1.066  22.572  0.00  0.00    +0.115 A 
ATOM     19  C   UNL     1       0.974   1.099  24.026  0.00  0.00    +0.032 A 
ATOM     20  C   UNL     1       1.776   0.504  23.065  0.00  0.00    +0.144 A 
BRANCH  20  23
ATOM      1  F   UNL     1       4.080   0.634  23.694  0.00  0.00    -0.164 F 
ATOM      2  F   UNL     1       3.189   2.421  22.847  0.00  0.00    -0.164 F 
ATOM      3  F   UNL     1       3.614   0.712  21.572  0.00  0.00    -0.164 F 
ATOM     23  C   UNL     1       3.137   1.057  22.802  0.00  0.00    +0.434 C 
ENDBRANCH  20  23
ENDBRANCH  10  14
BRANCH  11   4
ATOM      4  O   UNL     1      -2.509  -1.131  26.852  0.00  0.00    -0.388 OA
ATOM     29  H   UNL     1      -1.645  -0.900  26.470  0.00  0.00    +0.210 HD
ENDBRANCH  11   4
BRANCH  13   5
ATOM      5  O   UNL     1      -3.264  -3.690  26.101  0.00  0.00    -0.389 OA
ATOM     30  H   UNL     1      -2.758  -3.357  26.862  0.00  0.00    +0.210 HD
ENDBRANCH  13   5
BRANCH   9   7
ATOM      7  N   UNL     1      -4.185   0.116  23.889  0.00  0.00    -0.306 NA
ATOM     28  H   UNL     1      -4.833  -0.667  23.805  0.00  0.00    +0.123 HD
BRANCH   7  15
ATOM     15  C   UNL     1      -4.865   1.212  24.563  0.00  0.00    +0.116 C 
BRANCH  15  18
ATOM     18  C   UNL     1      -3.956   2.394  24.772  0.00  0.00    -0.033 A 
ATOM     21  C   UNL     1      -4.055   3.153  25.937  0.00  0.00    +0.008 A 
ATOM     22  C   UNL     1      -3.013   2.729  23.799  0.00  0.00    +0.008 A 
ATOM     24  C   UNL     1      -3.212   4.247  26.131  0.00  0.00    +0.046 A 
ATOM     25  C   UNL     1      -2.170   3.823  23.991  0.00  0.00    +0.046 A 
ATOM     26  C   UNL     1      -2.270   4.583  25.158  0.00  0.00    +0.120 A 
BRANCH  26   6
ATOM      6  O   UNL     1      -1.446   5.650  25.346  0.00  0.00    -0.495 OA
ATOM     27  C   UNL     1      -0.233   5.674  24.597  0.00  0.00    +0.277 C 
ENDBRANCH  26   6
ENDBRANCH  15  18
ENDBRANCH   7  15
ENDBRANCH   9   7
TORSDOF 8
ENDMDL
MODEL 6
REMARK VINA RESULT:      -0.7      3.469      6.432
REMARK  Name = 71694054
REMARK  9 active torsions:
REMARK  status: ('A' for Active; 'I' for Inactive)
REMARK    1  A    between atoms: O_4  and  C_11
REMARK    2  A    between atoms: O_5  and  C_13
REMARK    3  A    between atoms: O_6  and  C_26
REMARK    4  A    between atoms: O_6  and  C_27
REMARK    5  A    between atoms: N_7  and  C_9
REMARK    6  A    between atoms: N_7  and  C_15
REMARK    7  A    between atoms: C_10  and  C_14
REMARK    8  A    between atoms: C_15  and  C_18
REMARK    9  A    between atoms: C_20  and  C_23
REMARK                            x       y       z     vdW  Elec       q    Type
REMARK                         _______ _______ _______ _____ _____    ______ ____
ROOT
ATOM      9  C   UNL     1       0.511  -0.626  24.041  0.00  0.00    +0.093 C 
ATOM     10  C   UNL     1      -0.455   0.168  23.107  0.00  0.00    +0.042 C 
ATOM     11  C   UNL     1       1.873  -0.598  23.327  0.00  0.00    +0.160 C 
ATOM     12  C   UNL     1       0.392   0.600  21.894  0.00  0.00    +0.043 C 
ATOM     13  C   UNL     1       1.512  -0.429  21.854  0.00  0.00    +0.145 C 
ENDROOT
BRANCH  10  14
ATOM      8  N   UNL     1      -1.256   2.883  25.632  0.00  0.00    -0.251 NA
ATOM     14  C   UNL     1      -1.157   1.325  23.786  0.00  0.00    -0.025 A 
ATOM     16  C   UNL     1      -2.304   1.888  23.239  0.00  0.00    +0.007 A 
ATOM     17  C   UNL     1      -0.677   1.853  24.974  0.00  0.00    +0.115 A 
ATOM     19  C   UNL     1      -2.928   2.949  23.886  0.00  0.00    +0.032 A 
ATOM     20  C   UNL     1      -2.369   3.406  25.070  0.00  0.00    +0.144 A 
BRANCH  20  23
ATOM      1  F   UNL     1      -2.333   5.722  25.664  0.00  0.00    -0.164 F 
ATOM      2  F   UNL     1      -3.127   4.340  27.136  0.00  0.00    -0.164 F 
ATOM      3  F   UNL     1      -4.276   4.798  25.348  0.00  0.00    -0.164 F 
ATOM     23  C   UNL     1      -3.011   4.543  25.791  0.00  0.00    +0.434 C 
ENDBRANCH  20  23
ENDBRANCH  10  14
BRANCH  11   4
ATOM      4  O   UNL     1       2.604   0.532  23.800  0.00  0.00    -0.388 OA
ATOM     29  H   UNL     1       2.573   0.514  24.772  0.00  0.00    +0.210 HD
ENDBRANCH  11   4
BRANCH  13   5
ATOM      5  O   UNL     1       2.602   0.023  21.076  0.00  0.00    -0.389 OA
ATOM     30  H   UNL     1       2.316   0.027  20.147  0.00  0.00    +0.210 HD
ENDBRANCH  13   5
BRANCH   9   7
ATOM      7  N   UNL     1       0.044  -2.008  24.168  0.00  0.00    -0.306 NA
ATOM     28  H   UNL     1       0.850  -2.626  24.263  0.00  0.00    +0.123 HD
BRANCH   7  15
ATOM     15  C   UNL     1      -0.802  -2.164  25.341  0.00  0.00    +0.116 C 
BRANCH  15  18
ATOM     18  C   UNL     1      -2.149  -1.519  25.153  0.00  0.00    -0.033 A 
ATOM     21  C   UNL     1      -2.609  -0.581  26.076  0.00  0.00    +0.008 A 
ATOM     22  C   UNL     1      -2.937  -1.859  24.052  0.00  0.00    +0.008 A 
ATOM     24  C   UNL     1      -3.856   0.018  25.901  0.00  0.00    +0.046 A 
ATOM     25  C   UNL     1      -4.185  -1.261  23.876  0.00  0.00    +0.046 A 
ATOM     26  C   UNL     1      -4.645  -0.322  24.801  0.00  0.00    +0.120 A 
BRANCH  26   6
ATOM      6  O   UNL     1      -5.862   0.262  24.629  0.00  0.00    -0.495 OA
ATOM     27  C   UNL     1      -5.990   1.626  25.027  0.00  0.00    +0.277 C 
ENDBRANCH  26   6
ENDBRANCH  15  18
ENDBRANCH   7  15
ENDBRANCH   9   7
TORSDOF 8
ENDMDL
MODEL 7
REMARK VINA RESULT:      -0.5      3.477      6.811
REMARK  Name = 71694054
REMARK  9 active torsions:
REMARK  status: ('A' for Active; 'I' for Inactive)
REMARK    1  A    between atoms: O_4  and  C_11
REMARK    2  A    between atoms: O_5  and  C_13
REMARK    3  A    between atoms: O_6  and  C_26
REMARK    4  A    between atoms: O_6  and  C_27
REMARK    5  A    between atoms: N_7  and  C_9
REMARK    6  A    between atoms: N_7  and  C_15
REMARK    7  A    between atoms: C_10  and  C_14
REMARK    8  A    between atoms: C_15  and  C_18
REMARK    9  A    between atoms: C_20  and  C_23
REMARK                            x       y       z     vdW  Elec       q    Type
REMARK                         _______ _______ _______ _____ _____    ______ ____
ROOT
ATOM      9  C   UNL     1      -2.079  -0.961  24.925  0.00  0.00    +0.093 C 
ATOM     10  C   UNL     1      -0.993  -0.150  24.152  0.00  0.00    +0.042 C 
ATOM     11  C   UNL     1      -1.296  -1.993  25.754  0.00  0.00    +0.160 C 
ATOM     12  C   UNL     1       0.361  -0.765  24.560  0.00  0.00    +0.043 C 
ATOM     13  C   UNL     1       0.001  -2.184  24.973  0.00  0.00    +0.145 C 
ENDROOT
BRANCH  10  14
ATOM      8  N   UNL     1      -0.872   3.580  23.476  0.00  0.00    -0.251 NA
ATOM     14  C   UNL     1      -1.062   1.345  24.378  0.00  0.00    -0.025 A 
ATOM     16  C   UNL     1      -1.360   1.868  25.631  0.00  0.00    +0.007 A 
ATOM     17  C   UNL     1      -0.827   2.235  23.343  0.00  0.00    +0.115 A 
ATOM     19  C   UNL     1      -1.416   3.245  25.809  0.00  0.00    +0.032 A 
ATOM     20  C   UNL     1      -1.166   4.052  24.709  0.00  0.00    +0.144 A 
BRANCH  20  23
ATOM      1  F   UNL     1       0.012   6.113  25.000  0.00  0.00    -0.164 F 
ATOM      2  F   UNL     1      -1.930   5.947  25.953  0.00  0.00    -0.164 F 
ATOM      3  F   UNL     1      -1.797   6.153  23.792  0.00  0.00    -0.164 F 
ATOM     23  C   UNL     1      -1.218   5.535  24.862  0.00  0.00    +0.434 C 
ENDBRANCH  20  23
ENDBRANCH  10  14
BRANCH  11   4
ATOM      4  O   UNL     1      -1.034  -1.429  27.039  0.00  0.00    -0.388 OA
ATOM     29  H   UNL     1      -1.774  -0.837  27.255  0.00  0.00    +0.210 HD
ENDBRANCH  11   4
BRANCH  13   5
ATOM      5  O   UNL     1       1.024  -2.770  25.753  0.00  0.00    -0.389 OA
ATOM     30  H   UNL     1       0.680  -2.871  26.657  0.00  0.00    +0.210 HD
ENDBRANCH  13   5
BRANCH   9   7
ATOM      7  N   UNL     1      -2.950  -1.648  23.969  0.00  0.00    -0.306 NA
ATOM     28  H   UNL     1      -2.857  -2.656  24.096  0.00  0.00    +0.123 HD
BRANCH   7  15
ATOM     15  C   UNL     1      -4.342  -1.281  24.178  0.00  0.00    +0.116 C 
BRANCH  15  18
ATOM     18  C   UNL     1      -4.508   0.203  24.378  0.00  0.00    -0.033 A 
ATOM     21  C   UNL     1      -4.107   1.090  23.380  0.00  0.00    +0.008 A 
ATOM     22  C   UNL     1      -5.064   0.689  25.561  0.00  0.00    +0.008 A 
ATOM     24  C   UNL     1      -4.261   2.464  23.564  0.00  0.00    +0.046 A 
ATOM     25  C   UNL     1      -5.218   2.062  25.747  0.00  0.00    +0.046 A 
ATOM     26  C   UNL     1      -4.817   2.950  24.748  0.00  0.00    +0.120 A 
BRANCH  26   6
ATOM      6  O   UNL     1      -4.968   4.291  24.929  0.00  0.00    -0.495 OA
ATOM     27  C   UNL     1      -6.104   4.721  25.678  0.00  0.00    +0.277 C 
ENDBRANCH  26   6
ENDBRANCH  15  18
ENDBRANCH   7  15
ENDBRANCH   9   7
TORSDOF 8
ENDMDL
MODEL 8
REMARK VINA RESULT:       0.1      3.987      6.001
REMARK  Name = 71694054
REMARK  9 active torsions:
REMARK  status: ('A' for Active; 'I' for Inactive)
REMARK    1  A    between atoms: O_4  and  C_11
REMARK    2  A    between atoms: O_5  and  C_13
REMARK    3  A    between atoms: O_6  and  C_26
REMARK    4  A    between atoms: O_6  and  C_27
REMARK    5  A    between atoms: N_7  and  C_9
REMARK    6  A    between atoms: N_7  and  C_15
REMARK    7  A    between atoms: C_10  and  C_14
REMARK    8  A    between atoms: C_15  and  C_18
REMARK    9  A    between atoms: C_20  and  C_23
REMARK                            x       y       z     vdW  Elec       q    Type
REMARK                         _______ _______ _______ _____ _____    ______ ____
ROOT
ATOM      9  C   UNL     1      -0.663  -0.082  23.751  0.00  0.00    +0.093 C 
ATOM     10  C   UNL     1      -1.029   0.399  25.189  0.00  0.00    +0.042 C 
ATOM     11  C   UNL     1      -0.336  -1.577  23.898  0.00  0.00    +0.160 C 
ATOM     12  C   UNL     1      -0.880  -0.838  26.096  0.00  0.00    +0.043 C 
ATOM     13  C   UNL     1       0.114  -1.714  25.349  0.00  0.00    +0.145 C 
ENDROOT
BRANCH  10  14
ATOM      8  N   UNL     1      -4.795   0.818  25.358  0.00  0.00    -0.251 NA
ATOM     14  C   UNL     1      -2.390   1.054  25.292  0.00  0.00    -0.025 A 
ATOM     16  C   UNL     1      -2.515   2.434  25.410  0.00  0.00    +0.007 A 
ATOM     17  C   UNL     1      -3.550   0.298  25.271  0.00  0.00    +0.115 A 
ATOM     19  C   UNL     1      -3.778   3.007  25.502  0.00  0.00    +0.032 A 
ATOM     20  C   UNL     1      -4.877   2.163  25.472  0.00  0.00    +0.144 A 
BRANCH  20  23
ATOM      1  F   UNL     1      -7.094   2.312  24.589  0.00  0.00    -0.164 F 
ATOM      2  F   UNL     1      -6.271   4.107  25.487  0.00  0.00    -0.164 F 
ATOM      3  F   UNL     1      -6.865   2.437  26.747  0.00  0.00    -0.164 F 
ATOM     23  C   UNL     1      -6.248   2.743  25.570  0.00  0.00    +0.434 C 
ENDBRANCH  20  23
ENDBRANCH  10  14
BRANCH  11   4
ATOM      4  O   UNL     1      -1.531  -2.322  23.667  0.00  0.00    -0.388 OA
ATOM     29  H   UNL     1      -2.013  -2.370  24.511  0.00  0.00    +0.210 HD
ENDBRANCH  11   4
BRANCH  13   5
ATOM      5  O   UNL     1       0.071  -3.050  25.807  0.00  0.00    -0.389 OA
ATOM     30  H   UNL     1      -0.366  -3.581  25.120  0.00  0.00    +0.210 HD
ENDBRANCH  13   5
BRANCH   9   7
ATOM      7  N   UNL     1       0.520   0.642  23.279  0.00  0.00    -0.306 NA
ATOM     28  H   UNL     1       1.076   0.935  24.083  0.00  0.00    +0.123 HD
BRANCH   7  15
ATOM     15  C   UNL     1       1.343  -0.205  22.428  0.00  0.00    +0.116 C 
BRANCH  15  18
ATOM     18  C   UNL     1       2.785  -0.202  22.860  0.00  0.00    -0.033 A 
ATOM     21  C   UNL     1       3.328  -1.324  23.485  0.00  0.00    +0.008 A 
ATOM     22  C   UNL     1       3.579   0.922  22.633  0.00  0.00    +0.008 A 
ATOM     24  C   UNL     1       4.664  -1.323  23.884  0.00  0.00    +0.046 A 
ATOM     25  C   UNL     1       4.915   0.925  23.032  0.00  0.00    +0.046 A 
ATOM     26  C   UNL     1       5.458  -0.198  23.657  0.00  0.00    +0.120 A 
BRANCH  26   6
ATOM      6  O   UNL     1       6.763  -0.196  24.046  0.00  0.00    -0.495 OA
ATOM     27  C   UNL     1       7.743  -0.408  23.031  0.00  0.00    +0.277 C 
ENDBRANCH  26   6
ENDBRANCH  15  18
ENDBRANCH   7  15
ENDBRANCH   9   7
TORSDOF 8
ENDMDL
MODEL 9
REMARK VINA RESULT:       0.2      4.531      6.449
REMARK  Name = 71694054
REMARK  9 active torsions:
REMARK  status: ('A' for Active; 'I' for Inactive)
REMARK    1  A    between atoms: O_4  and  C_11
REMARK    2  A    between atoms: O_5  and  C_13
REMARK    3  A    between atoms: O_6  and  C_26
REMARK    4  A    between atoms: O_6  and  C_27
REMARK    5  A    between atoms: N_7  and  C_9
REMARK    6  A    between atoms: N_7  and  C_15
REMARK    7  A    between atoms: C_10  and  C_14
REMARK    8  A    between atoms: C_15  and  C_18
REMARK    9  A    between atoms: C_20  and  C_23
REMARK                            x       y       z     vdW  Elec       q    Type
REMARK                         _______ _______ _______ _____ _____    ______ ____
ROOT
ATOM      9  C   UNL     1      -1.009  -0.698  23.923  0.00  0.00    +0.093 C 
ATOM     10  C   UNL     1      -1.093  -0.018  25.325  0.00  0.00    +0.042 C 
ATOM     11  C   UNL     1      -2.018  -1.857  23.978  0.00  0.00    +0.160 C 
ATOM     12  C   UNL     1      -2.133  -0.827  26.123  0.00  0.00    +0.043 C 
ATOM     13  C   UNL     1      -2.107  -2.197  25.462  0.00  0.00    +0.145 C 
ENDROOT
BRANCH  10  14
ATOM      8  N   UNL     1      -0.593   3.742  25.309  0.00  0.00    -0.251 NA
ATOM     14  C   UNL     1      -1.401   1.464  25.274  0.00  0.00    -0.025 A 
ATOM     16  C   UNL     1      -2.708   1.921  25.154  0.00  0.00    +0.007 A 
ATOM     17  C   UNL     1      -0.388   2.406  25.347  0.00  0.00    +0.115 A 
ATOM     19  C   UNL     1      -2.960   3.287  25.111  0.00  0.00    +0.032 A 
ATOM     20  C   UNL     1      -1.877   4.149  25.191  0.00  0.00    +0.144 A 
BRANCH  20  23
ATOM      1  F   UNL     1      -2.740   6.042  24.010  0.00  0.00    -0.164 F 
ATOM      2  F   UNL     1      -0.961   6.359  25.211  0.00  0.00    -0.164 F 
ATOM      3  F   UNL     1      -2.885   6.062  26.180  0.00  0.00    -0.164 F 
ATOM     23  C   UNL     1      -2.110   5.622  25.147  0.00  0.00    +0.434 C 
ENDBRANCH  20  23
ENDBRANCH  10  14
BRANCH  11   4
ATOM      4  O   UNL     1      -3.273  -1.382  23.492  0.00  0.00    -0.388 OA
ATOM     29  H   UNL     1      -3.802  -1.115  24.264  0.00  0.00    +0.210 HD
ENDBRANCH  11   4
BRANCH  13   5
ATOM      5  O   UNL     1      -3.263  -2.946  25.780  0.00  0.00    -0.389 OA
ATOM     30  H   UNL     1      -3.902  -2.338  26.188  0.00  0.00    +0.210 HD
ENDBRANCH  13   5
BRANCH   9   7
ATOM      7  N   UNL     1       0.342  -1.223  23.714  0.00  0.00    -0.306 NA
ATOM     28  H   UNL     1       0.281  -2.204  23.437  0.00  0.00    +0.123 HD
BRANCH   7  15
ATOM     15  C   UNL     1       1.029  -0.487  22.664  0.00  0.00    +0.116 C 
BRANCH  15  18
ATOM     18  C   UNL     1       2.496  -0.323  22.961  0.00  0.00    -0.033 A 
ATOM     21  C   UNL     1       3.143   0.872  22.645  0.00  0.00    +0.008 A 
ATOM     22  C   UNL     1       3.209  -1.366  23.553  0.00  0.00    +0.008 A 
ATOM     24  C   UNL     1       4.501   1.024  22.921  0.00  0.00    +0.046 A 
ATOM     25  C   UNL     1       4.567  -1.215  23.829  0.00  0.00    +0.046 A 
ATOM     26  C   UNL     1       5.214  -0.019  23.513  0.00  0.00    +0.120 A 
BRANCH  26   6
ATOM      6  O   UNL     1       6.540   0.129  23.784  0.00  0.00    -0.495 OA
ATOM     27  C   UNL     1       7.455  -0.586  22.955  0.00  0.00    +0.277 C 
ENDBRANCH  26   6
ENDBRANCH  15  18
ENDBRANCH   7  15
ENDBRANCH   9   7
TORSDOF 8
ENDMDL
