MODEL 1
REMARK VINA RESULT:      -0.6      0.000      0.000
REMARK  Name = 25313142
REMARK  9 active torsions:
REMARK  status: ('A' for Active; 'I' for Inactive)
REMARK    1  A    between atoms: O_5  and  C_24
REMARK    2  A    between atoms: N_9  and  C_17
REMARK    3  A    between atoms: C_11  and  C_15
REMARK    4  A    between atoms: C_12  and  C_18
REMARK    5  A    between atoms: C_15  and  C_17
REMARK    6  A    between atoms: C_18  and  C_24
REMARK    7  A    between atoms: C_21  and  C_25
REMARK    8  A    between atoms: C_26  and  C_29
REMARK    9  A    between atoms: C_32  and  C_33
REMARK                            x       y       z     vdW  Elec       q    Type
REMARK                         _______ _______ _______ _____ _____    ______ ____
ROOT
ATOM      4  O   UNL     1      -1.500   0.030  22.685  0.00  0.00    -0.270 OA
ATOM      8  N   UNL     1      -1.293   2.274  23.314  0.00  0.00    -0.297 N 
ATOM     11  C   UNL     1      -1.624   3.630  25.370  0.00  0.00    +0.011 C 
ATOM     12  C   UNL     1      -2.953   4.152  24.765  0.00  0.00    +0.006 C 
ATOM     13  C   UNL     1      -0.659   3.221  24.243  0.00  0.00    +0.112 C 
ATOM     14  C   UNL     1      -3.552   3.148  23.766  0.00  0.00    +0.023 C 
ATOM     16  C   UNL     1      -2.533   2.751  22.702  0.00  0.00    +0.108 C 
ATOM     21  C   UNL     1      -0.813   1.001  22.997  0.00  0.00    +0.247 C 
ENDROOT
BRANCH  21  25
ATOM     25  C   UNL     1       0.637   0.783  23.034  0.00  0.00    +0.037 A 
ATOM     27  C   UNL     1       1.170  -0.437  22.616  0.00  0.00    +0.013 A 
ATOM     28  C   UNL     1       1.484   1.794  23.486  0.00  0.00    +0.013 A 
ATOM     30  C   UNL     1       2.548  -0.645  22.651  0.00  0.00    +0.013 A 
ATOM     31  C   UNL     1       2.863   1.587  23.522  0.00  0.00    +0.013 A 
ATOM     32  C   UNL     1       3.395   0.366  23.105  0.00  0.00    +0.055 A 
BRANCH  32  33
ATOM      1  F   UNL     1       5.454   0.134  21.908  0.00  0.00    -0.166 F 
ATOM      2  F   UNL     1       5.206  -1.047  23.717  0.00  0.00    -0.166 F 
ATOM      3  F   UNL     1       5.548   1.096  23.849  0.00  0.00    -0.166 F 
ATOM     33  C   UNL     1       4.869   0.145  23.142  0.00  0.00    +0.417 C 
ENDBRANCH  32  33
ENDBRANCH  21  25
BRANCH  11  15
ATOM     15  C   UNL     1      -1.805   2.474  26.363  0.00  0.00    +0.020 C 
BRANCH  15  17
ATOM     17  C   UNL     1      -0.755   1.396  26.137  0.00  0.00    +0.085 C 
BRANCH  17   9
ATOM      7  O   UNL     1      -2.442  -3.958  23.416  0.00  0.00    -0.276 OA
ATOM      9  N   UNL     1      -1.390   0.078  26.124  0.00  0.00    -0.299 NA
ATOM     10  N   UNL     1      -2.644  -2.195  24.914  0.00  0.00    -0.299 N 
ATOM     19  C   UNL     1      -2.766   0.172  25.615  0.00  0.00    +0.103 C 
ATOM     20  C   UNL     1      -0.604  -0.864  25.314  0.00  0.00    +0.103 C 
ATOM     22  C   UNL     1      -3.449  -1.197  25.627  0.00  0.00    +0.123 C 
ATOM     23  C   UNL     1      -1.244  -2.252  25.327  0.00  0.00    +0.123 C 
ATOM     26  C   UNL     1      -3.140  -3.127  24.003  0.00  0.00    +0.213 C 
ATOM     29  C   UNL     1      -4.623  -3.090  23.739  0.00  0.00    +0.109 C 
ENDBRANCH  17   9
ENDBRANCH  15  17
ENDBRANCH  11  15
BRANCH  12  18
ATOM     18  C   UNL     1      -3.984   4.539  25.824  0.00  0.00    +0.124 C 
BRANCH  18  24
ATOM      6  O   UNL     1      -5.235   2.447  25.745  0.00  0.00    -0.251 OA
ATOM     24  C   UNL     1      -5.209   3.669  25.750  0.00  0.00    +0.305 C 
BRANCH  24   5
ATOM      5  O   UNL     1      -6.320   4.447  25.689  0.00  0.00    -0.481 OA
ATOM     34  H   UNL     1      -6.213   5.189  25.056  0.00  0.00    +0.295 HD
ENDBRANCH  24   5
ENDBRANCH  18  24
ENDBRANCH  12  18
TORSDOF 8
ENDMDL
MODEL 2
REMARK VINA RESULT:       1.0      4.320      6.927
REMARK  Name = 25313142
REMARK  9 active torsions:
REMARK  status: ('A' for Active; 'I' for Inactive)
REMARK    1  A    between atoms: O_5  and  C_24
REMARK    2  A    between atoms: N_9  and  C_17
REMARK    3  A    between atoms: C_11  and  C_15
REMARK    4  A    between atoms: C_12  and  C_18
REMARK    5  A    between atoms: C_15  and  C_17
REMARK    6  A    between atoms: C_18  and  C_24
REMARK    7  A    between atoms: C_21  and  C_25
REMARK    8  A    between atoms: C_26  and  C_29
REMARK    9  A    between atoms: C_32  and  C_33
REMARK                            x       y       z     vdW  Elec       q    Type
REMARK                         _______ _______ _______ _____ _____    ______ ____
ROOT
ATOM      4  O   UNL     1       0.561   3.642  25.608  0.00  0.00    -0.270 OA
ATOM      8  N   UNL     1       0.398   2.120  23.840  0.00  0.00    -0.297 N 
ATOM     11  C   UNL     1       0.752  -0.315  23.490  0.00  0.00    +0.011 C 
ATOM     12  C   UNL     1       2.091   0.019  22.786  0.00  0.00    +0.006 C 
ATOM     13  C   UNL     1      -0.219   0.873  23.364  0.00  0.00    +0.112 C 
ATOM     14  C   UNL     1       2.673   1.354  23.283  0.00  0.00    +0.023 C 
ATOM     16  C   UNL     1       1.648   2.480  23.172  0.00  0.00    +0.108 C 
ATOM     21  C   UNL     1      -0.106   2.943  24.848  0.00  0.00    +0.247 C 
ENDROOT
BRANCH  21  25
ATOM     25  C   UNL     1      -1.561   2.994  25.034  0.00  0.00    +0.037 A 
ATOM     27  C   UNL     1      -2.401   2.300  24.163  0.00  0.00    +0.013 A 
ATOM     28  C   UNL     1      -2.104   3.736  26.082  0.00  0.00    +0.013 A 
ATOM     30  C   UNL     1      -3.783   2.348  24.340  0.00  0.00    +0.013 A 
ATOM     31  C   UNL     1      -3.487   3.786  26.259  0.00  0.00    +0.013 A 
ATOM     32  C   UNL     1      -4.326   3.091  25.388  0.00  0.00    +0.055 A 
BRANCH  32  33
ATOM      1  F   UNL     1      -6.310   4.411  25.610  0.00  0.00    -0.166 F 
ATOM      2  F   UNL     1      -6.205   2.560  26.745  0.00  0.00    -0.166 F 
ATOM      3  F   UNL     1      -6.506   2.507  24.592  0.00  0.00    -0.166 F 
ATOM     33  C   UNL     1      -5.805   3.143  25.577  0.00  0.00    +0.417 C 
ENDBRANCH  32  33
ENDBRANCH  21  25
BRANCH  11  15
ATOM     15  C   UNL     1       0.906  -0.723  24.961  0.00  0.00    +0.020 C 
BRANCH  15  17
ATOM     17  C   UNL     1       0.535  -2.185  25.161  0.00  0.00    +0.085 C 
BRANCH  17   9
ATOM      7  O   UNL     1      -5.403  -2.183  23.250  0.00  0.00    -0.276 OA
ATOM      9  N   UNL     1      -0.907  -2.308  25.372  0.00  0.00    -0.299 NA
ATOM     10  N   UNL     1      -3.672  -1.871  24.767  0.00  0.00    -0.299 N 
ATOM     19  C   UNL     1      -1.514  -0.986  25.581  0.00  0.00    +0.103 C 
ATOM     20  C   UNL     1      -1.537  -2.990  24.232  0.00  0.00    +0.103 C 
ATOM     22  C   UNL     1      -3.017  -1.107  25.833  0.00  0.00    +0.123 C 
ATOM     23  C   UNL     1      -3.039  -3.153  24.463  0.00  0.00    +0.123 C 
ATOM     26  C   UNL     1      -4.871  -1.523  24.146  0.00  0.00    +0.213 C 
ATOM     29  C   UNL     1      -5.532  -0.253  24.618  0.00  0.00    +0.109 C 
ENDBRANCH  17   9
ENDBRANCH  15  17
ENDBRANCH  11  15
BRANCH  12  18
ATOM     18  C   UNL     1       3.128  -1.097  22.905  0.00  0.00    +0.124 C 
BRANCH  18  24
ATOM      6  O   UNL     1       5.069   0.376  22.829  0.00  0.00    -0.251 OA
ATOM     24  C   UNL     1       4.471  -0.566  23.327  0.00  0.00    +0.305 C 
BRANCH  24   5
ATOM      5  O   UNL     1       4.945  -1.296  24.368  0.00  0.00    -0.481 OA
ATOM     34  H   UNL     1       4.431  -1.139  25.189  0.00  0.00    +0.295 HD
ENDBRANCH  24   5
ENDBRANCH  18  24
ENDBRANCH  12  18
TORSDOF 8
ENDMDL
MODEL 3
REMARK VINA RESULT:       1.9      2.450      4.320
REMARK  Name = 25313142
REMARK  9 active torsions:
REMARK  status: ('A' for Active; 'I' for Inactive)
REMARK    1  A    between atoms: O_5  and  C_24
REMARK    2  A    between atoms: N_9  and  C_17
REMARK    3  A    between atoms: C_11  and  C_15
REMARK    4  A    between atoms: C_12  and  C_18
REMARK    5  A    between atoms: C_15  and  C_17
REMARK    6  A    between atoms: C_18  and  C_24
REMARK    7  A    between atoms: C_21  and  C_25
REMARK    8  A    between atoms: C_26  and  C_29
REMARK    9  A    between atoms: C_32  and  C_33
REMARK                            x       y       z     vdW  Elec       q    Type
REMARK                         _______ _______ _______ _____ _____    ______ ____
ROOT
ATOM      4  O   UNL     1      -1.779  -1.033  26.019  0.00  0.00    -0.270 OA
ATOM      8  N   UNL     1      -2.933   0.021  24.279  0.00  0.00    -0.297 N 
ATOM     11  C   UNL     1      -4.051   2.206  23.892  0.00  0.00    +0.011 C 
ATOM     12  C   UNL     1      -5.417   1.495  24.070  0.00  0.00    +0.006 C 
ATOM     13  C   UNL     1      -2.995   1.199  23.402  0.00  0.00    +0.112 C 
ATOM     14  C   UNL     1      -5.291   0.244  24.956  0.00  0.00    +0.023 C 
ATOM     16  C   UNL     1      -4.200  -0.691  24.441  0.00  0.00    +0.108 C 
ATOM     21  C   UNL     1      -1.794  -0.439  24.942  0.00  0.00    +0.247 C 
ENDROOT
BRANCH  21  25
ATOM     25  C   UNL     1      -0.488  -0.203  24.316  0.00  0.00    +0.037 A 
ATOM     27  C   UNL     1       0.390  -1.267  24.109  0.00  0.00    +0.013 A 
ATOM     28  C   UNL     1      -0.124   1.086  23.928  0.00  0.00    +0.013 A 
ATOM     30  C   UNL     1       1.631  -1.043  23.514  0.00  0.00    +0.013 A 
ATOM     31  C   UNL     1       1.118   1.312  23.334  0.00  0.00    +0.013 A 
ATOM     32  C   UNL     1       1.995   0.247  23.127  0.00  0.00    +0.055 A 
BRANCH  32  33
ATOM      1  F   UNL     1       4.304  -0.351  22.933  0.00  0.00    -0.166 F 
ATOM      2  F   UNL     1       3.791   1.750  22.715  0.00  0.00    -0.166 F 
ATOM      3  F   UNL     1       3.313   0.338  21.132  0.00  0.00    -0.166 F 
ATOM     33  C   UNL     1       3.322   0.488  22.490  0.00  0.00    +0.417 C 
ENDBRANCH  32  33
ENDBRANCH  21  25
BRANCH  11  15
ATOM     15  C   UNL     1      -3.556   2.927  25.153  0.00  0.00    +0.020 C 
BRANCH  15  17
ATOM     17  C   UNL     1      -2.270   3.690  24.871  0.00  0.00    +0.085 C 
BRANCH  17   9
ATOM      7  O   UNL     1       1.209   2.181  29.825  0.00  0.00    -0.276 OA
ATOM      9  N   UNL     1      -1.143   3.025  25.525  0.00  0.00    -0.299 NA
ATOM     10  N   UNL     1       0.811   2.633  27.581  0.00  0.00    -0.299 N 
ATOM     19  C   UNL     1      -0.003   3.944  25.651  0.00  0.00    +0.103 C 
ATOM     20  C   UNL     1      -1.541   2.514  26.844  0.00  0.00    +0.103 C 
ATOM     22  C   UNL     1       1.192   3.247  26.305  0.00  0.00    +0.123 C 
ATOM     23  C   UNL     1      -0.377   1.787  27.516  0.00  0.00    +0.123 C 
ATOM     26  C   UNL     1       1.550   2.707  28.762  0.00  0.00    +0.213 C 
ATOM     29  C   UNL     1       2.839   3.486  28.704  0.00  0.00    +0.109 C 
ENDBRANCH  17   9
ENDBRANCH  15  17
ENDBRANCH  11  15
BRANCH  12  18
ATOM     18  C   UNL     1      -6.512   2.420  24.598  0.00  0.00    +0.124 C 
BRANCH  18  24
ATOM      6  O   UNL     1      -6.132   2.182  26.995  0.00  0.00    -0.251 OA
ATOM     24  C   UNL     1      -6.220   2.885  25.999  0.00  0.00    +0.305 C 
BRANCH  24   5
ATOM      5  O   UNL     1      -6.061   4.233  26.010  0.00  0.00    -0.481 OA
ATOM     34  H   UNL     1      -6.303   4.637  25.149  0.00  0.00    +0.295 HD
ENDBRANCH  24   5
ENDBRANCH  18  24
ENDBRANCH  12  18
TORSDOF 8
ENDMDL
