MODEL 1
REMARK VINA RESULT:       2.4      0.000      0.000
REMARK  Name = 45361636
REMARK  11 active torsions:
REMARK  status: ('A' for Active; 'I' for Inactive)
REMARK    1  A    between atoms: O_1  and  C_12
REMARK    2  A    between atoms: O_4  and  C_29
REMARK    3  A    between atoms: O_4  and  C_33
REMARK    4  A    between atoms: N_5  and  C_16
REMARK    5  A    between atoms: C_9  and  C_19
REMARK    6  A    between atoms: C_11  and  C_21
REMARK    7  A    between atoms: C_14  and  C_20
REMARK    8  A    between atoms: C_20  and  C_22
REMARK    9  A    between atoms: C_20  and  C_23
REMARK   10  A    between atoms: C_24  and  C_29
REMARK   11  A    between atoms: C_25  and  C_30
REMARK                            x       y       z     vdW  Elec       q    Type
REMARK                         _______ _______ _______ _____ _____    ______ ____
ROOT
ATOM      9  C   UNL     1      -2.841  -1.239  24.843  0.00  0.00    -0.027 C 
ATOM     10  C   UNL     1      -2.398   0.010  24.011  0.00  0.00    +0.028 C 
ATOM     11  C   UNL     1      -0.846   0.233  24.119  0.00  0.00    +0.012 C 
ATOM     12  C   UNL     1      -3.276   1.251  24.346  0.00  0.00    +0.122 C 
ATOM     13  C   UNL     1      -4.351  -1.496  24.625  0.00  0.00    +0.007 C 
ATOM     14  C   UNL     1      -4.790   0.957  24.225  0.00  0.00    +0.029 C 
ATOM     15  C   UNL     1      -2.074  -2.481  24.335  0.00  0.00    +0.009 C 
ATOM     16  C   UNL     1      -0.087  -1.049  23.676  0.00  0.00    +0.076 C 
ATOM     17  C   UNL     1      -5.216  -0.297  24.989  0.00  0.00    +0.007 C 
ATOM     18  C   UNL     1      -0.562  -2.314  24.390  0.00  0.00    +0.023 C 
ATOM     19  C   UNL     1      -2.580  -1.064  26.361  0.00  0.00    +0.011 C 
ATOM     21  C   UNL     1      -0.338   1.430  23.300  0.00  0.00    +0.010 C 
ENDROOT
BRANCH  16   5
ATOM      3  O   UNL     1       1.838  -0.169  21.736  0.00  0.00    -0.270 OA
ATOM      5  N   UNL     1       1.342  -0.920  23.873  0.00  0.00    -0.308 N 
ATOM     25  C   UNL     1       2.191  -0.485  22.870  0.00  0.00    +0.247 C 
ATOM     35  H   UNL     1       1.720  -1.261  24.751  0.00  0.00    +0.149 HD
BRANCH  25  30
ATOM      7  N   UNL     1       5.598  -1.487  24.128  0.00  0.00    -0.243 NA
ATOM      8  N   UNL     1       5.715   0.773  23.302  0.00  0.00    -0.243 NA
ATOM     30  C   UNL     1       3.633  -0.433  23.221  0.00  0.00    +0.073 A 
ATOM     31  C   UNL     1       4.289  -1.501  23.796  0.00  0.00    +0.127 A 
ATOM     32  C   UNL     1       4.403   0.690  22.995  0.00  0.00    +0.127 A 
ATOM     34  C   UNL     1       6.240  -0.336  23.857  0.00  0.00    +0.221 A 
ENDBRANCH  25  30
ENDBRANCH  16   5
BRANCH  12   1
ATOM      1  O   UNL     1      -2.990   2.301  23.421  0.00  0.00    -0.391 OA
ATOM     36  H   UNL     1      -3.247   3.144  23.832  0.00  0.00    +0.210 HD
ENDBRANCH  12   1
BRANCH  14  20
ATOM     20  C   UNL     1      -5.638   2.149  24.684  0.00  0.00    +0.078 C 
ATOM     23  C   UNL     1      -5.843   3.143  23.555  0.00  0.00    +0.017 C 
BRANCH  20  22
ATOM      2  O   UNL     1      -5.238   2.527  27.001  0.00  0.00    -0.275 OA
ATOM      6  N   UNL     1      -3.974   3.750  25.498  0.00  0.00    -0.296 N 
ATOM     22  C   UNL     1      -4.941   2.820  25.842  0.00  0.00    +0.219 C 
ATOM     24  C   UNL     1      -3.270   4.562  26.494  0.00  0.00    +0.102 C 
ATOM     26  C   UNL     1      -3.589   4.128  24.141  0.00  0.00    +0.108 C 
ATOM     27  C   UNL     1      -2.667   5.704  25.672  0.00  0.00    +0.026 C 
ATOM     28  C   UNL     1      -2.400   5.060  24.317  0.00  0.00    +0.021 C 
BRANCH  24  29
ATOM     29  C   UNL     1      -2.203   3.749  27.223  0.00  0.00    +0.181 C 
BRANCH  29   4
ATOM      4  O   UNL     1      -1.501   2.972  26.271  0.00  0.00    -0.381 OA
ATOM     33  C   UNL     1      -0.168   2.700  26.691  0.00  0.00    +0.194 C 
ENDBRANCH  29   4
ENDBRANCH  24  29
ENDBRANCH  20  22
ENDBRANCH  14  20
TORSDOF 7
ENDMDL
