MODEL 1
REMARK VINA RESULT:      -4.4      0.000      0.000
REMARK  Name = 75536260
REMARK  8 active torsions:
REMARK  status: ('A' for Active; 'I' for Inactive)
REMARK    1  A    between atoms: O_3  and  C_9
REMARK    2  A    between atoms: N_5  and  C_13
REMARK    3  A    between atoms: N_5  and  C_16
REMARK    4  A    between atoms: C_8  and  C_13
REMARK    5  A    between atoms: C_10  and  C_14
REMARK    6  A    between atoms: C_14  and  C_15
REMARK    7  A    between atoms: C_16  and  C_19
REMARK    8  A    between atoms: C_18  and  C_20
REMARK                            x       y       z     vdW  Elec       q    Type
REMARK                         _______ _______ _______ _____ _____    ______ ____
ROOT
ATOM      2  O   UNL     1      14.661  -7.485  31.966  0.00  0.00    -0.369 OA
ATOM      8  C   UNL     1      13.315  -7.500  32.456  0.00  0.00    +0.161 C 
ATOM      9  C   UNL     1      12.436  -6.492  31.704  0.00  0.00    +0.145 C 
ATOM     10  C   UNL     1      14.800  -7.710  30.561  0.00  0.00    +0.125 C 
ATOM     11  C   UNL     1      12.566  -6.625  30.188  0.00  0.00    +0.036 C 
ATOM     12  C   UNL     1      14.032  -6.653  29.767  0.00  0.00    +0.034 C 
ENDROOT
BRANCH   9   3
ATOM      3  O   UNL     1      12.841  -5.168  32.062  0.00  0.00    -0.389 OA
ATOM     30  H   UNL     1      12.091  -4.743  32.511  0.00  0.00    +0.210 HD
ENDBRANCH   9   3
BRANCH   8  13
ATOM     13  C   UNL     1      12.741  -8.915  32.447  0.00  0.00    +0.115 C 
BRANCH  13   5
ATOM      5  N   UNL     1      11.398  -8.926  31.888  0.00  0.00    -0.308 NA
ATOM     31  H   UNL     1      11.049  -7.969  31.834  0.00  0.00    +0.122 HD
BRANCH   5  16
ATOM     16  C   UNL     1      10.499  -9.735  32.700  0.00  0.00    +0.136 C 
BRANCH  16  19
ATOM      7  N   UNL     1       8.624  -8.200  32.486  0.00  0.00    -0.259 NA
ATOM     19  C   UNL     1       9.054  -9.476  32.367  0.00  0.00    +0.055 A 
ATOM     21  C   UNL     1       8.252 -10.530  31.962  0.00  0.00    +0.024 A 
ATOM     24  C   UNL     1       6.923 -10.258  31.660  0.00  0.00    +0.003 A 
ATOM     25  C   UNL     1       7.326  -7.973  32.184  0.00  0.00    +0.111 A 
ATOM     26  C   UNL     1       6.443  -8.957  31.770  0.00  0.00    +0.020 A 
ENDBRANCH  16  19
ENDBRANCH   5  16
ENDBRANCH  13   5
ENDBRANCH   8  13
BRANCH  10  14
ATOM     14  C   UNL     1      16.288  -7.660  30.233  0.00  0.00    +0.090 C 
BRANCH  14  15
ATOM      4  O   UNL     1      16.940  -7.640  26.688  0.00  0.00    -0.354 OA
ATOM      6  N   UNL     1      16.766  -8.293  27.903  0.00  0.00    -0.083 NA
ATOM     15  C   UNL     1      16.529  -7.319  28.787  0.00  0.00    +0.087 A 
ATOM     17  C   UNL     1      16.541  -6.045  28.194  0.00  0.00    +0.076 A 
ATOM     18  C   UNL     1      16.804  -6.303  26.875  0.00  0.00    +0.167 A 
BRANCH  18  20
ATOM      1  F   UNL     1      17.405  -3.160  22.324  0.00  0.00    -0.205 F 
ATOM     20  C   UNL     1      16.958  -5.493  25.702  0.00  0.00    +0.020 A 
ATOM     22  C   UNL     1      17.046  -6.093  24.446  0.00  0.00    +0.014 A 
ATOM     23  C   UNL     1      17.021  -4.104  25.816  0.00  0.00    +0.014 A 
ATOM     27  C   UNL     1      17.196  -5.306  23.305  0.00  0.00    +0.039 A 
ATOM     28  C   UNL     1      17.173  -3.316  24.675  0.00  0.00    +0.039 A 
ATOM     29  C   UNL     1      17.259  -3.917  23.419  0.00  0.00    +0.123 A 
ENDBRANCH  18  20
ENDBRANCH  14  15
ENDBRANCH  10  14
TORSDOF 8
ENDMDL
MODEL 2
REMARK VINA RESULT:      -3.2     15.459     18.019
REMARK  Name = 75536260
REMARK  8 active torsions:
REMARK  status: ('A' for Active; 'I' for Inactive)
REMARK    1  A    between atoms: O_3  and  C_9
REMARK    2  A    between atoms: N_5  and  C_13
REMARK    3  A    between atoms: N_5  and  C_16
REMARK    4  A    between atoms: C_8  and  C_13
REMARK    5  A    between atoms: C_10  and  C_14
REMARK    6  A    between atoms: C_14  and  C_15
REMARK    7  A    between atoms: C_16  and  C_19
REMARK    8  A    between atoms: C_18  and  C_20
REMARK                            x       y       z     vdW  Elec       q    Type
REMARK                         _______ _______ _______ _____ _____    ______ ____
ROOT
ATOM      2  O   UNL     1      -3.668   0.449  23.703  0.00  0.00    -0.369 OA
ATOM      8  C   UNL     1      -4.598  -0.254  24.536  0.00  0.00    +0.161 C 
ATOM      9  C   UNL     1      -3.941  -1.471  25.201  0.00  0.00    +0.145 C 
ATOM     10  C   UNL     1      -2.466   0.870  24.352  0.00  0.00    +0.125 C 
ATOM     11  C   UNL     1      -2.616  -1.122  25.874  0.00  0.00    +0.036 C 
ATOM     12  C   UNL     1      -1.716  -0.331  24.929  0.00  0.00    +0.034 C 
ENDROOT
BRANCH   9   3
ATOM      3  O   UNL     1      -3.675  -2.456  24.199  0.00  0.00    -0.389 OA
ATOM     30  H   UNL     1      -3.352  -3.254  24.650  0.00  0.00    +0.210 HD
ENDBRANCH   9   3
BRANCH   8  13
ATOM     13  C   UNL     1      -5.260   0.688  25.540  0.00  0.00    +0.115 C 
BRANCH  13   5
ATOM      5  N   UNL     1      -5.889   1.810  24.860  0.00  0.00    -0.308 NA
ATOM     31  H   UNL     1      -5.479   1.913  23.932  0.00  0.00    +0.122 HD
BRANCH   5  16
ATOM     16  C   UNL     1      -5.715   3.044  25.617  0.00  0.00    +0.136 C 
BRANCH  16  19
ATOM      7  N   UNL     1      -4.026   4.105  24.223  0.00  0.00    -0.259 NA
ATOM     19  C   UNL     1      -4.333   3.617  25.446  0.00  0.00    +0.055 A 
ATOM     21  C   UNL     1      -3.461   3.617  26.522  0.00  0.00    +0.024 A 
ATOM     24  C   UNL     1      -2.193   4.154  26.333  0.00  0.00    +0.003 A 
ATOM     25  C   UNL     1      -2.784   4.619  24.076  0.00  0.00    +0.111 A 
ATOM     26  C   UNL     1      -1.841   4.667  25.088  0.00  0.00    +0.020 A 
ENDBRANCH  16  19
ENDBRANCH   5  16
ENDBRANCH  13   5
ENDBRANCH   8  13
BRANCH  10  14
ATOM     14  C   UNL     1      -1.614   1.594  23.316  0.00  0.00    +0.090 C 
BRANCH  14  15
ATOM      4  O   UNL     1       1.138  -0.531  22.366  0.00  0.00    -0.354 OA
ATOM      6  N   UNL     1      -0.203  -0.168  22.334  0.00  0.00    -0.083 NA
ATOM     15  C   UNL     1      -0.286   0.915  23.113  0.00  0.00    +0.087 A 
ATOM     17  C   UNL     1       0.958   1.277  23.658  0.00  0.00    +0.076 A 
ATOM     18  C   UNL     1       1.818   0.337  23.158  0.00  0.00    +0.167 A 
BRANCH  18  20
ATOM      1  F   UNL     1       7.275  -0.623  23.667  0.00  0.00    -0.205 F 
ATOM     20  C   UNL     1       3.225   0.089  23.287  0.00  0.00    +0.020 A 
ATOM     22  C   UNL     1       3.677  -1.160  23.716  0.00  0.00    +0.014 A 
ATOM     23  C   UNL     1       4.142   1.096  22.987  0.00  0.00    +0.014 A 
ATOM     27  C   UNL     1       5.044  -1.401  23.844  0.00  0.00    +0.039 A 
ATOM     28  C   UNL     1       5.510   0.856  23.116  0.00  0.00    +0.039 A 
ATOM     29  C   UNL     1       5.961  -0.393  23.543  0.00  0.00    +0.123 A 
ENDBRANCH  18  20
ENDBRANCH  14  15
ENDBRANCH  10  14
TORSDOF 8
ENDMDL
MODEL 3
REMARK VINA RESULT:      -2.6     15.695     18.476
REMARK  Name = 75536260
REMARK  8 active torsions:
REMARK  status: ('A' for Active; 'I' for Inactive)
REMARK    1  A    between atoms: O_3  and  C_9
REMARK    2  A    between atoms: N_5  and  C_13
REMARK    3  A    between atoms: N_5  and  C_16
REMARK    4  A    between atoms: C_8  and  C_13
REMARK    5  A    between atoms: C_10  and  C_14
REMARK    6  A    between atoms: C_14  and  C_15
REMARK    7  A    between atoms: C_16  and  C_19
REMARK    8  A    between atoms: C_18  and  C_20
REMARK                            x       y       z     vdW  Elec       q    Type
REMARK                         _______ _______ _______ _____ _____    ______ ____
ROOT
ATOM      2  O   UNL     1      -3.992   1.141  23.627  0.00  0.00    -0.369 OA
ATOM      8  C   UNL     1      -4.805   2.291  23.894  0.00  0.00    +0.161 C 
ATOM      9  C   UNL     1      -5.919   1.967  24.897  0.00  0.00    +0.145 C 
ATOM     10  C   UNL     1      -3.412   0.526  24.780  0.00  0.00    +0.125 C 
ATOM     11  C   UNL     1      -5.394   1.254  26.140  0.00  0.00    +0.036 C 
ATOM     12  C   UNL     1      -4.498   0.079  25.757  0.00  0.00    +0.034 C 
ENDROOT
BRANCH   9   3
ATOM      3  O   UNL     1      -6.869   1.102  24.268  0.00  0.00    -0.389 OA
ATOM     30  H   UNL     1      -7.755   1.378  24.558  0.00  0.00    +0.210 HD
ENDBRANCH   9   3
BRANCH   8  13
ATOM     13  C   UNL     1      -3.950   3.484  24.318  0.00  0.00    +0.115 C 
BRANCH  13   5
ATOM      5  N   UNL     1      -4.481   4.099  25.524  0.00  0.00    -0.308 NA
ATOM     31  H   UNL     1      -4.878   5.009  25.290  0.00  0.00    +0.122 HD
BRANCH   5  16
ATOM     16  C   UNL     1      -3.441   4.258  26.532  0.00  0.00    +0.136 C 
BRANCH  16  19
ATOM      7  N   UNL     1      -1.461   2.848  26.429  0.00  0.00    -0.259 NA
ATOM     19  C   UNL     1      -2.073   3.965  25.976  0.00  0.00    +0.055 A 
ATOM     21  C   UNL     1      -1.518   4.831  25.048  0.00  0.00    +0.024 A 
ATOM     24  C   UNL     1      -0.254   4.532  24.553  0.00  0.00    +0.003 A 
ATOM     25  C   UNL     1      -0.233   2.589  25.925  0.00  0.00    +0.111 A 
ATOM     26  C   UNL     1       0.408   3.391  24.995  0.00  0.00    +0.020 A 
ENDBRANCH  16  19
ENDBRANCH   5  16
ENDBRANCH  13   5
ENDBRANCH   8  13
BRANCH  10  14
ATOM     14  C   UNL     1      -2.590  -0.665  24.300  0.00  0.00    +0.090 C 
BRANCH  14  15
ATOM      4  O   UNL     1       0.289   0.895  22.792  0.00  0.00    -0.354 OA
ATOM      6  N   UNL     1      -1.081   0.786  23.005  0.00  0.00    -0.083 NA
ATOM     15  C   UNL     1      -1.219  -0.247  23.841  0.00  0.00    +0.087 A 
ATOM     17  C   UNL     1       0.016  -0.823  24.186  0.00  0.00    +0.076 A 
ATOM     18  C   UNL     1       0.930  -0.068  23.501  0.00  0.00    +0.167 A 
BRANCH  18  20
ATOM      1  F   UNL     1       6.475  -0.113  23.043  0.00  0.00    -0.205 F 
ATOM     20  C   UNL     1       2.359  -0.081  23.381  0.00  0.00    +0.020 A 
ATOM     22  C   UNL     1       3.081  -1.214  23.756  0.00  0.00    +0.014 A 
ATOM     23  C   UNL     1       3.028   1.042  22.892  0.00  0.00    +0.014 A 
ATOM     27  C   UNL     1       4.471  -1.226  23.641  0.00  0.00    +0.039 A 
ATOM     28  C   UNL     1       4.418   1.031  22.779  0.00  0.00    +0.039 A 
ATOM     29  C   UNL     1       5.139  -0.103  23.152  0.00  0.00    +0.123 A 
ENDBRANCH  18  20
ENDBRANCH  14  15
ENDBRANCH  10  14
TORSDOF 8
ENDMDL
MODEL 4
REMARK VINA RESULT:      -2.2     15.724     18.658
REMARK  Name = 75536260
REMARK  8 active torsions:
REMARK  status: ('A' for Active; 'I' for Inactive)
REMARK    1  A    between atoms: O_3  and  C_9
REMARK    2  A    between atoms: N_5  and  C_13
REMARK    3  A    between atoms: N_5  and  C_16
REMARK    4  A    between atoms: C_8  and  C_13
REMARK    5  A    between atoms: C_10  and  C_14
REMARK    6  A    between atoms: C_14  and  C_15
REMARK    7  A    between atoms: C_16  and  C_19
REMARK    8  A    between atoms: C_18  and  C_20
REMARK                            x       y       z     vdW  Elec       q    Type
REMARK                         _______ _______ _______ _____ _____    ______ ____
ROOT
ATOM      2  O   UNL     1      -3.853   2.393  25.743  0.00  0.00    -0.369 OA
ATOM      8  C   UNL     1      -5.034   1.718  25.291  0.00  0.00    +0.161 C 
ATOM      9  C   UNL     1      -6.304   2.451  25.744  0.00  0.00    +0.145 C 
ATOM     10  C   UNL     1      -3.754   3.767  25.362  0.00  0.00    +0.125 C 
ATOM     11  C   UNL     1      -6.259   3.943  25.425  0.00  0.00    +0.036 C 
ATOM     12  C   UNL     1      -4.945   4.562  25.896  0.00  0.00    +0.034 C 
ENDROOT
BRANCH   9   3
ATOM      3  O   UNL     1      -6.436   2.312  27.161  0.00  0.00    -0.389 OA
ATOM     30  H   UNL     1      -7.133   2.923  27.453  0.00  0.00    +0.210 HD
ENDBRANCH   9   3
BRANCH   8  13
ATOM     13  C   UNL     1      -4.989   1.480  23.783  0.00  0.00    +0.115 C 
BRANCH  13   5
ATOM      5  N   UNL     1      -3.903   0.578  23.432  0.00  0.00    -0.308 NA
ATOM     31  H   UNL     1      -3.913   0.416  22.425  0.00  0.00    +0.122 HD
BRANCH   5  16
ATOM     16  C   UNL     1      -4.027  -0.690  24.140  0.00  0.00    +0.136 C 
BRANCH  16  19
ATOM      7  N   UNL     1      -2.206  -2.304  24.135  0.00  0.00    -0.259 NA
ATOM     19  C   UNL     1      -2.702  -1.167  24.672  0.00  0.00    +0.055 A 
ATOM     21  C   UNL     1      -2.067  -0.436  25.663  0.00  0.00    +0.024 A 
ATOM     24  C   UNL     1      -0.844  -0.902  26.133  0.00  0.00    +0.003 A 
ATOM     25  C   UNL     1      -1.015  -2.726  24.616  0.00  0.00    +0.111 A 
ATOM     26  C   UNL     1      -0.301  -2.068  25.604  0.00  0.00    +0.020 A 
ENDBRANCH  16  19
ENDBRANCH   5  16
ENDBRANCH  13   5
ENDBRANCH   8  13
BRANCH  10  14
ATOM     14  C   UNL     1      -2.445   4.306  25.926  0.00  0.00    +0.090 C 
BRANCH  14  15
ATOM      4  O   UNL     1       0.475   2.193  25.877  0.00  0.00    -0.354 OA
ATOM      6  N   UNL     1      -0.475   2.962  26.538  0.00  0.00    -0.083 NA
ATOM     15  C   UNL     1      -1.280   3.421  25.575  0.00  0.00    +0.087 A 
ATOM     17  C   UNL     1      -0.890   2.979  24.298  0.00  0.00    +0.076 A 
ATOM     18  C   UNL     1       0.217   2.211  24.545  0.00  0.00    +0.167 A 
BRANCH  18  20
ATOM      1  F   UNL     1       3.722  -0.727  21.376  0.00  0.00    -0.205 F 
ATOM     20  C   UNL     1       1.120   1.455  23.727  0.00  0.00    +0.020 A 
ATOM     22  C   UNL     1       0.672   0.310  23.067  0.00  0.00    +0.014 A 
ATOM     23  C   UNL     1       2.448   1.862  23.592  0.00  0.00    +0.014 A 
ATOM     27  C   UNL     1       1.550  -0.426  22.273  0.00  0.00    +0.039 A 
ATOM     28  C   UNL     1       3.327   1.124  22.799  0.00  0.00    +0.039 A 
ATOM     29  C   UNL     1       2.877  -0.019  22.138  0.00  0.00    +0.123 A 
ENDBRANCH  18  20
ENDBRANCH  14  15
ENDBRANCH  10  14
TORSDOF 8
ENDMDL
MODEL 5
REMARK VINA RESULT:      -2.2      3.762      4.434
REMARK  Name = 75536260
REMARK  8 active torsions:
REMARK  status: ('A' for Active; 'I' for Inactive)
REMARK    1  A    between atoms: O_3  and  C_9
REMARK    2  A    between atoms: N_5  and  C_13
REMARK    3  A    between atoms: N_5  and  C_16
REMARK    4  A    between atoms: C_8  and  C_13
REMARK    5  A    between atoms: C_10  and  C_14
REMARK    6  A    between atoms: C_14  and  C_15
REMARK    7  A    between atoms: C_16  and  C_19
REMARK    8  A    between atoms: C_18  and  C_20
REMARK                            x       y       z     vdW  Elec       q    Type
REMARK                         _______ _______ _______ _____ _____    ______ ____
ROOT
ATOM      2  O   UNL     1      13.682  -7.090  32.134  0.00  0.00    -0.369 OA
ATOM      8  C   UNL     1      12.279  -7.013  32.420  0.00  0.00    +0.161 C 
ATOM      9  C   UNL     1      11.561  -6.078  31.438  0.00  0.00    +0.145 C 
ATOM     10  C   UNL     1      14.010  -7.481  30.799  0.00  0.00    +0.125 C 
ATOM     11  C   UNL     1      11.901  -6.389  29.983  0.00  0.00    +0.036 C 
ATOM     12  C   UNL     1      13.410  -6.505  29.788  0.00  0.00    +0.034 C 
ENDROOT
BRANCH   9   3
ATOM      3  O   UNL     1      11.967  -4.732  31.702  0.00  0.00    -0.389 OA
ATOM     30  H   UNL     1      12.643  -4.495  31.045  0.00  0.00    +0.210 HD
ENDBRANCH   9   3
BRANCH   8  13
ATOM     13  C   UNL     1      11.652  -8.404  32.484  0.00  0.00    +0.115 C 
BRANCH  13   5
ATOM      5  N   UNL     1      10.551  -8.520  31.541  0.00  0.00    -0.308 NA
ATOM     31  H   UNL     1      10.018  -7.650  31.538  0.00  0.00    +0.122 HD
BRANCH   5  16
ATOM     16  C   UNL     1       9.677  -9.633  31.891  0.00  0.00    +0.136 C 
BRANCH  16  19
ATOM      7  N   UNL     1       7.842  -8.262  32.711  0.00  0.00    -0.259 NA
ATOM     19  C   UNL     1       8.225  -9.238  31.858  0.00  0.00    +0.055 A 
ATOM     21  C   UNL     1       7.369  -9.878  30.977  0.00  0.00    +0.024 A 
ATOM     24  C   UNL     1       6.034  -9.490  30.969  0.00  0.00    +0.003 A 
ATOM     25  C   UNL     1       6.537  -7.911  32.675  0.00  0.00    +0.111 A 
ATOM     26  C   UNL     1       5.602  -8.487  31.832  0.00  0.00    +0.020 A 
ENDBRANCH  16  19
ENDBRANCH   5  16
ENDBRANCH  13   5
ENDBRANCH   8  13
BRANCH  10  14
ATOM     14  C   UNL     1      15.530  -7.509  30.690  0.00  0.00    +0.090 C 
BRANCH  14  15
ATOM      4  O   UNL     1      17.345  -4.510  29.847  0.00  0.00    -0.354 OA
ATOM      6  N   UNL     1      17.040  -5.855  29.669  0.00  0.00    -0.083 NA
ATOM     15  C   UNL     1      16.107  -6.122  30.587  0.00  0.00    +0.087 A 
ATOM     17  C   UNL     1      15.787  -4.997  31.367  0.00  0.00    +0.076 A 
ATOM     18  C   UNL     1      16.592  -4.012  30.861  0.00  0.00    +0.167 A 
BRANCH  18  20
ATOM      1  F   UNL     1      17.392   1.368  32.035  0.00  0.00    -0.205 F 
ATOM     20  C   UNL     1      16.797  -2.625  31.163  0.00  0.00    +0.020 A 
ATOM     22  C   UNL     1      17.203  -1.745  30.160  0.00  0.00    +0.014 A 
ATOM     23  C   UNL     1      16.591  -2.155  32.461  0.00  0.00    +0.014 A 
ATOM     27  C   UNL     1      17.404  -0.396  30.454  0.00  0.00    +0.039 A 
ATOM     28  C   UNL     1      16.792  -0.807  32.755  0.00  0.00    +0.039 A 
ATOM     29  C   UNL     1      17.198   0.073  31.751  0.00  0.00    +0.123 A 
ENDBRANCH  18  20
ENDBRANCH  14  15
ENDBRANCH  10  14
TORSDOF 8
ENDMDL
MODEL 6
REMARK VINA RESULT:      -1.4     14.541     16.973
REMARK  Name = 75536260
REMARK  8 active torsions:
REMARK  status: ('A' for Active; 'I' for Inactive)
REMARK    1  A    between atoms: O_3  and  C_9
REMARK    2  A    between atoms: N_5  and  C_13
REMARK    3  A    between atoms: N_5  and  C_16
REMARK    4  A    between atoms: C_8  and  C_13
REMARK    5  A    between atoms: C_10  and  C_14
REMARK    6  A    between atoms: C_14  and  C_15
REMARK    7  A    between atoms: C_16  and  C_19
REMARK    8  A    between atoms: C_18  and  C_20
REMARK                            x       y       z     vdW  Elec       q    Type
REMARK                         _______ _______ _______ _____ _____    ______ ____
ROOT
ATOM      2  O   UNL     1      -1.114   2.670  24.123  0.00  0.00    -0.369 OA
ATOM      8  C   UNL     1      -1.248   3.346  25.379  0.00  0.00    +0.161 C 
ATOM      9  C   UNL     1      -2.644   3.964  25.534  0.00  0.00    +0.145 C 
ATOM     10  C   UNL     1      -2.096   1.663  23.865  0.00  0.00    +0.125 C 
ATOM     11  C   UNL     1      -3.759   2.969  25.222  0.00  0.00    +0.036 C 
ATOM     12  C   UNL     1      -3.502   2.262  23.893  0.00  0.00    +0.034 C 
ENDROOT
BRANCH   9   3
ATOM      3  O   UNL     1      -2.768   5.058  24.622  0.00  0.00    -0.389 OA
ATOM     30  H   UNL     1      -3.371   4.782  23.911  0.00  0.00    +0.210 HD
ENDBRANCH   9   3
BRANCH   8  13
ATOM     13  C   UNL     1      -0.870   2.429  26.541  0.00  0.00    +0.115 C 
BRANCH  13   5
ATOM      5  N   UNL     1      -0.324   1.172  26.053  0.00  0.00    -0.308 NA
ATOM     31  H   UNL     1      -0.534   1.079  25.059  0.00  0.00    +0.122 HD
BRANCH   5  16
ATOM     16  C   UNL     1      -0.880   0.041  26.785  0.00  0.00    +0.136 C 
BRANCH  16  19
ATOM      7  N   UNL     1      -0.986  -1.680  25.068  0.00  0.00    -0.259 NA
ATOM     19  C   UNL     1      -1.684  -0.865  25.890  0.00  0.00    +0.055 A 
ATOM     21  C   UNL     1      -3.068  -0.822  25.949  0.00  0.00    +0.024 A 
ATOM     24  C   UNL     1      -3.781  -1.672  25.111  0.00  0.00    +0.003 A 
ATOM     25  C   UNL     1      -1.713  -2.492  24.269  0.00  0.00    +0.111 A 
ATOM     26  C   UNL     1      -3.097  -2.526  24.252  0.00  0.00    +0.020 A 
ENDBRANCH  16  19
ENDBRANCH   5  16
ENDBRANCH  13   5
ENDBRANCH   8  13
BRANCH  10  14
ATOM     14  C   UNL     1      -1.790   1.062  22.499  0.00  0.00    +0.090 C 
BRANCH  14  15
ATOM      4  O   UNL     1       1.319  -0.563  21.667  0.00  0.00    -0.354 OA
ATOM      6  N   UNL     1      -0.028  -0.298  21.447  0.00  0.00    -0.083 NA
ATOM     15  C   UNL     1      -0.377   0.550  22.419  0.00  0.00    +0.087 A 
ATOM     17  C   UNL     1       0.698   0.853  23.274  0.00  0.00    +0.076 A 
ATOM     18  C   UNL     1       1.738   0.128  22.757  0.00  0.00    +0.167 A 
BRANCH  18  20
ATOM      1  F   UNL     1       7.091  -0.545  24.117  0.00  0.00    -0.205 F 
ATOM     20  C   UNL     1       3.118  -0.045  23.109  0.00  0.00    +0.020 A 
ATOM     22  C   UNL     1       4.015   1.013  22.957  0.00  0.00    +0.014 A 
ATOM     23  C   UNL     1       3.564  -1.271  23.602  0.00  0.00    +0.014 A 
ATOM     27  C   UNL     1       5.356   0.845  23.298  0.00  0.00    +0.039 A 
ATOM     28  C   UNL     1       4.906  -1.440  23.942  0.00  0.00    +0.039 A 
ATOM     29  C   UNL     1       5.802  -0.382  23.791  0.00  0.00    +0.123 A 
ENDBRANCH  18  20
ENDBRANCH  14  15
ENDBRANCH  10  14
TORSDOF 8
ENDMDL
MODEL 7
REMARK VINA RESULT:      -1.2     16.047     19.083
REMARK  Name = 75536260
REMARK  8 active torsions:
REMARK  status: ('A' for Active; 'I' for Inactive)
REMARK    1  A    between atoms: O_3  and  C_9
REMARK    2  A    between atoms: N_5  and  C_13
REMARK    3  A    between atoms: N_5  and  C_16
REMARK    4  A    between atoms: C_8  and  C_13
REMARK    5  A    between atoms: C_10  and  C_14
REMARK    6  A    between atoms: C_14  and  C_15
REMARK    7  A    between atoms: C_16  and  C_19
REMARK    8  A    between atoms: C_18  and  C_20
REMARK                            x       y       z     vdW  Elec       q    Type
REMARK                         _______ _______ _______ _____ _____    ______ ____
ROOT
ATOM      2  O   UNL     1      -4.617   0.976  24.082  0.00  0.00    -0.369 OA
ATOM      8  C   UNL     1      -5.176   2.294  24.024  0.00  0.00    +0.161 C 
ATOM      9  C   UNL     1      -6.416   2.414  24.921  0.00  0.00    +0.145 C 
ATOM     10  C   UNL     1      -4.285   0.513  25.393  0.00  0.00    +0.125 C 
ATOM     11  C   UNL     1      -6.166   1.887  26.332  0.00  0.00    +0.036 C 
ATOM     12  C   UNL     1      -5.522   0.504  26.291  0.00  0.00    +0.034 C 
ENDROOT
BRANCH   9   3
ATOM      3  O   UNL     1      -7.476   1.643  24.349  0.00  0.00    -0.389 OA
ATOM     30  H   UNL     1      -7.210   1.402  23.446  0.00  0.00    +0.210 HD
ENDBRANCH   9   3
BRANCH   8  13
ATOM     13  C   UNL     1      -4.119   3.355  24.324  0.00  0.00    +0.115 C 
BRANCH  13   5
ATOM      5  N   UNL     1      -4.575   4.261  25.366  0.00  0.00    -0.308 NA
ATOM     31  H   UNL     1      -4.764   5.177  24.957  0.00  0.00    +0.122 HD
BRANCH   5  16
ATOM     16  C   UNL     1      -3.579   4.388  26.422  0.00  0.00    +0.136 C 
BRANCH  16  19
ATOM      7  N   UNL     1      -1.646   2.911  26.352  0.00  0.00    -0.259 NA
ATOM     19  C   UNL     1      -2.193   4.071  25.926  0.00  0.00    +0.055 A 
ATOM     21  C   UNL     1      -1.558   4.961  25.074  0.00  0.00    +0.024 A 
ATOM     24  C   UNL     1      -0.280   4.639  24.632  0.00  0.00    +0.003 A 
ATOM     25  C   UNL     1      -0.402   2.632  25.902  0.00  0.00    +0.111 A 
ATOM     26  C   UNL     1       0.316   3.453  25.050  0.00  0.00    +0.020 A 
ENDBRANCH  16  19
ENDBRANCH   5  16
ENDBRANCH  13   5
ENDBRANCH   8  13
BRANCH  10  14
ATOM     14  C   UNL     1      -3.708  -0.891  25.251  0.00  0.00    +0.090 C 
BRANCH  14  15
ATOM      4  O   UNL     1      -0.131  -1.304  25.090  0.00  0.00    -0.354 OA
ATOM      6  N   UNL     1      -1.372  -1.551  25.664  0.00  0.00    -0.083 NA
ATOM     15  C   UNL     1      -2.240  -0.859  24.919  0.00  0.00    +0.087 A 
ATOM     17  C   UNL     1      -1.610  -0.162  23.873  0.00  0.00    +0.076 A 
ATOM     18  C   UNL     1      -0.286  -0.476  24.026  0.00  0.00    +0.167 A 
BRANCH  18  20
ATOM      1  F   UNL     1       4.387   0.863  21.318  0.00  0.00    -0.205 F 
ATOM     20  C   UNL     1       0.918  -0.130  23.327  0.00  0.00    +0.020 A 
ATOM     22  C   UNL     1       1.168  -0.661  22.062  0.00  0.00    +0.014 A 
ATOM     23  C   UNL     1       1.841   0.737  23.914  0.00  0.00    +0.014 A 
ATOM     27  C   UNL     1       2.339  -0.325  21.383  0.00  0.00    +0.039 A 
ATOM     28  C   UNL     1       3.013   1.072  23.235  0.00  0.00    +0.039 A 
ATOM     29  C   UNL     1       3.261   0.541  21.969  0.00  0.00    +0.123 A 
ENDBRANCH  18  20
ENDBRANCH  14  15
ENDBRANCH  10  14
TORSDOF 8
ENDMDL
MODEL 8
REMARK VINA RESULT:      -0.7     14.716     17.476
REMARK  Name = 75536260
REMARK  8 active torsions:
REMARK  status: ('A' for Active; 'I' for Inactive)
REMARK    1  A    between atoms: O_3  and  C_9
REMARK    2  A    between atoms: N_5  and  C_13
REMARK    3  A    between atoms: N_5  and  C_16
REMARK    4  A    between atoms: C_8  and  C_13
REMARK    5  A    between atoms: C_10  and  C_14
REMARK    6  A    between atoms: C_14  and  C_15
REMARK    7  A    between atoms: C_16  and  C_19
REMARK    8  A    between atoms: C_18  and  C_20
REMARK                            x       y       z     vdW  Elec       q    Type
REMARK                         _______ _______ _______ _____ _____    ______ ____
ROOT
ATOM      2  O   UNL     1      -2.450   2.513  24.075  0.00  0.00    -0.369 OA
ATOM      8  C   UNL     1      -2.641   3.736  24.799  0.00  0.00    +0.161 C 
ATOM      9  C   UNL     1      -4.131   4.029  25.015  0.00  0.00    +0.145 C 
ATOM     10  C   UNL     1      -3.069   1.362  24.652  0.00  0.00    +0.125 C 
ATOM     11  C   UNL     1      -4.885   2.828  25.579  0.00  0.00    +0.036 C 
ATOM     12  C   UNL     1      -4.578   1.566  24.777  0.00  0.00    +0.034 C 
ENDROOT
BRANCH   9   3
ATOM      3  O   UNL     1      -4.723   4.363  23.756  0.00  0.00    -0.389 OA
ATOM     30  H   UNL     1      -4.745   3.554  23.218  0.00  0.00    +0.210 HD
ENDBRANCH   9   3
BRANCH   8  13
ATOM     13  C   UNL     1      -1.839   3.737  26.099  0.00  0.00    +0.115 C 
BRANCH  13   5
ATOM      5  N   UNL     1      -0.419   3.566  25.832  0.00  0.00    -0.308 NA
ATOM     31  H   UNL     1      -0.260   3.603  24.825  0.00  0.00    +0.122 HD
BRANCH   5  16
ATOM     16  C   UNL     1       0.063   2.297  26.363  0.00  0.00    +0.136 C 
BRANCH  16  19
ATOM      7  N   UNL     1       2.129   2.865  27.515  0.00  0.00    -0.259 NA
ATOM     19  C   UNL     1       0.839   2.482  27.639  0.00  0.00    +0.055 A 
ATOM     21  C   UNL     1       0.210   2.257  28.853  0.00  0.00    +0.024 A 
ATOM     24  C   UNL     1       0.953   2.437  30.015  0.00  0.00    +0.003 A 
ATOM     25  C   UNL     1       2.820   3.030  28.666  0.00  0.00    +0.111 A 
ATOM     26  C   UNL     1       2.284   2.832  29.927  0.00  0.00    +0.020 A 
ENDBRANCH  16  19
ENDBRANCH   5  16
ENDBRANCH  13   5
ENDBRANCH   8  13
BRANCH  10  14
ATOM     14  C   UNL     1      -2.755   0.173  23.751  0.00  0.00    +0.090 C 
BRANCH  14  15
ATOM      4  O   UNL     1       0.434  -1.401  24.339  0.00  0.00    -0.354 OA
ATOM      6  N   UNL     1      -0.950  -1.348  24.451  0.00  0.00    -0.083 NA
ATOM     15  C   UNL     1      -1.304  -0.219  23.830  0.00  0.00    +0.087 A 
ATOM     17  C   UNL     1      -0.197   0.475  23.312  0.00  0.00    +0.076 A 
ATOM     18  C   UNL     1       0.870  -0.310  23.659  0.00  0.00    +0.167 A 
BRANCH  18  20
ATOM      1  F   UNL     1       6.372   0.018  22.902  0.00  0.00    -0.205 F 
ATOM     20  C   UNL     1       2.288  -0.226  23.463  0.00  0.00    +0.020 A 
ATOM     22  C   UNL     1       3.109  -1.288  23.841  0.00  0.00    +0.014 A 
ATOM     23  C   UNL     1       2.847   0.919  22.895  0.00  0.00    +0.014 A 
ATOM     27  C   UNL     1       4.488  -1.207  23.651  0.00  0.00    +0.039 A 
ATOM     28  C   UNL     1       4.227   1.002  22.706  0.00  0.00    +0.039 A 
ATOM     29  C   UNL     1       5.047  -0.062  23.083  0.00  0.00    +0.123 A 
ENDBRANCH  18  20
ENDBRANCH  14  15
ENDBRANCH  10  14
TORSDOF 8
ENDMDL
MODEL 9
REMARK VINA RESULT:      -0.7     16.374     19.928
REMARK  Name = 75536260
REMARK  8 active torsions:
REMARK  status: ('A' for Active; 'I' for Inactive)
REMARK    1  A    between atoms: O_3  and  C_9
REMARK    2  A    between atoms: N_5  and  C_13
REMARK    3  A    between atoms: N_5  and  C_16
REMARK    4  A    between atoms: C_8  and  C_13
REMARK    5  A    between atoms: C_10  and  C_14
REMARK    6  A    between atoms: C_14  and  C_15
REMARK    7  A    between atoms: C_16  and  C_19
REMARK    8  A    between atoms: C_18  and  C_20
REMARK                            x       y       z     vdW  Elec       q    Type
REMARK                         _______ _______ _______ _____ _____    ______ ____
ROOT
ATOM      2  O   UNL     1      -1.925   3.547  24.686  0.00  0.00    -0.369 OA
ATOM      8  C   UNL     1      -0.492   3.599  24.652  0.00  0.00    +0.161 C 
ATOM      9  C   UNL     1       0.005   4.988  24.232  0.00  0.00    +0.145 C 
ATOM     10  C   UNL     1      -2.550   4.531  25.512  0.00  0.00    +0.125 C 
ATOM     11  C   UNL     1      -0.657   6.109  25.029  0.00  0.00    +0.036 C 
ATOM     12  C   UNL     1      -2.174   5.939  25.052  0.00  0.00    +0.034 C 
ENDROOT
BRANCH   9   3
ATOM      3  O   UNL     1      -0.307   5.192  22.851  0.00  0.00    -0.389 OA
ATOM     30  H   UNL     1      -1.229   4.916  22.715  0.00  0.00    +0.210 HD
ENDBRANCH   9   3
BRANCH   8  13
ATOM     13  C   UNL     1       0.107   3.126  25.975  0.00  0.00    +0.115 C 
BRANCH  13   5
ATOM      5  N   UNL     1       0.554   1.745  25.877  0.00  0.00    -0.308 NA
ATOM     31  H   UNL     1       1.570   1.727  25.783  0.00  0.00    +0.122 HD
BRANCH   5  16
ATOM     16  C   UNL     1      -0.060   1.076  24.737  0.00  0.00    +0.136 C 
BRANCH  16  19
ATOM      7  N   UNL     1       2.164   1.303  23.776  0.00  0.00    -0.259 NA
ATOM     19  C   UNL     1       0.958   0.698  23.694  0.00  0.00    +0.055 A 
ATOM     21  C   UNL     1       0.621  -0.230  22.722  0.00  0.00    +0.024 A 
ATOM     24  C   UNL     1       1.583  -0.560  21.775  0.00  0.00    +0.003 A 
ATOM     25  C   UNL     1       3.074   0.958  22.837  0.00  0.00    +0.111 A 
ATOM     26  C   UNL     1       2.836   0.042  21.827  0.00  0.00    +0.020 A 
ENDBRANCH  16  19
ENDBRANCH   5  16
ENDBRANCH  13   5
ENDBRANCH   8  13
BRANCH  10  14
ATOM     14  C   UNL     1      -4.057   4.316  25.421  0.00  0.00    +0.090 C 
BRANCH  14  15
ATOM      4  O   UNL     1      -5.638   1.097  25.061  0.00  0.00    -0.354 OA
ATOM      6  N   UNL     1      -5.679   2.472  25.260  0.00  0.00    -0.083 NA
ATOM     15  C   UNL     1      -4.402   2.862  25.235  0.00  0.00    +0.087 A 
ATOM     17  C   UNL     1      -3.519   1.789  25.027  0.00  0.00    +0.076 A 
ATOM     18  C   UNL     1      -4.347   0.703  24.924  0.00  0.00    +0.167 A 
BRANCH  18  20
ATOM      1  F   UNL     1      -3.568  -4.744  24.094  0.00  0.00    -0.205 F 
ATOM     20  C   UNL     1      -4.145  -0.701  24.709  0.00  0.00    +0.020 A 
ATOM     22  C   UNL     1      -4.640  -1.309  23.555  0.00  0.00    +0.014 A 
ATOM     23  C   UNL     1      -3.454  -1.459  25.654  0.00  0.00    +0.014 A 
ATOM     27  C   UNL     1      -4.445  -2.674  23.347  0.00  0.00    +0.039 A 
ATOM     28  C   UNL     1      -3.260  -2.825  25.447  0.00  0.00    +0.039 A 
ATOM     29  C   UNL     1      -3.755  -3.432  24.292  0.00  0.00    +0.123 A 
ENDBRANCH  18  20
ENDBRANCH  14  15
ENDBRANCH  10  14
TORSDOF 8
ENDMDL
MODEL 10
REMARK VINA RESULT:      -0.4     16.033     19.355
REMARK  Name = 75536260
REMARK  8 active torsions:
REMARK  status: ('A' for Active; 'I' for Inactive)
REMARK    1  A    between atoms: O_3  and  C_9
REMARK    2  A    between atoms: N_5  and  C_13
REMARK    3  A    between atoms: N_5  and  C_16
REMARK    4  A    between atoms: C_8  and  C_13
REMARK    5  A    between atoms: C_10  and  C_14
REMARK    6  A    between atoms: C_14  and  C_15
REMARK    7  A    between atoms: C_16  and  C_19
REMARK    8  A    between atoms: C_18  and  C_20
REMARK                            x       y       z     vdW  Elec       q    Type
REMARK                         _______ _______ _______ _____ _____    ______ ____
ROOT
ATOM      2  O   UNL     1       0.277   1.096  23.163  0.00  0.00    -0.369 OA
ATOM      8  C   UNL     1       0.456  -0.321  23.040  0.00  0.00    +0.161 C 
ATOM      9  C   UNL     1       1.749  -0.655  22.283  0.00  0.00    +0.145 C 
ATOM     10  C   UNL     1       1.364   1.796  23.773  0.00  0.00    +0.125 C 
ATOM     11  C   UNL     1       2.957   0.097  22.835  0.00  0.00    +0.036 C 
ATOM     12  C   UNL     1       2.653   1.585  22.980  0.00  0.00    +0.034 C 
ENDROOT
BRANCH   9   3
ATOM      3  O   UNL     1       1.591  -0.281  20.912  0.00  0.00    -0.389 OA
ATOM     30  H   UNL     1       1.816   0.662  20.837  0.00  0.00    +0.210 HD
ENDBRANCH   9   3
BRANCH   8  13
ATOM     13  C   UNL     1       0.368  -1.008  24.401  0.00  0.00    +0.115 C 
BRANCH  13   5
ATOM      5  N   UNL     1      -0.320  -0.162  25.364  0.00  0.00    -0.308 NA
ATOM     31  H   UNL     1       0.366   0.265  25.986  0.00  0.00    +0.122 HD
BRANCH   5  16
ATOM     16  C   UNL     1      -1.281  -0.933  26.144  0.00  0.00    +0.136 C 
BRANCH  16  19
ATOM      7  N   UNL     1      -2.331  -2.813  25.010  0.00  0.00    -0.259 NA
ATOM     19  C   UNL     1      -2.383  -1.490  25.283  0.00  0.00    +0.055 A 
ATOM     21  C   UNL     1      -3.377  -0.642  24.820  0.00  0.00    +0.024 A 
ATOM     24  C   UNL     1      -4.381  -1.186  24.028  0.00  0.00    +0.003 A 
ATOM     25  C   UNL     1      -3.324  -3.307  24.237  0.00  0.00    +0.111 A 
ATOM     26  C   UNL     1      -4.361  -2.545  23.727  0.00  0.00    +0.020 A 
ENDBRANCH  16  19
ENDBRANCH   5  16
ENDBRANCH  13   5
ENDBRANCH   8  13
BRANCH  10  14
ATOM     14  C   UNL     1       0.990   3.273  23.817  0.00  0.00    +0.090 C 
BRANCH  14  15
ATOM      4  O   UNL     1      -2.140   4.521  25.097  0.00  0.00    -0.354 OA
ATOM      6  N   UNL     1      -0.812   4.686  24.722  0.00  0.00    -0.083 NA
ATOM     15  C   UNL     1      -0.419   3.478  24.307  0.00  0.00    +0.087 A 
ATOM     17  C   UNL     1      -1.445   2.521  24.398  0.00  0.00    +0.076 A 
ATOM     18  C   UNL     1      -2.505   3.228  24.900  0.00  0.00    +0.167 A 
BRANCH  18  20
ATOM      1  F   UNL     1      -7.756   1.968  26.236  0.00  0.00    -0.205 F 
ATOM     20  C   UNL     1      -3.859   2.905  25.244  0.00  0.00    +0.020 A 
ATOM     22  C   UNL     1      -4.368   3.269  26.491  0.00  0.00    +0.014 A 
ATOM     23  C   UNL     1      -4.667   2.225  24.332  0.00  0.00    +0.014 A 
ATOM     27  C   UNL     1      -5.684   2.953  26.826  0.00  0.00    +0.039 A 
ATOM     28  C   UNL     1      -5.983   1.908  24.668  0.00  0.00    +0.039 A 
ATOM     29  C   UNL     1      -6.492   2.273  25.914  0.00  0.00    +0.123 A 
ENDBRANCH  18  20
ENDBRANCH  14  15
ENDBRANCH  10  14
TORSDOF 8
ENDMDL
