MODEL 1
REMARK VINA RESULT:       6.3      0.000      0.000
REMARK  Name = 11941845
REMARK  5 active torsions:
REMARK  status: ('A' for Active; 'I' for Inactive)
REMARK    1  A    between atoms: N_8  and  C_15
REMARK    2  A    between atoms: N_9  and  C_16
REMARK    3  A    between atoms: N_10  and  C_21
REMARK    4  A    between atoms: C_22  and  C_26
REMARK    5  A    between atoms: C_28  and  C_32
REMARK                            x       y       z     vdW  Elec       q    Type
REMARK                         _______ _______ _______ _____ _____    ______ ____
ROOT
ATOM      5  O   UNL     1      -4.787  -1.036  23.637  0.00  0.00    -0.370 OA
ATOM      6  O   UNL     1      -3.301  -0.995  26.381  0.00  0.00    -0.370 OA
ATOM     13  C   UNL     1      -3.374  -0.064  25.287  0.00  0.00    +0.171 C 
ATOM     14  C   UNL     1      -3.407  -0.877  24.007  0.00  0.00    +0.171 C 
ATOM     15  C   UNL     1      -4.701   0.657  25.300  0.00  0.00    +0.130 C 
ATOM     16  C   UNL     1      -2.811  -2.209  24.401  0.00  0.00    +0.131 C 
ATOM     17  C   UNL     1      -5.610  -0.304  24.556  0.00  0.00    +0.185 C 
ATOM     18  C   UNL     1      -3.220  -2.329  25.858  0.00  0.00    +0.185 C 
ENDROOT
BRANCH  15   8
ATOM      8  N   UNL     1      -4.593   1.906  24.579  0.00  0.00    -0.306 N 
ATOM     11  N   UNL     1      -2.593   2.487  25.660  0.00  0.00    -0.214 NA
ATOM     12  N   UNL     1      -3.577   3.942  24.010  0.00  0.00    -0.223 NA
ATOM     19  C   UNL     1      -3.557   2.805  24.755  0.00  0.00    +0.216 A 
ATOM     22  C   UNL     1      -1.598   3.386  25.806  0.00  0.00    +0.083 A 
ATOM     23  C   UNL     1      -2.552   4.796  24.206  0.00  0.00    +0.116 A 
ATOM     24  C   UNL     1      -1.525   4.569  25.099  0.00  0.00    +0.049 A 
ATOM     35  H   UNL     1      -5.277   2.127  23.864  0.00  0.00    +0.149 HD
BRANCH  22  26
ATOM      1  S   UNL     1       1.021   2.795  26.245  0.00  0.00    -0.095 S 
ATOM     26  C   UNL     1      -0.595   3.023  26.771  0.00  0.00    +0.038 A 
ATOM     31  C   UNL     1      -0.725   2.817  28.130  0.00  0.00    +0.017 A 
ATOM     33  C   UNL     1       0.514   2.468  28.742  0.00  0.00    +0.008 A 
ATOM     34  C   UNL     1       1.546   2.421  27.832  0.00  0.00    +0.046 A 
ENDBRANCH  22  26
ENDBRANCH  15   8
BRANCH  16   9
ATOM      7  O   UNL     1      -1.172   0.034  23.702  0.00  0.00    -0.252 OA
ATOM      9  N   UNL     1      -1.375  -2.201  24.260  0.00  0.00    -0.292 N 
ATOM     10  N   UNL     1       0.719  -1.349  23.853  0.00  0.00    -0.269 N 
ATOM     20  C   UNL     1      -0.646  -1.056  23.914  0.00  0.00    +0.304 C 
ATOM     36  H   UNL     1      -0.862  -3.047  24.486  0.00  0.00    +0.151 HD
ATOM     37  H   UNL     1       0.989  -2.307  24.056  0.00  0.00    +0.156 HD
BRANCH  10  21
ATOM     21  C   UNL     1       1.782  -0.469  23.539  0.00  0.00    +0.035 A 
ATOM     25  C   UNL     1       3.089  -0.900  23.700  0.00  0.00    +0.035 A 
ATOM     27  C   UNL     1       1.494   0.804  23.075  0.00  0.00    +0.023 A 
ATOM     28  C   UNL     1       4.137  -0.033  23.389  0.00  0.00    +0.057 A 
ATOM     29  C   UNL     1       2.542   1.671  22.765  0.00  0.00    +0.002 A 
ATOM     30  C   UNL     1       3.864   1.252  22.921  0.00  0.00    +0.012 A 
BRANCH  28  32
ATOM      2  F   UNL     1       5.673  -1.807  23.857  0.00  0.00    -0.166 F 
ATOM      3  F   UNL     1       6.318  -0.293  22.444  0.00  0.00    -0.166 F 
ATOM      4  F   UNL     1       6.193   0.183  24.562  0.00  0.00    -0.166 F 
ATOM     32  C   UNL     1       5.550  -0.480  23.557  0.00  0.00    +0.417 C 
ENDBRANCH  28  32
ENDBRANCH  10  21
ENDBRANCH  16   9
TORSDOF 5
ENDMDL
MODEL 2
REMARK VINA RESULT:       6.9      2.336      4.136
REMARK  Name = 11941845
REMARK  5 active torsions:
REMARK  status: ('A' for Active; 'I' for Inactive)
REMARK    1  A    between atoms: N_8  and  C_15
REMARK    2  A    between atoms: N_9  and  C_16
REMARK    3  A    between atoms: N_10  and  C_21
REMARK    4  A    between atoms: C_22  and  C_26
REMARK    5  A    between atoms: C_28  and  C_32
REMARK                            x       y       z     vdW  Elec       q    Type
REMARK                         _______ _______ _______ _____ _____    ______ ____
ROOT
ATOM      5  O   UNL     1      -3.255   3.989  27.130  0.00  0.00    -0.370 OA
ATOM      6  O   UNL     1      -1.929   4.587  24.370  0.00  0.00    -0.370 OA
ATOM     13  C   UNL     1      -3.039   3.766  24.771  0.00  0.00    +0.171 C 
ATOM     14  C   UNL     1      -2.684   3.152  26.111  0.00  0.00    +0.171 C 
ATOM     15  C   UNL     1      -4.245   4.625  25.067  0.00  0.00    +0.130 C 
ATOM     16  C   UNL     1      -1.174   3.221  26.159  0.00  0.00    +0.131 C 
ATOM     17  C   UNL     1      -4.015   5.036  26.509  0.00  0.00    +0.185 C 
ATOM     18  C   UNL     1      -0.881   4.468  25.343  0.00  0.00    +0.185 C 
ENDROOT
BRANCH  15   8
ATOM      8  N   UNL     1      -5.454   3.838  24.957  0.00  0.00    -0.306 N 
ATOM     11  N   UNL     1      -4.260   1.822  24.813  0.00  0.00    -0.214 NA
ATOM     12  N   UNL     1      -6.669   1.844  24.740  0.00  0.00    -0.223 NA
ATOM     19  C   UNL     1      -5.461   2.461  24.832  0.00  0.00    +0.216 A 
ATOM     22  C   UNL     1      -4.305   0.480  24.691  0.00  0.00    +0.083 A 
ATOM     23  C   UNL     1      -6.640   0.500  24.620  0.00  0.00    +0.116 A 
ATOM     24  C   UNL     1      -5.478  -0.242  24.590  0.00  0.00    +0.049 A 
ATOM     35  H   UNL     1      -6.355   4.298  25.024  0.00  0.00    +0.149 HD
BRANCH  22  26
ATOM      1  S   UNL     1      -2.416  -0.862  26.119  0.00  0.00    -0.095 S 
ATOM     26  C   UNL     1      -3.020  -0.167  24.672  0.00  0.00    +0.038 A 
ATOM     31  C   UNL     1      -2.141  -0.331  23.620  0.00  0.00    +0.017 A 
ATOM     33  C   UNL     1      -0.963  -1.033  24.008  0.00  0.00    +0.008 A 
ATOM     34  C   UNL     1      -0.983  -1.381  25.339  0.00  0.00    +0.046 A 
ENDBRANCH  22  26
ENDBRANCH  15   8
BRANCH  16   9
ATOM      7  O   UNL     1       1.041   3.170  24.344  0.00  0.00    -0.252 OA
ATOM      9  N   UNL     1      -0.578   2.052  25.559  0.00  0.00    -0.292 N 
ATOM     10  N   UNL     1       0.869   0.830  24.259  0.00  0.00    -0.269 N 
ATOM     20  C   UNL     1       0.509   2.114  24.678  0.00  0.00    +0.304 C 
ATOM     36  H   UNL     1      -0.919   1.138  25.838  0.00  0.00    +0.151 HD
ATOM     37  H   UNL     1       0.321   0.059  24.631  0.00  0.00    +0.156 HD
BRANCH  10  21
ATOM     21  C   UNL     1       1.911   0.466  23.374  0.00  0.00    +0.035 A 
ATOM     25  C   UNL     1       3.218   0.447  23.836  0.00  0.00    +0.035 A 
ATOM     27  C   UNL     1       1.604   0.134  22.065  0.00  0.00    +0.023 A 
ATOM     28  C   UNL     1       4.244   0.086  22.964  0.00  0.00    +0.057 A 
ATOM     29  C   UNL     1       2.631  -0.226  21.193  0.00  0.00    +0.002 A 
ATOM     30  C   UNL     1       3.952  -0.250  21.642  0.00  0.00    +0.012 A 
BRANCH  28  32
ATOM      2  F   UNL     1       5.861  -0.779  24.501  0.00  0.00    -0.166 F 
ATOM      3  F   UNL     1       6.550  -0.340  22.492  0.00  0.00    -0.166 F 
ATOM      4  F   UNL     1       6.090   1.286  23.861  0.00  0.00    -0.166 F 
ATOM     32  C   UNL     1       5.656   0.061  23.443  0.00  0.00    +0.417 C 
ENDBRANCH  28  32
ENDBRANCH  10  21
ENDBRANCH  16   9
TORSDOF 5
ENDMDL
MODEL 3
REMARK VINA RESULT:       7.3      1.548      2.019
REMARK  Name = 11941845
REMARK  5 active torsions:
REMARK  status: ('A' for Active; 'I' for Inactive)
REMARK    1  A    between atoms: N_8  and  C_15
REMARK    2  A    between atoms: N_9  and  C_16
REMARK    3  A    between atoms: N_10  and  C_21
REMARK    4  A    between atoms: C_22  and  C_26
REMARK    5  A    between atoms: C_28  and  C_32
REMARK                            x       y       z     vdW  Elec       q    Type
REMARK                         _______ _______ _______ _____ _____    ______ ____
ROOT
ATOM      5  O   UNL     1      -4.080  -2.444  24.046  0.00  0.00    -0.370 OA
ATOM      6  O   UNL     1      -1.874  -1.344  25.959  0.00  0.00    -0.370 OA
ATOM     13  C   UNL     1      -2.914  -0.714  25.191  0.00  0.00    +0.171 C 
ATOM     14  C   UNL     1      -3.031  -1.475  23.884  0.00  0.00    +0.171 C 
ATOM     15  C   UNL     1      -4.254  -0.918  25.858  0.00  0.00    +0.130 C 
ATOM     16  C   UNL     1      -1.694  -2.166  23.739  0.00  0.00    +0.131 C 
ATOM     17  C   UNL     1      -4.681  -2.278  25.339  0.00  0.00    +0.185 C 
ATOM     18  C   UNL     1      -1.294  -2.404  25.185  0.00  0.00    +0.185 C 
ENDROOT
BRANCH  15   8
ATOM      8  N   UNL     1      -5.184   0.099  25.421  0.00  0.00    -0.306 N 
ATOM     11  N   UNL     1      -3.507   1.735  25.291  0.00  0.00    -0.214 NA
ATOM     12  N   UNL     1      -5.793   2.259  24.738  0.00  0.00    -0.223 NA
ATOM     19  C   UNL     1      -4.817   1.403  25.142  0.00  0.00    +0.216 A 
ATOM     22  C   UNL     1      -3.184   3.014  25.010  0.00  0.00    +0.083 A 
ATOM     23  C   UNL     1      -5.401   3.522  24.474  0.00  0.00    +0.116 A 
ATOM     24  C   UNL     1      -4.098   3.961  24.593  0.00  0.00    +0.049 A 
ATOM     35  H   UNL     1      -6.153  -0.151  25.256  0.00  0.00    +0.149 HD
BRANCH  22  26
ATOM      1  S   UNL     1      -0.709   2.106  25.684  0.00  0.00    -0.095 S 
ATOM     26  C   UNL     1      -1.792   3.336  25.178  0.00  0.00    +0.038 A 
ATOM     31  C   UNL     1      -1.145   4.541  24.989  0.00  0.00    +0.017 A 
ATOM     33  C   UNL     1       0.251   4.451  25.263  0.00  0.00    +0.008 A 
ATOM     34  C   UNL     1       0.622   3.183  25.649  0.00  0.00    +0.046 A 
ENDBRANCH  22  26
ENDBRANCH  15   8
BRANCH  16   9
ATOM      7  O   UNL     1       0.950  -1.521  24.633  0.00  0.00    -0.252 OA
ATOM      9  N   UNL     1      -0.739  -1.320  23.066  0.00  0.00    -0.292 N 
ATOM     10  N   UNL     1       1.238  -0.207  22.708  0.00  0.00    -0.269 N 
ATOM     20  C   UNL     1       0.539  -1.054  23.572  0.00  0.00    +0.304 C 
ATOM     36  H   UNL     1      -0.980  -0.952  22.151  0.00  0.00    +0.151 HD
ATOM     37  H   UNL     1       0.750   0.091  21.868  0.00  0.00    +0.156 HD
BRANCH  10  21
ATOM     21  C   UNL     1       2.553   0.293  22.858  0.00  0.00    +0.035 A 
ATOM     25  C   UNL     1       3.555  -0.555  23.305  0.00  0.00    +0.035 A 
ATOM     27  C   UNL     1       2.813   1.619  22.553  0.00  0.00    +0.023 A 
ATOM     28  C   UNL     1       4.851  -0.062  23.451  0.00  0.00    +0.057 A 
ATOM     29  C   UNL     1       4.110   2.112  22.700  0.00  0.00    +0.002 A 
ATOM     30  C   UNL     1       5.129   1.271  23.149  0.00  0.00    +0.012 A 
BRANCH  28  32
ATOM      2  F   UNL     1       6.150  -0.896  25.279  0.00  0.00    -0.166 F 
ATOM      3  F   UNL     1       5.717  -2.281  23.667  0.00  0.00    -0.166 F 
ATOM      4  F   UNL     1       7.147  -0.671  23.360  0.00  0.00    -0.166 F 
ATOM     32  C   UNL     1       5.941  -0.960  23.931  0.00  0.00    +0.417 C 
ENDBRANCH  28  32
ENDBRANCH  10  21
ENDBRANCH  16   9
TORSDOF 5
ENDMDL
