MODEL 1
REMARK VINA RESULT:       7.7      0.000      0.000
REMARK  Name = 26742486
REMARK  11 active torsions:
REMARK  status: ('A' for Active; 'I' for Inactive)
REMARK    1  A    between atoms: O_2  and  C_33
REMARK    2  A    between atoms: O_2  and  C_36
REMARK    3  A    between atoms: N_4  and  C_15
REMARK    4  A    between atoms: N_7  and  C_30
REMARK    5  A    between atoms: N_7  and  C_34
REMARK    6  A    between atoms: N_7  and  C_35
REMARK    7  A    between atoms: C_9  and  C_16
REMARK    8  A    between atoms: C_10  and  C_15
REMARK    9  A    between atoms: C_18  and  C_21
REMARK   10  A    between atoms: C_19  and  C_22
REMARK   11  A    between atoms: C_20  and  C_23
REMARK                            x       y       z     vdW  Elec       q    Type
REMARK                         _______ _______ _______ _____ _____    ______ ____
ROOT
ATOM      3  N   UNL     1      -4.299   3.497  25.807  0.00  0.00    -0.297 NA
ATOM      8  C   UNL     1      -5.281   1.745  24.148  0.00  0.00    +0.002 C 
ATOM      9  C   UNL     1      -4.473   1.038  25.272  0.00  0.00    +0.055 C 
ATOM     10  C   UNL     1      -3.978   3.886  24.408  0.00  0.00    +0.074 C 
ATOM     11  C   UNL     1      -4.369   2.760  23.427  0.00  0.00    +0.024 C 
ATOM     12  C   UNL     1      -6.397   2.553  24.844  0.00  0.00    +0.019 C 
ATOM     13  C   UNL     1      -3.757   2.146  26.096  0.00  0.00    +0.094 C 
ATOM     14  C   UNL     1      -5.775   3.441  25.935  0.00  0.00    +0.085 C 
ENDROOT
BRANCH   9  16
ATOM      5  N   UNL     1      -4.063  -1.326  24.796  0.00  0.00    -0.237 NA
ATOM      6  N   UNL     1      -1.885  -2.153  24.178  0.00  0.00    -0.232 NA
ATOM     16  C   UNL     1      -3.529  -0.090  24.878  0.00  0.00    +0.050 A 
ATOM     17  C   UNL     1      -2.202   0.191  24.628  0.00  0.00    +0.052 A 
ATOM     18  C   UNL     1      -1.419  -0.891  24.279  0.00  0.00    +0.075 A 
ATOM     19  C   UNL     1      -3.198  -2.296  24.446  0.00  0.00    +0.127 A 
ATOM     22  C   UNL     1      -3.750  -3.678  24.347  0.00  0.00    +0.088 C 
BRANCH  18  21
ATOM     21  C   UNL     1      -0.013  -0.732  23.993  0.00  0.00    +0.001 A 
ATOM     24  C   UNL     1       0.905  -1.672  24.460  0.00  0.00    +0.012 A 
ATOM     25  C   UNL     1       0.427   0.364  23.249  0.00  0.00    +0.012 A 
ATOM     28  C   UNL     1       2.264  -1.518  24.183  0.00  0.00    +0.024 A 
ATOM     29  C   UNL     1       1.785   0.518  22.972  0.00  0.00    +0.024 A 
ATOM     30  C   UNL     1       2.703  -0.423  23.438  0.00  0.00    +0.029 A 
BRANCH  30   7
ATOM      7  N   UNL     1       4.077  -0.266  23.159  0.00  0.00    -0.336 N 
ATOM     34  C   UNL     1       4.527   0.759  22.239  0.00  0.00    +0.129 C 
ATOM     35  C   UNL     1       5.057  -1.124  23.795  0.00  0.00    +0.129 C 
ENDBRANCH  30   7
ENDBRANCH  18  21
ENDBRANCH   9  16
BRANCH  10  15
ATOM     15  C   UNL     1      -2.516   4.306  24.242  0.00  0.00    +0.123 C 
BRANCH  15   4
ATOM      1  O   UNL     1       0.142   3.220  24.220  0.00  0.00    -0.270 OA
ATOM      4  N   UNL     1      -1.742   3.920  25.381  0.00  0.00    -0.310 N 
ATOM     20  C   UNL     1      -0.453   3.399  25.280  0.00  0.00    +0.244 C 
ATOM     37  H   UNL     1      -2.198   3.985  26.284  0.00  0.00    +0.149 HD
BRANCH  20  23
ATOM     23  C   UNL     1       0.208   3.023  26.556  0.00  0.00    +0.037 A 
ATOM     26  C   UNL     1       1.534   3.389  26.789  0.00  0.00    +0.016 A 
ATOM     27  C   UNL     1      -0.495   2.302  27.520  0.00  0.00    +0.016 A 
ATOM     31  C   UNL     1       2.155   3.033  27.986  0.00  0.00    +0.046 A 
ATOM     32  C   UNL     1       0.126   1.947  28.717  0.00  0.00    +0.046 A 
ATOM     33  C   UNL     1       1.452   2.312  28.950  0.00  0.00    +0.120 A 
BRANCH  33   2
ATOM      2  O   UNL     1       2.058   1.966  30.118  0.00  0.00    -0.495 OA
ATOM     36  C   UNL     1       1.268   2.030  31.304  0.00  0.00    +0.277 C 
ENDBRANCH  33   2
ENDBRANCH  20  23
ENDBRANCH  15   4
ENDBRANCH  10  15
TORSDOF 7
ENDMDL
MODEL 2
REMARK VINA RESULT:      11.4      2.667      4.861
REMARK  Name = 26742486
REMARK  11 active torsions:
REMARK  status: ('A' for Active; 'I' for Inactive)
REMARK    1  A    between atoms: O_2  and  C_33
REMARK    2  A    between atoms: O_2  and  C_36
REMARK    3  A    between atoms: N_4  and  C_15
REMARK    4  A    between atoms: N_7  and  C_30
REMARK    5  A    between atoms: N_7  and  C_34
REMARK    6  A    between atoms: N_7  and  C_35
REMARK    7  A    between atoms: C_9  and  C_16
REMARK    8  A    between atoms: C_10  and  C_15
REMARK    9  A    between atoms: C_18  and  C_21
REMARK   10  A    between atoms: C_19  and  C_22
REMARK   11  A    between atoms: C_20  and  C_23
REMARK                            x       y       z     vdW  Elec       q    Type
REMARK                         _______ _______ _______ _____ _____    ______ ____
ROOT
ATOM      3  N   UNL     1      -3.963  -1.868  25.824  0.00  0.00    -0.297 NA
ATOM      8  C   UNL     1      -2.160  -2.865  24.232  0.00  0.00    +0.002 C 
ATOM      9  C   UNL     1      -1.564  -1.696  25.065  0.00  0.00    +0.055 C 
ATOM     10  C   UNL     1      -4.503  -1.966  24.442  0.00  0.00    +0.074 C 
ATOM     11  C   UNL     1      -3.388  -2.358  23.449  0.00  0.00    +0.024 C 
ATOM     12  C   UNL     1      -2.667  -3.917  25.242  0.00  0.00    +0.019 C 
ATOM     13  C   UNL     1      -2.740  -1.028  25.833  0.00  0.00    +0.094 C 
ATOM     14  C   UNL     1      -3.591  -3.234  26.264  0.00  0.00    +0.085 C 
ENDROOT
BRANCH   9  16
ATOM      5  N   UNL     1      -1.313   0.399  23.827  0.00  0.00    -0.237 NA
ATOM      6  N   UNL     1       0.830   1.185  23.053  0.00  0.00    -0.232 NA
ATOM     16  C   UNL     1      -0.688  -0.677  24.349  0.00  0.00    +0.050 A 
ATOM     17  C   UNL     1       0.673  -0.889  24.266  0.00  0.00    +0.052 A 
ATOM     18  C   UNL     1       1.388   0.084  23.599  0.00  0.00    +0.075 A 
ATOM     19  C   UNL     1      -0.506   1.277  23.202  0.00  0.00    +0.127 A 
ATOM     22  C   UNL     1      -1.160   2.478  22.610  0.00  0.00    +0.088 C 
BRANCH  18  21
ATOM     21  C   UNL     1       2.819  -0.020  23.441  0.00  0.00    +0.001 A 
ATOM     24  C   UNL     1       3.491  -1.156  23.892  0.00  0.00    +0.012 A 
ATOM     25  C   UNL     1       3.531   1.017  22.836  0.00  0.00    +0.012 A 
ATOM     28  C   UNL     1       4.874  -1.256  23.739  0.00  0.00    +0.024 A 
ATOM     29  C   UNL     1       4.914   0.917  22.682  0.00  0.00    +0.024 A 
ATOM     30  C   UNL     1       5.585  -0.219  23.134  0.00  0.00    +0.029 A 
BRANCH  30   7
ATOM      7  N   UNL     1       6.983  -0.320  22.979  0.00  0.00    -0.336 N 
ATOM     34  C   UNL     1       7.864   0.636  23.622  0.00  0.00    +0.129 C 
ATOM     35  C   UNL     1       7.558  -1.385  22.183  0.00  0.00    +0.129 C 
ENDBRANCH  30   7
ENDBRANCH  18  21
ENDBRANCH   9  16
BRANCH  10  15
ATOM     15  C   UNL     1      -5.231  -0.692  24.010  0.00  0.00    +0.123 C 
BRANCH  15   4
ATOM      1  O   UNL     1      -5.978   1.737  25.347  0.00  0.00    -0.270 OA
ATOM      4  N   UNL     1      -4.407   0.460  24.213  0.00  0.00    -0.310 N 
ATOM     20  C   UNL     1      -4.852   1.603  24.876  0.00  0.00    +0.244 C 
ATOM     37  H   UNL     1      -3.484   0.439  23.795  0.00  0.00    +0.149 HD
BRANCH  20  23
ATOM     23  C   UNL     1      -3.883   2.723  24.982  0.00  0.00    +0.037 A 
ATOM     26  C   UNL     1      -4.061   3.875  24.217  0.00  0.00    +0.016 A 
ATOM     27  C   UNL     1      -2.792   2.623  25.846  0.00  0.00    +0.016 A 
ATOM     31  C   UNL     1      -3.150   4.926  24.314  0.00  0.00    +0.046 A 
ATOM     32  C   UNL     1      -1.881   3.674  25.944  0.00  0.00    +0.046 A 
ATOM     33  C   UNL     1      -2.060   4.826  25.178  0.00  0.00    +0.120 A 
BRANCH  33   2
ATOM      2  O   UNL     1      -1.170   5.852  25.273  0.00  0.00    -0.495 OA
ATOM     36  C   UNL     1       0.005   5.768  24.470  0.00  0.00    +0.277 C 
ENDBRANCH  33   2
ENDBRANCH  20  23
ENDBRANCH  15   4
ENDBRANCH  10  15
TORSDOF 7
ENDMDL
