MODEL 1
REMARK VINA RESULT:       2.5      0.000      0.000
REMARK  Name = 26744190
REMARK  9 active torsions:
REMARK  status: ('A' for Active; 'I' for Inactive)
REMARK    1  A    between atoms: S_1  and  C_22
REMARK    2  A    between atoms: S_1  and  C_26
REMARK    3  A    between atoms: O_2  and  C_12
REMARK    4  A    between atoms: O_6  and  C_29
REMARK    5  A    between atoms: O_6  and  C_30
REMARK    6  A    between atoms: N_7  and  C_14
REMARK    7  A    between atoms: C_10  and  C_15
REMARK    8  A    between atoms: C_14  and  C_16
REMARK    9  A    between atoms: C_19  and  C_23
REMARK                            x       y       z     vdW  Elec       q    Type
REMARK                         _______ _______ _______ _____ _____    ______ ____
ROOT
ATOM      7  N   UNL     1      -5.375   2.461  25.423  0.00  0.00    -0.285 NA
ATOM     10  C   UNL     1      -4.502   3.098  24.416  0.00  0.00    +0.149 C 
ATOM     11  C   UNL     1      -4.715   4.609  24.610  0.00  0.00    +0.061 C 
ATOM     12  C   UNL     1      -5.757   4.723  25.715  0.00  0.00    +0.130 C 
ATOM     13  C   UNL     1      -6.478   3.389  25.660  0.00  0.00    +0.116 C 
ENDROOT
BRANCH  10  15
ATOM      3  O   UNL     1      -2.465   2.941  25.758  0.00  0.00    -0.336 OA
ATOM      8  N   UNL     1      -2.260   2.116  23.687  0.00  0.00    -0.190 NA
ATOM      9  N   UNL     1      -1.146   2.482  25.651  0.00  0.00    -0.056 NA
ATOM     15  C   UNL     1      -3.051   2.687  24.559  0.00  0.00    +0.245 A 
ATOM     19  C   UNL     1      -1.103   2.010  24.402  0.00  0.00    +0.202 A 
BRANCH  19  23
ATOM     23  C   UNL     1       0.081   1.426  23.840  0.00  0.00    +0.023 A 
ATOM     24  C   UNL     1      -0.009   0.254  23.089  0.00  0.00    +0.015 A 
ATOM     25  C   UNL     1       1.321   2.028  24.046  0.00  0.00    +0.015 A 
ATOM     27  C   UNL     1       1.141  -0.315  22.543  0.00  0.00    +0.046 A 
ATOM     28  C   UNL     1       2.472   1.460  23.501  0.00  0.00    +0.046 A 
ATOM     29  C   UNL     1       2.382   0.287  22.750  0.00  0.00    +0.120 A 
BRANCH  29   6
ATOM      6  O   UNL     1       3.506  -0.268  22.218  0.00  0.00    -0.495 OA
ATOM     30  C   UNL     1       4.754   0.113  22.795  0.00  0.00    +0.277 C 
ENDBRANCH  29   6
ENDBRANCH  19  23
ENDBRANCH  10  15
BRANCH  12   2
ATOM      2  O   UNL     1      -6.634   5.804  25.469  0.00  0.00    -0.390 OA
ATOM     31  H   UNL     1      -6.165   6.622  25.705  0.00  0.00    +0.210 HD
ENDBRANCH  12   2
BRANCH   7  14
ATOM     14  C   UNL     1      -5.845   1.141  25.023  0.00  0.00    +0.120 C 
BRANCH  14  16
ATOM     16  C   UNL     1      -4.720   0.142  24.951  0.00  0.00    -0.033 A 
ATOM     17  C   UNL     1      -4.467  -0.539  23.761  0.00  0.00    +0.007 A 
ATOM     18  C   UNL     1      -3.930  -0.100  26.075  0.00  0.00    +0.007 A 
ATOM     20  C   UNL     1      -3.425  -1.464  23.694  0.00  0.00    +0.027 A 
ATOM     21  C   UNL     1      -2.889  -1.026  26.009  0.00  0.00    +0.027 A 
ATOM     22  C   UNL     1      -2.635  -1.707  24.818  0.00  0.00    +0.088 A 
BRANCH  22   1
ATOM      1  S   UNL     1      -1.330  -2.862  24.733  0.00  0.00    -0.006 S 
ATOM      4  O   UNL     1      -1.623  -3.973  25.628  0.00  0.00    -0.170 OA
ATOM      5  O   UNL     1      -1.050  -3.122  23.328  0.00  0.00    -0.170 OA
ATOM     26  C   UNL     1       0.068  -2.001  25.419  0.00  0.00    +0.200 C 
ENDBRANCH  22   1
ENDBRANCH  14  16
ENDBRANCH   7  14
TORSDOF 7
ENDMDL
MODEL 2
REMARK VINA RESULT:       5.3      2.637      5.023
REMARK  Name = 26744190
REMARK  9 active torsions:
REMARK  status: ('A' for Active; 'I' for Inactive)
REMARK    1  A    between atoms: S_1  and  C_22
REMARK    2  A    between atoms: S_1  and  C_26
REMARK    3  A    between atoms: O_2  and  C_12
REMARK    4  A    between atoms: O_6  and  C_29
REMARK    5  A    between atoms: O_6  and  C_30
REMARK    6  A    between atoms: N_7  and  C_14
REMARK    7  A    between atoms: C_10  and  C_15
REMARK    8  A    between atoms: C_14  and  C_16
REMARK    9  A    between atoms: C_19  and  C_23
REMARK                            x       y       z     vdW  Elec       q    Type
REMARK                         _______ _______ _______ _____ _____    ______ ____
ROOT
ATOM      7  N   UNL     1      -4.122  -1.003  23.825  0.00  0.00    -0.285 NA
ATOM     10  C   UNL     1      -3.270  -1.420  24.957  0.00  0.00    +0.149 C 
ATOM     11  C   UNL     1      -3.206  -2.954  24.860  0.00  0.00    +0.061 C 
ATOM     12  C   UNL     1      -4.090  -3.311  23.671  0.00  0.00    +0.130 C 
ATOM     13  C   UNL     1      -5.024  -2.121  23.554  0.00  0.00    +0.116 C 
ENDROOT
BRANCH  10  15
ATOM      3  O   UNL     1      -1.652   0.171  25.868  0.00  0.00    -0.336 OA
ATOM      8  N   UNL     1      -0.901  -0.988  24.106  0.00  0.00    -0.190 NA
ATOM      9  N   UNL     1      -0.345   0.617  25.637  0.00  0.00    -0.056 NA
ATOM     15  C   UNL     1      -1.900  -0.773  24.923  0.00  0.00    +0.245 A 
ATOM     19  C   UNL     1       0.030  -0.113  24.583  0.00  0.00    +0.202 A 
BRANCH  19  23
ATOM     23  C   UNL     1       1.328   0.008  23.984  0.00  0.00    +0.023 A 
ATOM     24  C   UNL     1       2.158  -1.109  23.888  0.00  0.00    +0.015 A 
ATOM     25  C   UNL     1       1.761   1.242  23.500  0.00  0.00    +0.015 A 
ATOM     27  C   UNL     1       3.421  -0.992  23.307  0.00  0.00    +0.046 A 
ATOM     28  C   UNL     1       3.023   1.360  22.920  0.00  0.00    +0.046 A 
ATOM     29  C   UNL     1       3.854   0.244  22.823  0.00  0.00    +0.120 A 
BRANCH  29   6
ATOM      6  O   UNL     1       5.086   0.359  22.257  0.00  0.00    -0.495 OA
ATOM     30  C   UNL     1       6.194  -0.137  23.006  0.00  0.00    +0.277 C 
ENDBRANCH  29   6
ENDBRANCH  19  23
ENDBRANCH  10  15
BRANCH  12   2
ATOM      2  O   UNL     1      -4.797  -4.511  23.913  0.00  0.00    -0.390 OA
ATOM     31  H   UNL     1      -4.381  -4.947  24.677  0.00  0.00    +0.210 HD
ENDBRANCH  12   2
BRANCH   7  14
ATOM     14  C   UNL     1      -4.845   0.236  24.076  0.00  0.00    +0.120 C 
BRANCH  14  16
ATOM     16  C   UNL     1      -3.912   1.402  24.265  0.00  0.00    -0.033 A 
ATOM     17  C   UNL     1      -2.947   1.688  23.300  0.00  0.00    +0.007 A 
ATOM     18  C   UNL     1      -4.014   2.198  25.407  0.00  0.00    +0.007 A 
ATOM     20  C   UNL     1      -2.083   2.768  23.475  0.00  0.00    +0.027 A 
ATOM     21  C   UNL     1      -3.149   3.278  25.583  0.00  0.00    +0.027 A 
ATOM     22  C   UNL     1      -2.184   3.564  24.617  0.00  0.00    +0.088 A 
BRANCH  22   1
ATOM      1  S   UNL     1      -1.103   4.918  24.835  0.00  0.00    -0.006 S 
ATOM      4  O   UNL     1      -1.893   6.123  25.044  0.00  0.00    -0.170 OA
ATOM      5  O   UNL     1      -0.096   4.535  25.814  0.00  0.00    -0.170 OA
ATOM     26  C   UNL     1      -0.295   5.096  23.259  0.00  0.00    +0.200 C 
ENDBRANCH  22   1
ENDBRANCH  14  16
ENDBRANCH   7  14
TORSDOF 7
ENDMDL
MODEL 3
REMARK VINA RESULT:       5.9      2.752      5.478
REMARK  Name = 26744190
REMARK  9 active torsions:
REMARK  status: ('A' for Active; 'I' for Inactive)
REMARK    1  A    between atoms: S_1  and  C_22
REMARK    2  A    between atoms: S_1  and  C_26
REMARK    3  A    between atoms: O_2  and  C_12
REMARK    4  A    between atoms: O_6  and  C_29
REMARK    5  A    between atoms: O_6  and  C_30
REMARK    6  A    between atoms: N_7  and  C_14
REMARK    7  A    between atoms: C_10  and  C_15
REMARK    8  A    between atoms: C_14  and  C_16
REMARK    9  A    between atoms: C_19  and  C_23
REMARK                            x       y       z     vdW  Elec       q    Type
REMARK                         _______ _______ _______ _____ _____    ______ ____
ROOT
ATOM      7  N   UNL     1      -3.012  -1.504  23.550  0.00  0.00    -0.285 NA
ATOM     10  C   UNL     1      -1.973  -1.014  24.479  0.00  0.00    +0.149 C 
ATOM     11  C   UNL     1      -1.876  -2.097  25.568  0.00  0.00    +0.061 C 
ATOM     12  C   UNL     1      -2.929  -3.132  25.192  0.00  0.00    +0.130 C 
ATOM     13  C   UNL     1      -3.908  -2.346  24.340  0.00  0.00    +0.116 C 
ENDROOT
BRANCH  10  15
ATOM      3  O   UNL     1      -0.692  -0.585  22.442  0.00  0.00    -0.336 OA
ATOM      8  N   UNL     1       0.552  -0.677  24.301  0.00  0.00    -0.190 NA
ATOM      9  N   UNL     1       0.632  -0.368  22.036  0.00  0.00    -0.056 NA
ATOM     15  C   UNL     1      -0.649  -0.758  23.789  0.00  0.00    +0.245 A 
ATOM     19  C   UNL     1       1.304  -0.437  23.189  0.00  0.00    +0.202 A 
BRANCH  19  23
ATOM     23  C   UNL     1       2.727  -0.269  23.262  0.00  0.00    +0.023 A 
ATOM     24  C   UNL     1       3.525  -1.295  23.767  0.00  0.00    +0.015 A 
ATOM     25  C   UNL     1       3.312   0.920  22.829  0.00  0.00    +0.015 A 
ATOM     27  C   UNL     1       4.908  -1.132  23.839  0.00  0.00    +0.046 A 
ATOM     28  C   UNL     1       4.695   1.085  22.902  0.00  0.00    +0.046 A 
ATOM     29  C   UNL     1       5.494   0.059  23.407  0.00  0.00    +0.120 A 
BRANCH  29   6
ATOM      6  O   UNL     1       6.843   0.219  23.477  0.00  0.00    -0.495 OA
ATOM     30  C   UNL     1       7.647  -0.716  22.759  0.00  0.00    +0.277 C 
ENDBRANCH  29   6
ENDBRANCH  19  23
ENDBRANCH  10  15
BRANCH  12   2
ATOM      2  O   UNL     1      -3.547  -3.662  26.348  0.00  0.00    -0.390 OA
ATOM     31  H   UNL     1      -2.848  -3.834  27.001  0.00  0.00    +0.210 HD
ENDBRANCH  12   2
BRANCH   7  14
ATOM     14  C   UNL     1      -3.725  -0.433  22.868  0.00  0.00    +0.120 C 
BRANCH  14  16
ATOM     16  C   UNL     1      -3.389   0.918  23.441  0.00  0.00    -0.033 A 
ATOM     17  C   UNL     1      -3.964   1.328  24.645  0.00  0.00    +0.007 A 
ATOM     18  C   UNL     1      -2.502   1.760  22.770  0.00  0.00    +0.007 A 
ATOM     20  C   UNL     1      -3.652   2.579  25.176  0.00  0.00    +0.027 A 
ATOM     21  C   UNL     1      -2.191   3.012  23.301  0.00  0.00    +0.027 A 
ATOM     22  C   UNL     1      -2.766   3.422  24.504  0.00  0.00    +0.088 A 
BRANCH  22   1
ATOM      1  S   UNL     1      -2.375   4.987  25.171  0.00  0.00    -0.006 S 
ATOM      4  O   UNL     1      -2.902   6.020  24.291  0.00  0.00    -0.170 OA
ATOM      5  O   UNL     1      -2.744   4.980  26.579  0.00  0.00    -0.170 OA
ATOM     26  C   UNL     1      -0.600   5.078  25.072  0.00  0.00    +0.200 C 
ENDBRANCH  22   1
ENDBRANCH  14  16
ENDBRANCH   7  14
TORSDOF 7
ENDMDL
