MODEL 1
REMARK VINA RESULT:       3.1      0.000      0.000
REMARK  Name = 11939796
REMARK  8 active torsions:
REMARK  status: ('A' for Active; 'I' for Inactive)
REMARK    1  A    between atoms: N_4  and  C_12
REMARK    2  A    between atoms: N_5  and  C_13
REMARK    3  A    between atoms: N_6  and  C_18
REMARK    4  A    between atoms: N_9  and  C_26
REMARK    5  A    between atoms: N_9  and  C_29
REMARK    6  A    between atoms: N_9  and  C_30
REMARK    7  A    between atoms: C_18  and  C_23
REMARK    8  A    between atoms: C_19  and  C_22
REMARK                            x       y       z     vdW  Elec       q    Type
REMARK                         _______ _______ _______ _____ _____    ______ ____
ROOT
ATOM      4  N   UNL     1      -4.830   0.784  24.504  0.00  0.00    -0.306 N 
ATOM      7  N   UNL     1      -2.591   0.136  24.227  0.00  0.00    -0.214 NA
ATOM      8  N   UNL     1      -4.282  -1.475  24.816  0.00  0.00    -0.223 NA
ATOM     16  C   UNL     1      -3.873  -0.215  24.515  0.00  0.00    +0.216 A 
ATOM     19  C   UNL     1      -1.684  -0.862  24.247  0.00  0.00    +0.076 A 
ATOM     20  C   UNL     1      -3.325  -2.425  24.818  0.00  0.00    +0.116 A 
ATOM     21  C   UNL     1      -1.996  -2.175  24.539  0.00  0.00    +0.048 A 
ATOM     31  H   UNL     1      -5.771   0.521  24.771  0.00  0.00    +0.149 HD
ENDROOT
BRANCH   4  12
ATOM      1  O   UNL     1      -4.341   3.250  26.310  0.00  0.00    -0.370 OA
ATOM      2  O   UNL     1      -2.656   3.607  23.709  0.00  0.00    -0.370 OA
ATOM     10  C   UNL     1      -3.076   2.455  24.459  0.00  0.00    +0.171 C 
ATOM     11  C   UNL     1      -3.022   2.828  25.927  0.00  0.00    +0.171 C 
ATOM     12  C   UNL     1      -4.537   2.170  24.204  0.00  0.00    +0.130 C 
ATOM     13  C   UNL     1      -2.064   3.997  25.974  0.00  0.00    +0.131 C 
ATOM     14  C   UNL     1      -5.232   3.081  25.198  0.00  0.00    +0.185 C 
ATOM     15  C   UNL     1      -2.281   4.651  24.621  0.00  0.00    +0.185 C 
BRANCH  13   5
ATOM      3  O   UNL     1      -0.854   2.874  28.341  0.00  0.00    -0.253 OA
ATOM      5  N   UNL     1      -0.700   3.549  26.125  0.00  0.00    -0.292 N 
ATOM      6  N   UNL     1       1.144   2.664  27.180  0.00  0.00    -0.300 N 
ATOM     17  C   UNL     1      -0.197   3.016  27.310  0.00  0.00    +0.300 C 
ATOM     32  H   UNL     1      -0.093   3.562  25.311  0.00  0.00    +0.151 HD
ATOM     33  H   UNL     1       1.606   2.820  26.289  0.00  0.00    +0.150 HD
BRANCH   6  18
ATOM     18  C   UNL     1       1.912   2.089  28.259  0.00  0.00    +0.102 C 
ATOM     23  C   UNL     1       2.795   3.125  28.923  0.00  0.00    +0.024 C 
ENDBRANCH   6  18
ENDBRANCH  13   5
ENDBRANCH   4  12
BRANCH  19  22
ATOM     22  C   UNL     1      -0.331  -0.468  23.940  0.00  0.00    +0.001 A 
ATOM     24  C   UNL     1       0.021   0.884  23.934  0.00  0.00    +0.012 A 
ATOM     25  C   UNL     1       0.632  -1.435  23.645  0.00  0.00    +0.012 A 
ATOM     26  C   UNL     1       2.288   0.298  23.341  0.00  0.00    +0.029 A 
ATOM     27  C   UNL     1       1.328   1.266  23.636  0.00  0.00    +0.024 A 
ATOM     28  C   UNL     1       1.939  -1.053  23.347  0.00  0.00    +0.024 A 
BRANCH  26   9
ATOM      9  N   UNL     1       3.611   0.684  23.041  0.00  0.00    -0.336 N 
ATOM     29  C   UNL     1       3.873   1.933  22.355  0.00  0.00    +0.129 C 
ATOM     30  C   UNL     1       4.724  -0.171  23.401  0.00  0.00    +0.129 C 
ENDBRANCH  26   9
ENDBRANCH  19  22
TORSDOF 5
ENDMDL
MODEL 2
REMARK VINA RESULT:       5.1      2.162      5.379
REMARK  Name = 11939796
REMARK  8 active torsions:
REMARK  status: ('A' for Active; 'I' for Inactive)
REMARK    1  A    between atoms: N_4  and  C_12
REMARK    2  A    between atoms: N_5  and  C_13
REMARK    3  A    between atoms: N_6  and  C_18
REMARK    4  A    between atoms: N_9  and  C_26
REMARK    5  A    between atoms: N_9  and  C_29
REMARK    6  A    between atoms: N_9  and  C_30
REMARK    7  A    between atoms: C_18  and  C_23
REMARK    8  A    between atoms: C_19  and  C_22
REMARK                            x       y       z     vdW  Elec       q    Type
REMARK                         _______ _______ _______ _____ _____    ______ ____
ROOT
ATOM      4  N   UNL     1      -4.776   0.894  24.533  0.00  0.00    -0.306 N 
ATOM      7  N   UNL     1      -2.998   1.968  25.626  0.00  0.00    -0.214 NA
ATOM      8  N   UNL     1      -4.666   3.235  24.436  0.00  0.00    -0.223 NA
ATOM     16  C   UNL     1      -4.127   2.067  24.875  0.00  0.00    +0.216 A 
ATOM     19  C   UNL     1      -2.392   3.131  25.941  0.00  0.00    +0.076 A 
ATOM     20  C   UNL     1      -4.010   4.359  24.787  0.00  0.00    +0.116 A 
ATOM     21  C   UNL     1      -2.856   4.369  25.545  0.00  0.00    +0.048 A 
ATOM     31  H   UNL     1      -5.586   0.977  23.930  0.00  0.00    +0.149 HD
ENDROOT
BRANCH   4  12
ATOM      1  O   UNL     1      -3.357  -1.374  22.976  0.00  0.00    -0.370 OA
ATOM      2  O   UNL     1      -2.397  -1.490  25.943  0.00  0.00    -0.370 OA
ATOM     10  C   UNL     1      -2.812  -0.414  25.084  0.00  0.00    +0.171 C 
ATOM     11  C   UNL     1      -2.295  -0.723  23.693  0.00  0.00    +0.171 C 
ATOM     12  C   UNL     1      -4.315  -0.420  24.929  0.00  0.00    +0.130 C 
ATOM     13  C   UNL     1      -1.154  -1.687  23.930  0.00  0.00    +0.131 C 
ATOM     14  C   UNL     1      -4.529  -1.413  23.802  0.00  0.00    +0.185 C 
ATOM     15  C   UNL     1      -1.599  -2.413  25.187  0.00  0.00    +0.185 C 
BRANCH  13   5
ATOM      3  O   UNL     1       0.545  -0.505  21.920  0.00  0.00    -0.253 OA
ATOM      5  N   UNL     1       0.087  -0.983  24.145  0.00  0.00    -0.292 N 
ATOM      6  N   UNL     1       1.994   0.182  23.596  0.00  0.00    -0.300 N 
ATOM     17  C   UNL     1       0.847  -0.441  23.110  0.00  0.00    +0.300 C 
ATOM     32  H   UNL     1       0.392  -0.818  25.100  0.00  0.00    +0.151 HD
ATOM     33  H   UNL     1       2.164   0.184  24.597  0.00  0.00    +0.150 HD
BRANCH   6  18
ATOM     18  C   UNL     1       2.960   0.826  22.737  0.00  0.00    +0.102 C 
ATOM     23  C   UNL     1       4.377   0.460  23.125  0.00  0.00    +0.024 C 
ENDBRANCH   6  18
ENDBRANCH  13   5
ENDBRANCH   4  12
BRANCH  19  22
ATOM     22  C   UNL     1      -1.195   3.003  26.736  0.00  0.00    +0.001 A 
ATOM     24  C   UNL     1      -1.264   3.103  28.127  0.00  0.00    +0.012 A 
ATOM     25  C   UNL     1       0.037   2.779  26.118  0.00  0.00    +0.012 A 
ATOM     26  C   UNL     1       1.123   2.756  28.277  0.00  0.00    +0.029 A 
ATOM     27  C   UNL     1      -0.107   2.979  28.897  0.00  0.00    +0.024 A 
ATOM     28  C   UNL     1       1.194   2.656  26.887  0.00  0.00    +0.024 A 
BRANCH  26   9
ATOM      9  N   UNL     1       2.293   2.630  29.054  0.00  0.00    -0.336 N 
ATOM     29  C   UNL     1       2.310   1.772  30.221  0.00  0.00    +0.129 C 
ATOM     30  C   UNL     1       3.489   3.369  28.703  0.00  0.00    +0.129 C 
ENDBRANCH  26   9
ENDBRANCH  19  22
TORSDOF 5
ENDMDL
MODEL 3
REMARK VINA RESULT:       6.4      2.606      5.256
REMARK  Name = 11939796
REMARK  8 active torsions:
REMARK  status: ('A' for Active; 'I' for Inactive)
REMARK    1  A    between atoms: N_4  and  C_12
REMARK    2  A    between atoms: N_5  and  C_13
REMARK    3  A    between atoms: N_6  and  C_18
REMARK    4  A    between atoms: N_9  and  C_26
REMARK    5  A    between atoms: N_9  and  C_29
REMARK    6  A    between atoms: N_9  and  C_30
REMARK    7  A    between atoms: C_18  and  C_23
REMARK    8  A    between atoms: C_19  and  C_22
REMARK                            x       y       z     vdW  Elec       q    Type
REMARK                         _______ _______ _______ _____ _____    ______ ____
ROOT
ATOM      4  N   UNL     1      -3.753   4.997  24.697  0.00  0.00    -0.306 N 
ATOM      7  N   UNL     1      -4.165   2.692  24.864  0.00  0.00    -0.214 NA
ATOM      8  N   UNL     1      -5.738   4.296  25.733  0.00  0.00    -0.223 NA
ATOM     16  C   UNL     1      -4.577   3.964  25.110  0.00  0.00    +0.216 A 
ATOM     19  C   UNL     1      -4.992   1.710  25.280  0.00  0.00    +0.076 A 
ATOM     20  C   UNL     1      -6.517   3.266  26.122  0.00  0.00    +0.116 A 
ATOM     21  C   UNL     1      -6.192   1.940  25.921  0.00  0.00    +0.048 A 
ATOM     31  H   UNL     1      -4.046   5.938  24.933  0.00  0.00    +0.149 HD
ENDROOT
BRANCH   4  12
ATOM      1  O   UNL     1      -0.830   4.986  25.715  0.00  0.00    -0.370 OA
ATOM      2  O   UNL     1      -1.028   2.997  23.318  0.00  0.00    -0.370 OA
ATOM     10  C   UNL     1      -1.959   3.411  24.333  0.00  0.00    +0.171 C 
ATOM     11  C   UNL     1      -1.173   3.593  25.617  0.00  0.00    +0.171 C 
ATOM     12  C   UNL     1      -2.489   4.791  24.025  0.00  0.00    +0.130 C 
ATOM     13  C   UNL     1       0.071   2.760  25.409  0.00  0.00    +0.131 C 
ATOM     14  C   UNL     1      -1.425   5.696  24.619  0.00  0.00    +0.185 C 
ATOM     15  C   UNL     1       0.273   2.848  23.906  0.00  0.00    +0.185 C 
BRANCH  13   5
ATOM      3  O   UNL     1       0.132   0.400  23.749  0.00  0.00    -0.253 OA
ATOM      5  N   UNL     1      -0.138   1.396  25.829  0.00  0.00    -0.292 N 
ATOM      6  N   UNL     1      -0.326  -0.889  25.623  0.00  0.00    -0.300 N 
ATOM     17  C   UNL     1      -0.090   0.311  24.956  0.00  0.00    +0.300 C 
ATOM     32  H   UNL     1      -0.263   1.208  26.819  0.00  0.00    +0.151 HD
ATOM     33  H   UNL     1      -0.502  -0.866  26.623  0.00  0.00    +0.150 HD
BRANCH   6  18
ATOM     18  C   UNL     1      -0.335  -2.168  24.955  0.00  0.00    +0.102 C 
ATOM     23  C   UNL     1       0.595  -3.153  25.633  0.00  0.00    +0.024 C 
ENDBRANCH   6  18
ENDBRANCH  13   5
ENDBRANCH   4  12
BRANCH  19  22
ATOM     22  C   UNL     1      -4.534   0.369  25.009  0.00  0.00    +0.001 A 
ATOM     24  C   UNL     1      -4.062  -0.434  26.051  0.00  0.00    +0.012 A 
ATOM     25  C   UNL     1      -4.560  -0.132  23.706  0.00  0.00    +0.012 A 
ATOM     26  C   UNL     1      -3.646  -2.228  24.487  0.00  0.00    +0.029 A 
ATOM     27  C   UNL     1      -3.620  -1.730  25.790  0.00  0.00    +0.024 A 
ATOM     28  C   UNL     1      -4.118  -1.429  23.445  0.00  0.00    +0.024 A 
BRANCH  26   9
ATOM      9  N   UNL     1      -3.199  -3.540  24.223  0.00  0.00    -0.336 N 
ATOM     29  C   UNL     1      -2.137  -3.774  23.265  0.00  0.00    +0.129 C 
ATOM     30  C   UNL     1      -3.806  -4.671  24.896  0.00  0.00    +0.129 C 
ENDBRANCH  26   9
ENDBRANCH  19  22
TORSDOF 5
ENDMDL
