MODEL 1
REMARK VINA RESULT:       8.3      0.000      0.000
REMARK  Name = 28990679
REMARK  4 active torsions:
REMARK  status: ('A' for Active; 'I' for Inactive)
REMARK    1  A    between atoms: N_2  and  C_13
REMARK    2  A    between atoms: C_13  and  C_18
REMARK    3  A    between atoms: C_16  and  C_19
REMARK    4  A    between atoms: C_27  and  C_33
REMARK                            x       y       z     vdW  Elec       q    Type
REMARK                         _______ _______ _______ _____ _____    ______ ____
ROOT
ATOM      1  O   UNL     1      -0.263  -1.731  22.013  0.00  0.00    -0.267 OA
ATOM      2  N   UNL     1      -4.295  -0.495  24.727  0.00  0.00    -0.297 NA
ATOM      3  N   UNL     1      -1.541  -1.907  23.955  0.00  0.00    -0.311 N 
ATOM      6  C   UNL     1      -3.922  -2.854  23.964  0.00  0.00    +0.024 C 
ATOM      7  C   UNL     1      -2.911  -2.092  26.059  0.00  0.00    +0.050 C 
ATOM      8  C   UNL     1      -3.588  -3.283  25.386  0.00  0.00    +0.017 C 
ATOM      9  C   UNL     1      -4.861  -1.629  23.987  0.00  0.00    +0.090 C 
ATOM     10  C   UNL     1      -3.882  -0.890  26.081  0.00  0.00    +0.094 C 
ATOM     11  C   UNL     1      -2.613  -2.579  23.210  0.00  0.00    +0.130 C 
ATOM     12  C   UNL     1      -1.628  -1.724  25.337  0.00  0.00    +0.026 A 
ATOM     14  C   UNL     1      -0.590  -1.209  26.016  0.00  0.00    +0.022 A 
ATOM     15  C   UNL     1      -0.388  -1.553  23.226  0.00  0.00    +0.259 A 
ATOM     16  C   UNL     1       0.746  -0.947  24.008  0.00  0.00    +0.047 A 
ATOM     17  C   UNL     1       0.611  -0.811  25.336  0.00  0.00    +0.015 A 
ENDROOT
BRANCH  16  19
ATOM     19  C   UNL     1       1.980  -0.499  23.340  0.00  0.00    -0.011 A 
ATOM     23  C   UNL     1       3.219  -0.715  23.941  0.00  0.00    +0.027 A 
ATOM     24  C   UNL     1       1.907   0.144  22.103  0.00  0.00    +0.009 A 
ATOM     27  C   UNL     1       4.386  -0.291  23.306  0.00  0.00    +0.052 A 
ATOM     28  C   UNL     1       3.074   0.568  21.468  0.00  0.00    +0.002 A 
ATOM     30  C   UNL     1       4.314   0.351  22.070  0.00  0.00    +0.019 A 
BRANCH  27  33
ATOM      5  N   UNL     1       6.689  -0.693  24.421  0.00  0.00    -0.191 NA
ATOM     33  C   UNL     1       5.658  -0.513  23.922  0.00  0.00    +0.099 C 
ENDBRANCH  27  33
ENDBRANCH  16  19
BRANCH   2  13
ATOM     13  C   UNL     1      -5.234   0.623  24.772  0.00  0.00    +0.121 C 
BRANCH  13  18
ATOM      4  N   UNL     1      -4.627   4.302  25.418  0.00  0.00    -0.255 NA
ATOM     18  C   UNL     1      -4.525   1.946  24.904  0.00  0.00    -0.015 A 
ATOM     20  C   UNL     1      -3.167   2.061  24.649  0.00  0.00    +0.016 A 
ATOM     21  C   UNL     1      -5.204   3.086  25.282  0.00  0.00    +0.116 A 
ATOM     22  C   UNL     1      -2.529   3.303  24.779  0.00  0.00    +0.001 A 
ATOM     25  C   UNL     1      -3.308   4.412  25.170  0.00  0.00    +0.071 A 
ATOM     26  C   UNL     1      -1.154   3.454  24.528  0.00  0.00    +0.010 A 
ATOM     29  C   UNL     1      -2.674   5.644  25.298  0.00  0.00    +0.028 A 
ATOM     31  C   UNL     1      -0.547   4.698  24.664  0.00  0.00    +0.001 A 
ATOM     32  C   UNL     1      -1.308   5.795  25.050  0.00  0.00    +0.002 A 
ENDBRANCH  13  18
ENDBRANCH   2  13
TORSDOF 4
ENDMDL
MODEL 2
REMARK VINA RESULT:      11.8      3.580      6.593
REMARK  Name = 28990679
REMARK  4 active torsions:
REMARK  status: ('A' for Active; 'I' for Inactive)
REMARK    1  A    between atoms: N_2  and  C_13
REMARK    2  A    between atoms: C_13  and  C_18
REMARK    3  A    between atoms: C_16  and  C_19
REMARK    4  A    between atoms: C_27  and  C_33
REMARK                            x       y       z     vdW  Elec       q    Type
REMARK                         _______ _______ _______ _____ _____    ______ ____
ROOT
ATOM      1  O   UNL     1      -2.096   3.643  28.351  0.00  0.00    -0.267 OA
ATOM      2  N   UNL     1      -4.707   1.762  24.504  0.00  0.00    -0.297 NA
ATOM      3  N   UNL     1      -2.717   3.675  26.104  0.00  0.00    -0.311 N 
ATOM      6  C   UNL     1      -5.129   4.088  25.341  0.00  0.00    +0.024 C 
ATOM      7  C   UNL     1      -3.376   3.706  23.675  0.00  0.00    +0.050 C 
ATOM      8  C   UNL     1      -4.478   4.675  24.096  0.00  0.00    +0.017 C 
ATOM      9  C   UNL     1      -5.714   2.694  25.025  0.00  0.00    +0.090 C 
ATOM     10  C   UNL     1      -3.996   2.328  23.349  0.00  0.00    +0.094 C 
ATOM     11  C   UNL     1      -4.090   4.049  26.470  0.00  0.00    +0.130 C 
ATOM     12  C   UNL     1      -2.331   3.573  24.765  0.00  0.00    +0.026 A 
ATOM     14  C   UNL     1      -1.046   3.341  24.451  0.00  0.00    +0.022 A 
ATOM     15  C   UNL     1      -1.798   3.527  27.161  0.00  0.00    +0.259 A 
ATOM     16  C   UNL     1      -0.372   3.233  26.778  0.00  0.00    +0.047 A 
ATOM     17  C   UNL     1      -0.057   3.163  25.477  0.00  0.00    +0.015 A 
ENDROOT
BRANCH  16  19
ATOM     19  C   UNL     1       0.664   3.015  27.804  0.00  0.00    -0.011 A 
ATOM     23  C   UNL     1       0.298   2.717  29.115  0.00  0.00    +0.027 A 
ATOM     24  C   UNL     1       2.013   3.108  27.459  0.00  0.00    +0.009 A 
ATOM     27  C   UNL     1       1.280   2.510  30.084  0.00  0.00    +0.052 A 
ATOM     28  C   UNL     1       2.996   2.901  28.428  0.00  0.00    +0.002 A 
ATOM     30  C   UNL     1       2.628   2.602  29.741  0.00  0.00    +0.019 A 
BRANCH  27  33
ATOM      5  N   UNL     1       0.601   1.958  32.522  0.00  0.00    -0.191 NA
ATOM     33  C   UNL     1       0.905   2.205  31.430  0.00  0.00    +0.099 C 
ENDBRANCH  27  33
ENDBRANCH  16  19
BRANCH   2  13
ATOM     13  C   UNL     1      -5.309   0.474  24.168  0.00  0.00    +0.121 C 
BRANCH  13  18
ATOM      4  N   UNL     1      -3.778  -2.972  23.863  0.00  0.00    -0.255 NA
ATOM     18  C   UNL     1      -4.311  -0.651  24.252  0.00  0.00    -0.015 A 
ATOM     20  C   UNL     1      -3.041  -0.447  24.770  0.00  0.00    +0.016 A 
ATOM     21  C   UNL     1      -4.628  -1.921  23.816  0.00  0.00    +0.116 A 
ATOM     22  C   UNL     1      -2.129  -1.509  24.838  0.00  0.00    +0.001 A 
ATOM     25  C   UNL     1      -2.545  -2.772  24.367  0.00  0.00    +0.071 A 
ATOM     26  C   UNL     1      -0.835  -1.336  25.357  0.00  0.00    +0.010 A 
ATOM     29  C   UNL     1      -1.639  -3.827  24.435  0.00  0.00    +0.028 A 
ATOM     31  C   UNL     1       0.051  -2.409  25.413  0.00  0.00    +0.001 A 
ATOM     32  C   UNL     1      -0.352  -3.656  24.951  0.00  0.00    +0.002 A 
ENDBRANCH  13  18
ENDBRANCH   2  13
TORSDOF 4
ENDMDL
