MODEL 1
REMARK VINA RESULT:       5.8      0.000      0.000
REMARK  Name = 45361212
REMARK  9 active torsions:
REMARK  status: ('A' for Active; 'I' for Inactive)
REMARK    1  A    between atoms: S_1  and  C_33
REMARK    2  A    between atoms: S_1  and  C_34
REMARK    3  A    between atoms: O_4  and  C_28
REMARK    4  A    between atoms: N_7  and  C_20
REMARK    5  A    between atoms: N_8  and  C_19
REMARK    6  A    between atoms: C_15  and  C_18
REMARK    7  A    between atoms: C_18  and  C_21
REMARK    8  A    between atoms: C_19  and  C_22
REMARK    9  A    between atoms: C_21  and  C_23
REMARK                            x       y       z     vdW  Elec       q    Type
REMARK                         _______ _______ _______ _____ _____    ______ ____
ROOT
ATOM      2  O   UNL     1      -1.501   1.447  24.294  0.00  0.00    -0.274 OA
ATOM      7  N   UNL     1      -5.127   1.267  25.640  0.00  0.00    -0.296 NA
ATOM      8  N   UNL     1      -2.418  -1.043  24.793  0.00  0.00    -0.286 NA
ATOM      9  N   UNL     1      -3.488   2.232  23.471  0.00  0.00    -0.312 N 
ATOM     11  C   UNL     1      -4.589  -0.049  25.231  0.00  0.00    +0.084 C 
ATOM     12  C   UNL     1      -3.392  -0.084  24.237  0.00  0.00    +0.161 C 
ATOM     13  C   UNL     1      -4.058  -0.898  26.402  0.00  0.00    +0.036 C 
ATOM     14  C   UNL     1      -3.144  -1.898  25.725  0.00  0.00    +0.087 C 
ATOM     15  C   UNL     1      -5.720   2.062  24.529  0.00  0.00    +0.074 C 
ATOM     16  C   UNL     1      -2.686   1.253  24.027  0.00  0.00    +0.232 C 
ATOM     17  C   UNL     1      -4.905   2.060  23.221  0.00  0.00    +0.123 C 
ATOM     20  C   UNL     1      -6.099   1.118  26.736  0.00  0.00    +0.105 C 
ATOM     35  H   UNL     1      -3.058   3.121  23.234  0.00  0.00    +0.149 HD
ENDROOT
BRANCH  15  18
ATOM     18  C   UNL     1      -5.907   3.533  24.957  0.00  0.00    +0.029 C 
BRANCH  18  21
ATOM     21  C   UNL     1      -4.809   3.994  25.896  0.00  0.00    +0.097 C 
BRANCH  21  23
ATOM      3  O   UNL     1      -3.887   5.229  24.098  0.00  0.00    -0.276 OA
ATOM     10  N   UNL     1      -2.383   4.400  25.664  0.00  0.00    -0.301 N 
ATOM     23  C   UNL     1      -3.658   4.601  25.134  0.00  0.00    +0.216 C 
ATOM     24  C   UNL     1      -1.219   4.998  25.005  0.00  0.00    +0.110 C 
ATOM     25  C   UNL     1      -2.082   3.657  26.895  0.00  0.00    +0.110 C 
ATOM     26  C   UNL     1      -0.161   3.941  24.707  0.00  0.00    +0.050 C 
ATOM     27  C   UNL     1      -1.038   2.576  26.630  0.00  0.00    +0.050 C 
ATOM     28  C   UNL     1       0.211   3.159  25.968  0.00  0.00    +0.118 C 
BRANCH  28   4
ATOM      4  O   UNL     1       1.092   2.095  25.633  0.00  0.00    -0.392 OA
ATOM     36  H   UNL     1       0.546   1.317  25.426  0.00  0.00    +0.210 HD
ENDBRANCH  28   4
ENDBRANCH  21  23
ENDBRANCH  18  21
ENDBRANCH  15  18
BRANCH   8  19
ATOM     19  C   UNL     1      -1.719  -1.814  23.773  0.00  0.00    +0.120 C 
BRANCH  19  22
ATOM     22  C   UNL     1      -0.364  -1.236  23.462  0.00  0.00    -0.033 A 
ATOM     29  C   UNL     1       0.650  -1.282  24.419  0.00  0.00    +0.007 A 
ATOM     30  C   UNL     1      -0.122  -0.657  22.217  0.00  0.00    +0.007 A 
ATOM     31  C   UNL     1       1.905  -0.748  24.131  0.00  0.00    +0.027 A 
ATOM     32  C   UNL     1       1.133  -0.123  21.928  0.00  0.00    +0.027 A 
ATOM     33  C   UNL     1       2.146  -0.168  22.886  0.00  0.00    +0.088 A 
BRANCH  33   1
ATOM      1  S   UNL     1       3.719   0.498  22.524  0.00  0.00    -0.006 S 
ATOM      5  O   UNL     1       4.026   0.252  21.121  0.00  0.00    -0.170 OA
ATOM      6  O   UNL     1       3.762   1.858  23.044  0.00  0.00    -0.170 OA
ATOM     34  C   UNL     1       4.849  -0.488  23.480  0.00  0.00    +0.200 C 
ENDBRANCH  33   1
ENDBRANCH  19  22
ENDBRANCH   8  19
TORSDOF 7
ENDMDL
MODEL 2
REMARK VINA RESULT:       6.6      0.802      1.157
REMARK  Name = 45361212
REMARK  9 active torsions:
REMARK  status: ('A' for Active; 'I' for Inactive)
REMARK    1  A    between atoms: S_1  and  C_33
REMARK    2  A    between atoms: S_1  and  C_34
REMARK    3  A    between atoms: O_4  and  C_28
REMARK    4  A    between atoms: N_7  and  C_20
REMARK    5  A    between atoms: N_8  and  C_19
REMARK    6  A    between atoms: C_15  and  C_18
REMARK    7  A    between atoms: C_18  and  C_21
REMARK    8  A    between atoms: C_19  and  C_22
REMARK    9  A    between atoms: C_21  and  C_23
REMARK                            x       y       z     vdW  Elec       q    Type
REMARK                         _______ _______ _______ _____ _____    ______ ____
ROOT
ATOM      2  O   UNL     1      -1.219   1.919  23.746  0.00  0.00    -0.274 OA
ATOM      7  N   UNL     1      -4.632   1.167  25.411  0.00  0.00    -0.296 NA
ATOM      8  N   UNL     1      -1.659  -0.677  24.342  0.00  0.00    -0.286 NA
ATOM      9  N   UNL     1      -3.372   2.345  23.098  0.00  0.00    -0.312 N 
ATOM     11  C   UNL     1      -3.919  -0.049  24.965  0.00  0.00    +0.084 C 
ATOM     12  C   UNL     1      -2.824   0.093  23.869  0.00  0.00    +0.161 C 
ATOM     13  C   UNL     1      -3.154  -0.773  26.089  0.00  0.00    +0.036 C 
ATOM     14  C   UNL     1      -2.147  -1.621  25.341  0.00  0.00    +0.087 C 
ATOM     15  C   UNL     1      -5.445   1.828  24.352  0.00  0.00    +0.074 C 
ATOM     16  C   UNL     1      -2.373   1.524  23.588  0.00  0.00    +0.232 C 
ATOM     17  C   UNL     1      -4.757   1.933  22.976  0.00  0.00    +0.123 C 
ATOM     20  C   UNL     1      -5.467   0.882  26.590  0.00  0.00    +0.105 C 
ATOM     35  H   UNL     1      -3.120   3.287  22.818  0.00  0.00    +0.149 HD
ENDROOT
BRANCH  15  18
ATOM     18  C   UNL     1      -5.838   3.257  24.785  0.00  0.00    +0.029 C 
BRANCH  18  21
ATOM     21  C   UNL     1      -4.875   3.823  25.811  0.00  0.00    +0.097 C 
BRANCH  21  23
ATOM      3  O   UNL     1      -3.921   5.224  24.157  0.00  0.00    -0.276 OA
ATOM     10  N   UNL     1      -2.454   4.299  25.703  0.00  0.00    -0.301 N 
ATOM     23  C   UNL     1      -3.713   4.516  25.145  0.00  0.00    +0.216 C 
ATOM     24  C   UNL     1      -1.282   4.975  25.140  0.00  0.00    +0.110 C 
ATOM     25  C   UNL     1      -2.178   3.462  26.878  0.00  0.00    +0.110 C 
ATOM     26  C   UNL     1      -0.188   3.970  24.794  0.00  0.00    +0.050 C 
ATOM     27  C   UNL     1      -1.099   2.430  26.564  0.00  0.00    +0.050 C 
ATOM     28  C   UNL     1       0.158   3.093  25.999  0.00  0.00    +0.118 C 
BRANCH  28   4
ATOM      4  O   UNL     1       1.076   2.080  25.610  0.00  0.00    -0.392 OA
ATOM     36  H   UNL     1       0.677   1.222  25.834  0.00  0.00    +0.210 HD
ENDBRANCH  28   4
ENDBRANCH  21  23
ENDBRANCH  18  21
ENDBRANCH  15  18
BRANCH   8  19
ATOM     19  C   UNL     1      -0.931  -1.344  23.269  0.00  0.00    +0.120 C 
BRANCH  19  22
ATOM     22  C   UNL     1       0.530  -0.981  23.272  0.00  0.00    -0.033 A 
ATOM     29  C   UNL     1       1.002   0.015  22.417  0.00  0.00    +0.007 A 
ATOM     30  C   UNL     1       1.411  -1.639  24.129  0.00  0.00    +0.007 A 
ATOM     31  C   UNL     1       2.356   0.353  22.420  0.00  0.00    +0.027 A 
ATOM     32  C   UNL     1       2.764  -1.303  24.133  0.00  0.00    +0.027 A 
ATOM     33  C   UNL     1       3.236  -0.307  23.277  0.00  0.00    +0.088 A 
BRANCH  33   1
ATOM      1  S   UNL     1       4.930   0.117  23.282  0.00  0.00    -0.006 S 
ATOM      5  O   UNL     1       5.467  -0.065  21.941  0.00  0.00    -0.170 OA
ATOM      6  O   UNL     1       5.068   1.406  23.947  0.00  0.00    -0.170 OA
ATOM     34  C   UNL     1       5.692  -1.114  24.316  0.00  0.00    +0.200 C 
ENDBRANCH  33   1
ENDBRANCH  19  22
ENDBRANCH   8  19
TORSDOF 7
ENDMDL
