MODEL 1
REMARK VINA RESULT:       9.3      0.000      0.000
REMARK  Name = 11880086
REMARK  10 active torsions:
REMARK  status: ('A' for Active; 'I' for Inactive)
REMARK    1  A    between atoms: N_9  and  C_17
REMARK    2  A    between atoms: N_10  and  C_25
REMARK    3  A    between atoms: C_19  and  C_22
REMARK    4  A    between atoms: C_23  and  C_27
REMARK    5  A    between atoms: C_24  and  C_29
REMARK    6  A    between atoms: C_25  and  C_28
REMARK    7  A    between atoms: C_25  and  C_30
REMARK    8  A    between atoms: C_26  and  C_32
REMARK    9  A    between atoms: C_28  and  C_33
REMARK   10  A    between atoms: C_34  and  C_36
REMARK                            x       y       z     vdW  Elec       q    Type
REMARK                         _______ _______ _______ _____ _____    ______ ____
ROOT
ATOM      4  O   UNL     1       2.031  -0.434  20.656  0.00  0.00    -0.268 OA
ATOM      8  N   UNL     1       0.744   0.139  22.512  0.00  0.00    -0.285 N 
ATOM     17  C   UNL     1      -1.728   1.288  23.558  0.00  0.00    +0.113 C 
ATOM     18  C   UNL     1      -0.409   1.412  24.340  0.00  0.00    +0.059 C 
ATOM     19  C   UNL     1       0.615   0.337  23.968  0.00  0.00    +0.164 C 
ATOM     20  C   UNL     1      -1.455   1.187  22.051  0.00  0.00    +0.046 C 
ATOM     21  C   UNL     1      -0.508   0.031  21.752  0.00  0.00    +0.111 C 
ATOM     23  C   UNL     1       1.957  -0.121  21.844  0.00  0.00    +0.266 C 
ENDROOT
BRANCH  23  27
ATOM      1  S   UNL     1       5.226   0.911  23.805  0.00  0.00    -0.080 S 
ATOM     13  N   UNL     1       3.763  -1.125  23.174  0.00  0.00    -0.240 NA
ATOM     27  C   UNL     1       3.182  -0.003  22.622  0.00  0.00    +0.133 A 
ATOM     31  C   UNL     1       3.828   1.192  22.853  0.00  0.00    +0.080 A 
ATOM     34  C   UNL     1       4.848  -0.763  23.822  0.00  0.00    +0.076 A 
ATOM     36  C   UNL     1       5.739  -1.695  24.546  0.00  0.00    +0.073 C 
ENDBRANCH  23  27
BRANCH  17   9
ATOM      9  N   UNL     1      -2.677   2.360  23.888  0.00  0.00    -0.236 N 
ATOM     11  N   UNL     1      -3.776   2.531  23.142  0.00  0.00    -0.064 NA
ATOM     12  N   UNL     1      -4.442   3.556  23.664  0.00  0.00    -0.124 NA
ATOM     24  C   UNL     1      -2.601   3.257  24.901  0.00  0.00    +0.156 A 
ATOM     26  C   UNL     1      -3.736   4.012  24.742  0.00  0.00    +0.179 A 
BRANCH  24  29
ATOM      5  O   UNL     1      -1.486   2.603  26.881  0.00  0.00    -0.269 OA
ATOM     14  N   UNL     1      -0.561   4.306  25.681  0.00  0.00    -0.324 N 
ATOM     29  C   UNL     1      -1.561   3.347  25.875  0.00  0.00    +0.262 C 
ATOM     40  H   UNL     1       0.202   4.404  26.342  0.00  0.00    +0.145 HD
ATOM     41  H   UNL     1      -0.564   4.933  24.882  0.00  0.00    +0.145 HD
ENDBRANCH  24  29
BRANCH  26  32
ATOM      7  O   UNL     1      -3.384   5.919  26.095  0.00  0.00    -0.269 OA
ATOM     16  N   UNL     1      -5.545   5.310  25.695  0.00  0.00    -0.324 N 
ATOM     32  C   UNL     1      -4.169   5.114  25.543  0.00  0.00    +0.264 C 
ATOM     44  H   UNL     1      -5.903   6.082  26.246  0.00  0.00    +0.145 HD
ATOM     45  H   UNL     1      -6.227   4.696  25.263  0.00  0.00    +0.145 HD
ENDBRANCH  26  32
ENDBRANCH  17   9
BRANCH  19  22
ATOM      3  O   UNL     1       1.135  -1.855  24.763  0.00  0.00    -0.274 OA
ATOM     10  N   UNL     1      -1.077  -1.134  24.814  0.00  0.00    -0.302 N 
ATOM     22  C   UNL     1       0.277  -1.000  24.561  0.00  0.00    +0.234 C 
ATOM     39  H   UNL     1      -1.702  -0.358  24.618  0.00  0.00    +0.150 HD
BRANCH  10  25
ATOM     25  C   UNL     1      -1.663  -2.335  25.364  0.00  0.00    +0.163 C 
BRANCH  25  30
ATOM      6  O   UNL     1      -1.433  -3.384  23.184  0.00  0.00    -0.274 OA
ATOM     15  N   UNL     1      -3.348  -3.770  24.392  0.00  0.00    -0.328 N 
ATOM     30  C   UNL     1      -2.113  -3.191  24.189  0.00  0.00    +0.231 C 
ATOM     42  H   UNL     1      -3.759  -4.378  23.691  0.00  0.00    +0.145 HD
ATOM     43  H   UNL     1      -3.899  -3.604  25.229  0.00  0.00    +0.145 HD
ENDBRANCH  25  30
BRANCH  25  28
ATOM     28  C   UNL     1      -2.848  -2.033  26.290  0.00  0.00    +0.074 C 
BRANCH  28  33
ATOM      2  S   UNL     1      -4.370  -1.263  24.121  0.00  0.00    -0.102 S 
ATOM     33  C   UNL     1      -3.795  -1.016  25.699  0.00  0.00    -0.008 A 
ATOM     35  C   UNL     1      -4.267   0.114  26.287  0.00  0.00    +0.011 A 
ATOM     37  C   UNL     1      -5.142   0.819  25.412  0.00  0.00    +0.008 A 
ATOM     38  C   UNL     1      -5.287   0.181  24.200  0.00  0.00    +0.045 A 
ENDBRANCH  28  33
ENDBRANCH  25  28
ENDBRANCH  10  25
ENDBRANCH  19  22
TORSDOF 9
ENDMDL
MODEL 2
REMARK VINA RESULT:      10.5      1.769      2.439
REMARK  Name = 11880086
REMARK  10 active torsions:
REMARK  status: ('A' for Active; 'I' for Inactive)
REMARK    1  A    between atoms: N_9  and  C_17
REMARK    2  A    between atoms: N_10  and  C_25
REMARK    3  A    between atoms: C_19  and  C_22
REMARK    4  A    between atoms: C_23  and  C_27
REMARK    5  A    between atoms: C_24  and  C_29
REMARK    6  A    between atoms: C_25  and  C_28
REMARK    7  A    between atoms: C_25  and  C_30
REMARK    8  A    between atoms: C_26  and  C_32
REMARK    9  A    between atoms: C_28  and  C_33
REMARK   10  A    between atoms: C_34  and  C_36
REMARK                            x       y       z     vdW  Elec       q    Type
REMARK                         _______ _______ _______ _____ _____    ______ ____
ROOT
ATOM      4  O   UNL     1       0.546  -0.626  21.208  0.00  0.00    -0.268 OA
ATOM      8  N   UNL     1      -0.292   0.557  23.032  0.00  0.00    -0.285 N 
ATOM     17  C   UNL     1      -2.444   2.173  24.163  0.00  0.00    +0.113 C 
ATOM     18  C   UNL     1      -0.985   2.390  24.599  0.00  0.00    +0.059 C 
ATOM     19  C   UNL     1      -0.098   1.165  24.362  0.00  0.00    +0.164 C 
ATOM     20  C   UNL     1      -2.506   1.631  22.729  0.00  0.00    +0.046 C 
ATOM     21  C   UNL     1      -1.681   0.356  22.600  0.00  0.00    +0.111 C 
ATOM     23  C   UNL     1       0.740   0.012  22.243  0.00  0.00    +0.266 C 
ENDROOT
BRANCH  23  27
ATOM      1  S   UNL     1       4.320   1.302  23.299  0.00  0.00    -0.080 S 
ATOM     13  N   UNL     1       2.866  -0.830  23.143  0.00  0.00    -0.240 NA
ATOM     27  C   UNL     1       2.107   0.230  22.693  0.00  0.00    +0.133 A 
ATOM     31  C   UNL     1       2.721   1.464  22.702  0.00  0.00    +0.080 A 
ATOM     34  C   UNL     1       4.052  -0.383  23.490  0.00  0.00    +0.076 A 
ATOM     36  C   UNL     1       5.143  -1.228  24.022  0.00  0.00    +0.073 C 
ENDBRANCH  23  27
BRANCH  17   9
ATOM      9  N   UNL     1      -3.267   3.376  24.347  0.00  0.00    -0.236 N 
ATOM     11  N   UNL     1      -2.776   4.577  24.019  0.00  0.00    -0.064 NA
ATOM     12  N   UNL     1      -3.724   5.470  24.285  0.00  0.00    -0.124 NA
ATOM     24  C   UNL     1      -4.532   3.454  24.830  0.00  0.00    +0.156 A 
ATOM     26  C   UNL     1      -4.806   4.798  24.782  0.00  0.00    +0.179 A 
BRANCH  24  29
ATOM      5  O   UNL     1      -5.392   1.969  26.456  0.00  0.00    -0.269 OA
ATOM     14  N   UNL     1      -6.132   1.710  24.316  0.00  0.00    -0.324 N 
ATOM     29  C   UNL     1      -5.340   2.362  25.267  0.00  0.00    +0.262 C 
ATOM     40  H   UNL     1      -6.729   0.933  24.579  0.00  0.00    +0.145 HD
ATOM     41  H   UNL     1      -6.138   1.987  23.339  0.00  0.00    +0.145 HD
ENDBRANCH  24  29
BRANCH  26  32
ATOM      7  O   UNL     1      -6.554   6.367  24.510  0.00  0.00    -0.269 OA
ATOM     16  N   UNL     1      -6.629   5.035  26.358  0.00  0.00    -0.324 N 
ATOM     32  C   UNL     1      -6.013   5.455  25.176  0.00  0.00    +0.264 C 
ATOM     44  H   UNL     1      -7.492   5.464  26.678  0.00  0.00    +0.145 HD
ATOM     45  H   UNL     1      -6.242   4.294  26.934  0.00  0.00    +0.145 HD
ENDBRANCH  26  32
ENDBRANCH  17   9
BRANCH  19  22
ATOM      3  O   UNL     1      -0.373   0.318  26.579  0.00  0.00    -0.274 OA
ATOM     10  N   UNL     1      -0.487  -1.161  24.786  0.00  0.00    -0.302 N 
ATOM     22  C   UNL     1      -0.339   0.083  25.374  0.00  0.00    +0.234 C 
ATOM     39  H   UNL     1      -0.451  -1.244  23.774  0.00  0.00    +0.150 HD
BRANCH  10  25
ATOM     25  C   UNL     1      -0.707  -2.372  25.543  0.00  0.00    +0.163 C 
BRANCH  25  30
ATOM      6  O   UNL     1       0.674  -4.362  25.737  0.00  0.00    -0.274 OA
ATOM     15  N   UNL     1       1.684  -2.373  25.189  0.00  0.00    -0.328 N 
ATOM     30  C   UNL     1       0.598  -3.155  25.523  0.00  0.00    +0.231 C 
ATOM     42  H   UNL     1       2.614  -2.775  25.125  0.00  0.00    +0.145 HD
ATOM     43  H   UNL     1       1.606  -1.376  25.012  0.00  0.00    +0.145 HD
ENDBRANCH  25  30
BRANCH  25  28
ATOM     28  C   UNL     1      -1.848  -3.220  24.966  0.00  0.00    +0.074 C 
BRANCH  28  33
ATOM      2  S   UNL     1      -3.518  -1.141  25.677  0.00  0.00    -0.102 S 
ATOM     33  C   UNL     1      -3.063  -2.391  24.622  0.00  0.00    -0.008 A 
ATOM     35  C   UNL     1      -3.871  -2.520  23.537  0.00  0.00    +0.011 A 
ATOM     37  C   UNL     1      -4.916  -1.552  23.561  0.00  0.00    +0.008 A 
ATOM     38  C   UNL     1      -4.843  -0.738  24.670  0.00  0.00    +0.045 A 
ENDBRANCH  28  33
ENDBRANCH  25  28
ENDBRANCH  10  25
ENDBRANCH  19  22
TORSDOF 9
ENDMDL
