MODEL 1
REMARK VINA RESULT:      -0.9      0.000      0.000
REMARK  Name = 11911829
REMARK  10 active torsions:
REMARK  status: ('A' for Active; 'I' for Inactive)
REMARK    1  A    between atoms: O_4  and  C_20
REMARK    2  A    between atoms: O_4  and  C_24
REMARK    3  A    between atoms: N_5  and  C_12
REMARK    4  A    between atoms: N_6  and  C_13
REMARK    5  A    between atoms: N_9  and  C_19
REMARK    6  A    between atoms: N_9  and  C_21
REMARK    7  A    between atoms: N_9  and  C_22
REMARK    8  A    between atoms: C_17  and  C_20
REMARK    9  A    between atoms: C_18  and  C_19
REMARK   10  A    between atoms: C_21  and  C_23
REMARK                            x       y       z     vdW  Elec       q    Type
REMARK                         _______ _______ _______ _____ _____    ______ ____
ROOT
ATOM      1  O   UNL     1      -2.613  -2.400  23.872  0.00  0.00    -0.370 OA
ATOM      2  O   UNL     1      -1.072  -1.355  26.406  0.00  0.00    -0.370 OA
ATOM     10  C   UNL     1      -1.979  -0.747  25.467  0.00  0.00    +0.175 C 
ATOM     11  C   UNL     1      -1.675  -1.338  24.105  0.00  0.00    +0.171 C 
ATOM     12  C   UNL     1      -3.400  -1.181  25.768  0.00  0.00    +0.166 C 
ATOM     13  C   UNL     1      -0.276  -1.896  24.243  0.00  0.00    +0.130 C 
ATOM     14  C   UNL     1      -3.544  -2.467  24.961  0.00  0.00    +0.190 C 
ATOM     15  C   UNL     1      -0.223  -2.277  25.710  0.00  0.00    +0.185 C 
ENDROOT
BRANCH  12   5
ATOM      5  N   UNL     1      -4.383  -0.139  25.456  0.00  0.00    -0.244 N 
ATOM      7  N   UNL     1      -5.284  -0.274  24.489  0.00  0.00    -0.065 NA
ATOM      8  N   UNL     1      -6.020   0.847  24.471  0.00  0.00    -0.133 NA
ATOM     16  C   UNL     1      -4.571   1.083  26.038  0.00  0.00    +0.135 A 
ATOM     18  C   UNL     1      -5.613   1.731  25.423  0.00  0.00    +0.097 A 
BRANCH  18  19
ATOM     19  C   UNL     1      -6.227   3.039  25.642  0.00  0.00    +0.143 C 
BRANCH  19   9
ATOM      9  N   UNL     1      -5.298   4.167  25.430  0.00  0.00    -0.295 NA
ATOM     22  C   UNL     1      -6.040   5.421  25.389  0.00  0.00    +0.105 C 
BRANCH   9  21
ATOM     21  C   UNL     1      -4.294   4.189  26.487  0.00  0.00    +0.119 C 
BRANCH  21  23
ATOM     23  C   UNL     1      -2.895   4.196  25.930  0.00  0.00    -0.033 A 
ATOM     25  C   UNL     1      -2.411   5.328  25.275  0.00  0.00    +0.005 A 
ATOM     26  C   UNL     1      -2.083   3.071  26.069  0.00  0.00    +0.005 A 
ATOM     29  C   UNL     1      -1.115   5.335  24.758  0.00  0.00    +0.000 A 
ATOM     30  C   UNL     1      -0.787   3.077  25.554  0.00  0.00    +0.000 A 
ATOM     31  C   UNL     1      -0.304   4.209  24.898  0.00  0.00    +0.000 A 
ENDBRANCH  21  23
ENDBRANCH   9  21
ENDBRANCH  19   9
ENDBRANCH  18  19
ENDBRANCH  12   5
BRANCH  13   6
ATOM      3  O   UNL     1      -0.730   0.758  23.173  0.00  0.00    -0.272 OA
ATOM      6  N   UNL     1       0.718  -0.900  23.926  0.00  0.00    -0.305 N 
ATOM     17  C   UNL     1       0.403   0.351  23.415  0.00  0.00    +0.251 C 
ATOM     35  H   UNL     1       1.697  -1.135  24.063  0.00  0.00    +0.149 HD
BRANCH  17  20
ATOM     20  C   UNL     1       1.641   1.189  23.178  0.00  0.00    +0.324 C 
BRANCH  20   4
ATOM      4  O   UNL     1       2.571   0.490  22.377  0.00  0.00    -0.483 OA
BRANCH   4  24
ATOM     24  C   UNL     1       3.728   0.064  22.985  0.00  0.00    +0.121 A 
ATOM     27  C   UNL     1       3.832  -1.249  23.445  0.00  0.00    +0.045 A 
ATOM     28  C   UNL     1       4.798   0.945  23.141  0.00  0.00    +0.045 A 
ATOM     32  C   UNL     1       5.006  -1.680  24.062  0.00  0.00    +0.004 A 
ATOM     33  C   UNL     1       5.972   0.513  23.758  0.00  0.00    +0.004 A 
ATOM     34  C   UNL     1       6.076  -0.799  24.219  0.00  0.00    +0.000 A 
ENDBRANCH   4  24
ENDBRANCH  20   4
ENDBRANCH  17  20
ENDBRANCH  13   6
TORSDOF 9
ENDMDL
MODEL 2
REMARK VINA RESULT:       0.4      1.447      2.143
REMARK  Name = 11911829
REMARK  10 active torsions:
REMARK  status: ('A' for Active; 'I' for Inactive)
REMARK    1  A    between atoms: O_4  and  C_20
REMARK    2  A    between atoms: O_4  and  C_24
REMARK    3  A    between atoms: N_5  and  C_12
REMARK    4  A    between atoms: N_6  and  C_13
REMARK    5  A    between atoms: N_9  and  C_19
REMARK    6  A    between atoms: N_9  and  C_21
REMARK    7  A    between atoms: N_9  and  C_22
REMARK    8  A    between atoms: C_17  and  C_20
REMARK    9  A    between atoms: C_18  and  C_19
REMARK   10  A    between atoms: C_21  and  C_23
REMARK                            x       y       z     vdW  Elec       q    Type
REMARK                         _______ _______ _______ _____ _____    ______ ____
ROOT
ATOM      1  O   UNL     1      -4.385  -1.326  23.370  0.00  0.00    -0.370 OA
ATOM      2  O   UNL     1      -3.312  -1.861  26.277  0.00  0.00    -0.370 OA
ATOM     10  C   UNL     1      -3.386  -0.692  25.439  0.00  0.00    +0.175 C 
ATOM     11  C   UNL     1      -3.116  -1.143  24.016  0.00  0.00    +0.171 C 
ATOM     12  C   UNL     1      -4.808  -0.166  25.413  0.00  0.00    +0.166 C 
ATOM     13  C   UNL     1      -2.412  -2.473  24.174  0.00  0.00    +0.130 C 
ATOM     14  C   UNL     1      -5.440  -0.941  24.262  0.00  0.00    +0.190 C 
ATOM     15  C   UNL     1      -3.005  -3.003  25.465  0.00  0.00    +0.185 C 
ENDROOT
BRANCH  12   5
ATOM      5  N   UNL     1      -4.864   1.293  25.284  0.00  0.00    -0.244 N 
ATOM      7  N   UNL     1      -5.915   2.005  25.677  0.00  0.00    -0.065 NA
ATOM      8  N   UNL     1      -5.642   3.293  25.421  0.00  0.00    -0.133 NA
ATOM     16  C   UNL     1      -3.935   2.159  24.780  0.00  0.00    +0.135 A 
ATOM     18  C   UNL     1      -4.412   3.444  24.857  0.00  0.00    +0.097 A 
BRANCH  18  19
ATOM     19  C   UNL     1      -3.841   4.732  24.468  0.00  0.00    +0.143 C 
BRANCH  19   9
ATOM      9  N   UNL     1      -3.047   5.369  25.537  0.00  0.00    -0.295 NA
ATOM     22  C   UNL     1      -3.118   4.569  26.753  0.00  0.00    +0.105 C 
BRANCH   9  21
ATOM     21  C   UNL     1      -1.665   5.533  25.099  0.00  0.00    +0.119 C 
BRANCH  21  23
ATOM     23  C   UNL     1      -0.914   4.228  25.120  0.00  0.00    -0.033 A 
ATOM     25  C   UNL     1      -0.249   3.789  23.975  0.00  0.00    +0.005 A 
ATOM     26  C   UNL     1      -0.882   3.459  26.283  0.00  0.00    +0.005 A 
ATOM     29  C   UNL     1       0.448   2.580  23.994  0.00  0.00    +0.000 A 
ATOM     30  C   UNL     1      -0.185   2.251  26.302  0.00  0.00    +0.000 A 
ATOM     31  C   UNL     1       0.479   1.811  25.157  0.00  0.00    +0.000 A 
ENDBRANCH  21  23
ENDBRANCH   9  21
ENDBRANCH  19   9
ENDBRANCH  18  19
ENDBRANCH  12   5
BRANCH  13   6
ATOM      3  O   UNL     1      -0.837  -0.231  23.231  0.00  0.00    -0.272 OA
ATOM      6  N   UNL     1      -0.984  -2.299  24.287  0.00  0.00    -0.305 N 
ATOM     17  C   UNL     1      -0.315  -1.184  23.803  0.00  0.00    +0.251 C 
ATOM     35  H   UNL     1      -0.442  -3.039  24.723  0.00  0.00    +0.149 HD
BRANCH  17  20
ATOM     20  C   UNL     1       1.174  -1.267  24.062  0.00  0.00    +0.324 C 
BRANCH  20   4
ATOM      4  O   UNL     1       1.899  -0.680  23.000  0.00  0.00    -0.483 OA
BRANCH   4  24
ATOM     24  C   UNL     1       3.229  -0.411  23.222  0.00  0.00    +0.121 A 
ATOM     27  C   UNL     1       4.048  -1.377  23.807  0.00  0.00    +0.045 A 
ATOM     28  C   UNL     1       3.758   0.827  22.860  0.00  0.00    +0.045 A 
ATOM     32  C   UNL     1       5.397  -1.104  24.032  0.00  0.00    +0.004 A 
ATOM     33  C   UNL     1       5.107   1.101  23.085  0.00  0.00    +0.004 A 
ATOM     34  C   UNL     1       5.927   0.135  23.670  0.00  0.00    +0.000 A 
ENDBRANCH   4  24
ENDBRANCH  20   4
ENDBRANCH  17  20
ENDBRANCH  13   6
TORSDOF 9
ENDMDL
MODEL 3
REMARK VINA RESULT:       1.3      2.142      6.906
REMARK  Name = 11911829
REMARK  10 active torsions:
REMARK  status: ('A' for Active; 'I' for Inactive)
REMARK    1  A    between atoms: O_4  and  C_20
REMARK    2  A    between atoms: O_4  and  C_24
REMARK    3  A    between atoms: N_5  and  C_12
REMARK    4  A    between atoms: N_6  and  C_13
REMARK    5  A    between atoms: N_9  and  C_19
REMARK    6  A    between atoms: N_9  and  C_21
REMARK    7  A    between atoms: N_9  and  C_22
REMARK    8  A    between atoms: C_17  and  C_20
REMARK    9  A    between atoms: C_18  and  C_19
REMARK   10  A    between atoms: C_21  and  C_23
REMARK                            x       y       z     vdW  Elec       q    Type
REMARK                         _______ _______ _______ _____ _____    ______ ____
ROOT
ATOM      1  O   UNL     1      -4.571   3.374  23.474  0.00  0.00    -0.370 OA
ATOM      2  O   UNL     1      -4.781   2.307  26.424  0.00  0.00    -0.370 OA
ATOM     10  C   UNL     1      -3.757   2.253  25.413  0.00  0.00    +0.175 C 
ATOM     11  C   UNL     1      -4.455   2.077  24.079  0.00  0.00    +0.171 C 
ATOM     12  C   UNL     1      -3.062   3.597  25.311  0.00  0.00    +0.166 C 
ATOM     13  C   UNL     1      -5.824   1.543  24.440  0.00  0.00    +0.130 C 
ATOM     14  C   UNL     1      -3.919   4.350  24.299  0.00  0.00    +0.190 C 
ATOM     15  C   UNL     1      -6.065   2.167  25.801  0.00  0.00    +0.185 C 
ENDROOT
BRANCH  12   5
ATOM      5  N   UNL     1      -1.647   3.471  24.955  0.00  0.00    -0.244 N 
ATOM      7  N   UNL     1      -0.808   4.500  24.988  0.00  0.00    -0.065 NA
ATOM      8  N   UNL     1       0.397   4.046  24.609  0.00  0.00    -0.133 NA
ATOM     16  C   UNL     1      -0.945   2.370  24.549  0.00  0.00    +0.135 A 
ATOM     18  C   UNL     1       0.364   2.716  24.322  0.00  0.00    +0.097 A 
BRANCH  18  19
ATOM     19  C   UNL     1       1.525   1.943  23.883  0.00  0.00    +0.143 C 
BRANCH  19   9
ATOM      9  N   UNL     1       1.182   0.592  23.398  0.00  0.00    -0.295 NA
ATOM     22  C   UNL     1      -0.172   0.586  22.858  0.00  0.00    +0.105 C 
BRANCH   9  21
ATOM     21  C   UNL     1       2.147   0.166  22.391  0.00  0.00    +0.119 C 
BRANCH  21  23
ATOM     23  C   UNL     1       3.505  -0.090  22.990  0.00  0.00    -0.033 A 
ATOM     25  C   UNL     1       3.791  -1.328  23.564  0.00  0.00    +0.005 A 
ATOM     26  C   UNL     1       4.476   0.911  22.971  0.00  0.00    +0.005 A 
ATOM     29  C   UNL     1       5.049  -1.566  24.119  0.00  0.00    +0.000 A 
ATOM     30  C   UNL     1       5.733   0.674  23.525  0.00  0.00    +0.000 A 
ATOM     31  C   UNL     1       6.020  -0.564  24.100  0.00  0.00    +0.000 A 
ENDBRANCH  21  23
ENDBRANCH   9  21
ENDBRANCH  19   9
ENDBRANCH  18  19
ENDBRANCH  12   5
BRANCH  13   6
ATOM      3  O   UNL     1      -3.958  -0.278  23.175  0.00  0.00    -0.272 OA
ATOM      6  N   UNL     1      -5.819   0.102  24.519  0.00  0.00    -0.305 N 
ATOM     17  C   UNL     1      -4.879  -0.690  23.875  0.00  0.00    +0.251 C 
ATOM     35  H   UNL     1      -6.553  -0.353  25.054  0.00  0.00    +0.149 HD
BRANCH  17  20
ATOM     20  C   UNL     1      -5.115  -2.163  24.134  0.00  0.00    +0.324 C 
BRANCH  20   4
ATOM      4  O   UNL     1      -3.890  -2.865  24.173  0.00  0.00    -0.483 OA
BRANCH   4  24
ATOM     24  C   UNL     1      -2.842  -2.262  24.829  0.00  0.00    +0.121 A 
ATOM     27  C   UNL     1      -3.091  -1.401  25.898  0.00  0.00    +0.045 A 
ATOM     28  C   UNL     1      -1.532  -2.512  24.424  0.00  0.00    +0.045 A 
ATOM     32  C   UNL     1      -2.028  -0.789  26.562  0.00  0.00    +0.004 A 
ATOM     33  C   UNL     1      -0.468  -1.901  25.089  0.00  0.00    +0.004 A 
ATOM     34  C   UNL     1      -0.716  -1.039  26.158  0.00  0.00    +0.000 A 
ENDBRANCH   4  24
ENDBRANCH  20   4
ENDBRANCH  17  20
ENDBRANCH  13   6
TORSDOF 9
ENDMDL
MODEL 4
REMARK VINA RESULT:       2.6      2.330      7.770
REMARK  Name = 11911829
REMARK  10 active torsions:
REMARK  status: ('A' for Active; 'I' for Inactive)
REMARK    1  A    between atoms: O_4  and  C_20
REMARK    2  A    between atoms: O_4  and  C_24
REMARK    3  A    between atoms: N_5  and  C_12
REMARK    4  A    between atoms: N_6  and  C_13
REMARK    5  A    between atoms: N_9  and  C_19
REMARK    6  A    between atoms: N_9  and  C_21
REMARK    7  A    between atoms: N_9  and  C_22
REMARK    8  A    between atoms: C_17  and  C_20
REMARK    9  A    between atoms: C_18  and  C_19
REMARK   10  A    between atoms: C_21  and  C_23
REMARK                            x       y       z     vdW  Elec       q    Type
REMARK                         _______ _______ _______ _____ _____    ______ ____
ROOT
ATOM      1  O   UNL     1      -2.175   4.879  24.265  0.00  0.00    -0.370 OA
ATOM      2  O   UNL     1      -2.611   3.631  27.118  0.00  0.00    -0.370 OA
ATOM     10  C   UNL     1      -2.156   3.106  25.857  0.00  0.00    +0.175 C 
ATOM     11  C   UNL     1      -2.962   3.790  24.770  0.00  0.00    +0.171 C 
ATOM     12  C   UNL     1      -0.725   3.538  25.606  0.00  0.00    +0.166 C 
ATOM     13  C   UNL     1      -4.186   4.315  25.487  0.00  0.00    +0.130 C 
ATOM     14  C   UNL     1      -0.890   4.881  24.902  0.00  0.00    +0.190 C 
ATOM     15  C   UNL     1      -3.653   4.588  26.880  0.00  0.00    +0.185 C 
ENDROOT
BRANCH  12   5
ATOM      5  N   UNL     1       0.041   2.537  24.858  0.00  0.00    -0.244 N 
ATOM      7  N   UNL     1       1.209   2.811  24.288  0.00  0.00    -0.065 NA
ATOM      8  N   UNL     1       1.637   1.686  23.694  0.00  0.00    -0.133 NA
ATOM     16  C   UNL     1      -0.250   1.225  24.609  0.00  0.00    +0.135 A 
ATOM     18  C   UNL     1       0.757   0.662  23.865  0.00  0.00    +0.097 A 
BRANCH  18  19
ATOM     19  C   UNL     1       0.952  -0.685  23.332  0.00  0.00    +0.143 C 
BRANCH  19   9
ATOM      9  N   UNL     1       1.682  -0.708  22.049  0.00  0.00    -0.295 NA
ATOM     22  C   UNL     1       0.748  -0.534  20.943  0.00  0.00    +0.105 C 
BRANCH   9  21
ATOM     21  C   UNL     1       2.703   0.332  22.039  0.00  0.00    +0.119 C 
BRANCH  21  23
ATOM     23  C   UNL     1       3.898  -0.048  22.872  0.00  0.00    -0.033 A 
ATOM     25  C   UNL     1       4.902   0.888  23.120  0.00  0.00    +0.005 A 
ATOM     26  C   UNL     1       4.002  -1.336  23.397  0.00  0.00    +0.005 A 
ATOM     29  C   UNL     1       6.010   0.536  23.892  0.00  0.00    +0.000 A 
ATOM     30  C   UNL     1       5.108  -1.689  24.169  0.00  0.00    +0.000 A 
ATOM     31  C   UNL     1       6.112  -0.753  24.416  0.00  0.00    +0.000 A 
ENDBRANCH  21  23
ENDBRANCH   9  21
ENDBRANCH  19   9
ENDBRANCH  18  19
ENDBRANCH  12   5
BRANCH  13   6
ATOM      3  O   UNL     1      -4.608   2.144  23.615  0.00  0.00    -0.272 OA
ATOM      6  N   UNL     1      -5.239   3.329  25.515  0.00  0.00    -0.305 N 
ATOM     17  C   UNL     1      -5.360   2.321  24.569  0.00  0.00    +0.251 C 
ATOM     35  H   UNL     1      -5.938   3.391  26.250  0.00  0.00    +0.149 HD
BRANCH  17  20
ATOM     20  C   UNL     1      -6.554   1.432  24.846  0.00  0.00    +0.324 C 
BRANCH  20   4
ATOM      4  O   UNL     1      -6.347   0.139  24.318  0.00  0.00    -0.483 OA
BRANCH   4  24
ATOM     24  C   UNL     1      -5.147  -0.470  24.601  0.00  0.00    +0.121 A 
ATOM     27  C   UNL     1      -4.394  -0.050  25.699  0.00  0.00    +0.045 A 
ATOM     28  C   UNL     1      -4.683  -1.506  23.792  0.00  0.00    +0.045 A 
ATOM     32  C   UNL     1      -3.176  -0.668  25.986  0.00  0.00    +0.004 A 
ATOM     33  C   UNL     1      -3.465  -2.123  24.079  0.00  0.00    +0.004 A 
ATOM     34  C   UNL     1      -2.712  -1.704  25.176  0.00  0.00    +0.000 A 
ENDBRANCH   4  24
ENDBRANCH  20   4
ENDBRANCH  17  20
ENDBRANCH  13   6
TORSDOF 9
ENDMDL
