MODEL 1
REMARK VINA RESULT:       3.7      0.000      0.000
REMARK  Name = 7128122
REMARK  11 active torsions:
REMARK  status: ('A' for Active; 'I' for Inactive)
REMARK    1  A    between atoms: O_6  and  C_24
REMARK    2  A    between atoms: O_6  and  C_31
REMARK    3  A    between atoms: N_9  and  C_14
REMARK    4  A    between atoms: N_10  and  C_20
REMARK    5  A    between atoms: N_11  and  C_28
REMARK    6  A    between atoms: C_15  and  C_18
REMARK    7  A    between atoms: C_19  and  C_23
REMARK    8  A    between atoms: C_20  and  C_21
REMARK    9  A    between atoms: C_20  and  C_24
REMARK   10  A    between atoms: C_21  and  C_25
REMARK   11  A    between atoms: C_21  and  C_26
REMARK                            x       y       z     vdW  Elec       q    Type
REMARK                         _______ _______ _______ _____ _____    ______ ____
ROOT
ATOM      4  O   UNL     1      -2.054  -0.308  26.380  0.00  0.00    -0.268 OA
ATOM      8  N   UNL     1      -2.289   0.834  24.363  0.00  0.00    -0.283 N 
ATOM     14  C   UNL     1      -1.298   2.795  23.470  0.00  0.00    +0.105 C 
ATOM     15  C   UNL     1      -1.596   2.052  24.772  0.00  0.00    +0.182 C 
ATOM     16  C   UNL     1      -2.414   2.332  22.532  0.00  0.00    +0.043 C 
ATOM     17  C   UNL     1      -2.667   0.890  22.951  0.00  0.00    +0.111 C 
ATOM     19  C   UNL     1      -2.376  -0.275  25.194  0.00  0.00    +0.267 C 
ENDROOT
BRANCH  14   9
ATOM      5  O   UNL     1       0.635   1.087  24.716  0.00  0.00    -0.252 OA
ATOM      9  N   UNL     1      -0.001   2.433  22.948  0.00  0.00    -0.294 N 
ATOM     11  N   UNL     1       2.058   1.420  22.878  0.00  0.00    -0.267 N 
ATOM     22  C   UNL     1       0.887   1.589  23.623  0.00  0.00    +0.304 C 
ATOM     37  H   UNL     1       0.253   2.752  22.018  0.00  0.00    +0.151 HD
ATOM     39  H   UNL     1       2.110   1.908  21.988  0.00  0.00    +0.156 HD
BRANCH  11  28
ATOM      1  F   UNL     1       1.859  -1.306  23.428  0.00  0.00    -0.203 F 
ATOM      2  F   UNL     1       6.521  -1.600  24.180  0.00  0.00    -0.205 F 
ATOM     28  C   UNL     1       3.194   0.647  23.211  0.00  0.00    +0.070 A 
ATOM     32  C   UNL     1       3.061  -0.715  23.481  0.00  0.00    +0.147 A 
ATOM     33  C   UNL     1       4.450   1.250  23.269  0.00  0.00    +0.029 A 
ATOM     34  C   UNL     1       4.185  -1.475  23.809  0.00  0.00    +0.078 A 
ATOM     35  C   UNL     1       5.574   0.490  23.597  0.00  0.00    +0.040 A 
ATOM     36  C   UNL     1       5.442  -0.871  23.867  0.00  0.00    +0.126 A 
ENDBRANCH  11  28
ENDBRANCH  14   9
BRANCH  19  23
ATOM     12  N   UNL     1      -1.997  -2.511  24.417  0.00  0.00    -0.247 NA
ATOM     13  N   UNL     1      -4.697  -2.786  23.708  0.00  0.00    -0.259 NA
ATOM     23  C   UNL     1      -2.889  -1.516  24.602  0.00  0.00    +0.144 A 
ATOM     27  C   UNL     1      -4.214  -1.652  24.253  0.00  0.00    +0.143 A 
ATOM     29  C   UNL     1      -2.480  -3.646  23.873  0.00  0.00    +0.131 A 
ATOM     30  C   UNL     1      -3.805  -3.781  23.525  0.00  0.00    +0.130 A 
ENDBRANCH  19  23
BRANCH  15  18
ATOM      3  O   UNL     1      -2.168   3.553  26.538  0.00  0.00    -0.274 OA
ATOM     10  N   UNL     1      -3.877   2.558  25.310  0.00  0.00    -0.301 N 
ATOM     18  C   UNL     1      -2.554   2.814  25.638  0.00  0.00    +0.236 C 
ATOM     38  H   UNL     1      -4.073   1.969  24.506  0.00  0.00    +0.150 HD
BRANCH  10  20
ATOM     20  C   UNL     1      -4.993   3.148  26.006  0.00  0.00    +0.184 C 
BRANCH  20  21
ATOM     21  C   UNL     1      -6.262   2.271  25.939  0.00  0.00    +0.014 C 
ATOM     25  C   UNL     1      -6.230   1.342  24.721  0.00  0.00    +0.009 C 
ATOM     26  C   UNL     1      -6.501   1.453  27.213  0.00  0.00    +0.009 C 
ENDBRANCH  20  21
BRANCH  20  24
ATOM      7  O   UNL     1      -6.343   5.132  25.714  0.00  0.00    -0.249 OA
ATOM     24  C   UNL     1      -5.272   4.566  25.521  0.00  0.00    +0.328 C 
BRANCH  24   6
ATOM      6  O   UNL     1      -4.208   5.106  24.864  0.00  0.00    -0.467 OA
ATOM     31  C   UNL     1      -4.262   5.045  23.435  0.00  0.00    +0.280 C 
ENDBRANCH  24   6
ENDBRANCH  20  24
ENDBRANCH  10  20
ENDBRANCH  15  18
TORSDOF 8
ENDMDL
MODEL 2
REMARK VINA RESULT:       4.5      2.655      4.434
REMARK  Name = 7128122
REMARK  11 active torsions:
REMARK  status: ('A' for Active; 'I' for Inactive)
REMARK    1  A    between atoms: O_6  and  C_24
REMARK    2  A    between atoms: O_6  and  C_31
REMARK    3  A    between atoms: N_9  and  C_14
REMARK    4  A    between atoms: N_10  and  C_20
REMARK    5  A    between atoms: N_11  and  C_28
REMARK    6  A    between atoms: C_15  and  C_18
REMARK    7  A    between atoms: C_19  and  C_23
REMARK    8  A    between atoms: C_20  and  C_21
REMARK    9  A    between atoms: C_20  and  C_24
REMARK   10  A    between atoms: C_21  and  C_25
REMARK   11  A    between atoms: C_21  and  C_26
REMARK                            x       y       z     vdW  Elec       q    Type
REMARK                         _______ _______ _______ _____ _____    ______ ____
ROOT
ATOM      4  O   UNL     1       0.122   3.736  25.287  0.00  0.00    -0.268 OA
ATOM      8  N   UNL     1      -0.645   1.545  25.470  0.00  0.00    -0.283 N 
ATOM     14  C   UNL     1      -1.122  -0.158  23.889  0.00  0.00    +0.105 C 
ATOM     15  C   UNL     1      -0.959   1.353  24.057  0.00  0.00    +0.182 C 
ATOM     16  C   UNL     1      -1.579  -0.624  25.272  0.00  0.00    +0.043 C 
ATOM     17  C   UNL     1      -0.853   0.312  26.230  0.00  0.00    +0.111 C 
ATOM     19  C   UNL     1      -0.047   2.707  25.937  0.00  0.00    +0.267 C 
ENDROOT
BRANCH  14   9
ATOM      5  O   UNL     1       1.496   0.976  24.150  0.00  0.00    -0.252 OA
ATOM      9  N   UNL     1       0.129  -0.779  23.521  0.00  0.00    -0.294 N 
ATOM     11  N   UNL     1       2.398  -0.992  23.243  0.00  0.00    -0.267 N 
ATOM     22  C   UNL     1       1.370  -0.153  23.683  0.00  0.00    +0.304 C 
ATOM     37  H   UNL     1       0.115  -1.739  23.192  0.00  0.00    +0.151 HD
ATOM     39  H   UNL     1       2.124  -1.902  22.879  0.00  0.00    +0.156 HD
BRANCH  11  28
ATOM      1  F   UNL     1       3.489   1.070  21.718  0.00  0.00    -0.203 F 
ATOM      2  F   UNL     1       7.849   0.019  23.227  0.00  0.00    -0.205 F 
ATOM     28  C   UNL     1       3.788  -0.732  23.236  0.00  0.00    +0.070 A 
ATOM     32  C   UNL     1       4.303   0.307  22.462  0.00  0.00    +0.147 A 
ATOM     33  C   UNL     1       4.645  -1.518  24.007  0.00  0.00    +0.029 A 
ATOM     34  C   UNL     1       5.675   0.562  22.459  0.00  0.00    +0.078 A 
ATOM     35  C   UNL     1       6.017  -1.264  24.003  0.00  0.00    +0.040 A 
ATOM     36  C   UNL     1       6.532  -0.225  23.230  0.00  0.00    +0.126 A 
ENDBRANCH  11  28
ENDBRANCH  14   9
BRANCH  19  23
ATOM     12  N   UNL     1       1.770   2.708  27.502  0.00  0.00    -0.247 NA
ATOM     13  N   UNL     1      -0.015   2.685  29.666  0.00  0.00    -0.259 NA
ATOM     23  C   UNL     1       0.433   2.703  27.325  0.00  0.00    +0.144 A 
ATOM     27  C   UNL     1      -0.443   2.691  28.388  0.00  0.00    +0.143 A 
ATOM     29  C   UNL     1       2.198   2.704  28.780  0.00  0.00    +0.131 A 
ATOM     30  C   UNL     1       1.321   2.692  29.842  0.00  0.00    +0.130 A 
ENDBRANCH  19  23
BRANCH  15  18
ATOM      3  O   UNL     1      -2.435   2.734  22.787  0.00  0.00    -0.274 OA
ATOM     10  N   UNL     1      -3.144   1.935  24.855  0.00  0.00    -0.301 N 
ATOM     18  C   UNL     1      -2.247   2.080  23.808  0.00  0.00    +0.236 C 
ATOM     38  H   UNL     1      -2.897   1.320  25.625  0.00  0.00    +0.150 HD
BRANCH  10  20
ATOM     20  C   UNL     1      -4.446   2.553  24.873  0.00  0.00    +0.184 C 
BRANCH  20  21
ATOM     21  C   UNL     1      -4.569   3.642  25.961  0.00  0.00    +0.014 C 
ATOM     25  C   UNL     1      -3.209   4.280  26.263  0.00  0.00    +0.009 C 
ATOM     26  C   UNL     1      -5.591   4.731  25.615  0.00  0.00    +0.009 C 
ENDBRANCH  20  21
BRANCH  20  24
ATOM      7  O   UNL     1      -6.737   1.785  24.784  0.00  0.00    -0.249 OA
ATOM     24  C   UNL     1      -5.559   1.518  24.996  0.00  0.00    +0.328 C 
BRANCH  24   6
ATOM      6  O   UNL     1      -5.087   0.293  25.363  0.00  0.00    -0.467 OA
ATOM     31  C   UNL     1      -4.812  -0.614  24.291  0.00  0.00    +0.280 C 
ENDBRANCH  24   6
ENDBRANCH  20  24
ENDBRANCH  10  20
ENDBRANCH  15  18
TORSDOF 8
ENDMDL
MODEL 3
REMARK VINA RESULT:       6.2      2.647      4.244
REMARK  Name = 7128122
REMARK  11 active torsions:
REMARK  status: ('A' for Active; 'I' for Inactive)
REMARK    1  A    between atoms: O_6  and  C_24
REMARK    2  A    between atoms: O_6  and  C_31
REMARK    3  A    between atoms: N_9  and  C_14
REMARK    4  A    between atoms: N_10  and  C_20
REMARK    5  A    between atoms: N_11  and  C_28
REMARK    6  A    between atoms: C_15  and  C_18
REMARK    7  A    between atoms: C_19  and  C_23
REMARK    8  A    between atoms: C_20  and  C_21
REMARK    9  A    between atoms: C_20  and  C_24
REMARK   10  A    between atoms: C_21  and  C_25
REMARK   11  A    between atoms: C_21  and  C_26
REMARK                            x       y       z     vdW  Elec       q    Type
REMARK                         _______ _______ _______ _____ _____    ______ ____
ROOT
ATOM      4  O   UNL     1       0.107   3.690  25.541  0.00  0.00    -0.268 OA
ATOM      8  N   UNL     1      -0.587   1.477  25.759  0.00  0.00    -0.283 N 
ATOM     14  C   UNL     1      -1.197  -0.206  24.204  0.00  0.00    +0.105 C 
ATOM     15  C   UNL     1      -1.050   1.305  24.386  0.00  0.00    +0.182 C 
ATOM     16  C   UNL     1      -1.489  -0.709  25.620  0.00  0.00    +0.043 C 
ATOM     17  C   UNL     1      -0.683   0.226  26.511  0.00  0.00    +0.111 C 
ATOM     19  C   UNL     1       0.034   2.645  26.183  0.00  0.00    +0.267 C 
ENDROOT
BRANCH  14   9
ATOM      5  O   UNL     1       1.452   0.855  24.452  0.00  0.00    -0.252 OA
ATOM      9  N   UNL     1       0.019  -0.791  23.689  0.00  0.00    -0.294 N 
ATOM     11  N   UNL     1       2.264  -0.993  23.254  0.00  0.00    -0.267 N 
ATOM     22  C   UNL     1       1.279  -0.204  23.855  0.00  0.00    +0.304 C 
ATOM     37  H   UNL     1      -0.032  -1.701  23.244  0.00  0.00    +0.151 HD
ATOM     39  H   UNL     1       1.953  -1.846  22.795  0.00  0.00    +0.156 HD
BRANCH  11  28
ATOM      1  F   UNL     1       3.334   0.994  21.618  0.00  0.00    -0.203 F 
ATOM      2  F   UNL     1       7.723  -0.048  23.047  0.00  0.00    -0.205 F 
ATOM     28  C   UNL     1       3.656  -0.750  23.198  0.00  0.00    +0.070 A 
ATOM     32  C   UNL     1       4.160   0.252  22.369  0.00  0.00    +0.147 A 
ATOM     33  C   UNL     1       4.525  -1.515  23.975  0.00  0.00    +0.029 A 
ATOM     34  C   UNL     1       5.534   0.489  22.317  0.00  0.00    +0.078 A 
ATOM     35  C   UNL     1       5.899  -1.278  23.924  0.00  0.00    +0.040 A 
ATOM     36  C   UNL     1       6.404  -0.277  23.095  0.00  0.00    +0.126 A 
ENDBRANCH  11  28
ENDBRANCH  14   9
BRANCH  19  23
ATOM     12  N   UNL     1      -0.161   2.485  28.568  0.00  0.00    -0.247 NA
ATOM     13  N   UNL     1       2.616   2.733  28.871  0.00  0.00    -0.259 NA
ATOM     23  C   UNL     1       0.663   2.626  27.509  0.00  0.00    +0.144 A 
ATOM     27  C   UNL     1       2.027   2.748  27.659  0.00  0.00    +0.143 A 
ATOM     29  C   UNL     1       0.428   2.469  29.780  0.00  0.00    +0.131 A 
ATOM     30  C   UNL     1       1.792   2.591  29.928  0.00  0.00    +0.130 A 
ENDBRANCH  19  23
BRANCH  15  18
ATOM      3  O   UNL     1      -2.749   2.548  23.261  0.00  0.00    -0.274 OA
ATOM     10  N   UNL     1      -3.068   1.974  25.494  0.00  0.00    -0.301 N 
ATOM     18  C   UNL     1      -2.373   2.005  24.295  0.00  0.00    +0.236 C 
ATOM     38  H   UNL     1      -2.679   1.444  26.268  0.00  0.00    +0.150 HD
BRANCH  10  20
ATOM     20  C   UNL     1      -4.356   2.595  25.678  0.00  0.00    +0.184 C 
BRANCH  20  21
ATOM     21  C   UNL     1      -5.471   1.895  24.870  0.00  0.00    +0.014 C 
ATOM     25  C   UNL     1      -5.082   0.455  24.522  0.00  0.00    +0.009 C 
ATOM     26  C   UNL     1      -6.831   1.912  25.576  0.00  0.00    +0.009 C 
ENDBRANCH  20  21
BRANCH  20  24
ATOM      7  O   UNL     1      -5.079   4.630  24.590  0.00  0.00    -0.249 OA
ATOM     24  C   UNL     1      -4.308   4.089  25.376  0.00  0.00    +0.328 C 
BRANCH  24   6
ATOM      6  O   UNL     1      -3.326   4.726  26.073  0.00  0.00    -0.467 OA
ATOM     31  C   UNL     1      -2.342   5.403  25.285  0.00  0.00    +0.280 C 
ENDBRANCH  24   6
ENDBRANCH  20  24
ENDBRANCH  10  20
ENDBRANCH  15  18
TORSDOF 8
ENDMDL
