MODEL 1
REMARK VINA RESULT:       0.1      0.000      0.000
REMARK  Name = 40780675
REMARK  11 active torsions:
REMARK  status: ('A' for Active; 'I' for Inactive)
REMARK    1  A    between atoms: S_1  and  N_11
REMARK    2  A    between atoms: S_1  and  C_26
REMARK    3  A    between atoms: O_3  and  C_13
REMARK    4  A    between atoms: O_4  and  C_14
REMARK    5  A    between atoms: O_8  and  C_24
REMARK    6  A    between atoms: O_8  and  C_30
REMARK    7  A    between atoms: N_10  and  C_23
REMARK    8  A    between atoms: N_11  and  C_17
REMARK    9  A    between atoms: C_12  and  C_16
REMARK   10  A    between atoms: C_15  and  C_17
REMARK   11  A    between atoms: C_16  and  C_18
REMARK                            x       y       z     vdW  Elec       q    Type
REMARK                         _______ _______ _______ _____ _____    ______ ____
ROOT
ATOM     16  C   UNL     1      -4.281  -0.309  25.586  0.00  0.00    +0.130 C 
ENDROOT
BRANCH  16  18
ATOM      5  O   UNL     1      -4.240  -2.026  23.953  0.00  0.00    -0.276 OA
ATOM      9  N   UNL     1      -2.194  -1.408  24.862  0.00  0.00    -0.298 N 
ATOM     10  N   UNL     1       0.477  -0.831  24.157  0.00  0.00    -0.324 N 
ATOM     18  C   UNL     1      -3.577  -1.327  24.725  0.00  0.00    +0.218 C 
ATOM     19  C   UNL     1      -1.374  -0.599  25.765  0.00  0.00    +0.126 C 
ATOM     20  C   UNL     1      -1.433  -2.383  24.084  0.00  0.00    +0.126 C 
ATOM     21  C   UNL     1      -0.269   0.122  24.992  0.00  0.00    +0.124 C 
ATOM     22  C   UNL     1      -0.333  -1.692  23.281  0.00  0.00    +0.124 C 
BRANCH  10  23
ATOM     23  C   UNL     1       1.774  -0.514  23.739  0.00  0.00    +0.072 A 
ATOM     24  C   UNL     1       2.048   0.717  23.146  0.00  0.00    +0.141 A 
ATOM     25  C   UNL     1       2.799  -1.444  23.924  0.00  0.00    +0.027 A 
ATOM     27  C   UNL     1       3.347   1.021  22.736  0.00  0.00    +0.047 A 
ATOM     28  C   UNL     1       4.097  -1.140  23.514  0.00  0.00    +0.002 A 
ATOM     29  C   UNL     1       4.372   0.091  22.920  0.00  0.00    +0.004 A 
BRANCH  24   8
ATOM      8  O   UNL     1       1.062   1.638  22.956  0.00  0.00    -0.493 OA
ATOM     30  C   UNL     1       0.923   2.652  23.949  0.00  0.00    +0.277 C 
ENDBRANCH  24   8
ENDBRANCH  10  23
ENDBRANCH  16  18
BRANCH  16  12
ATOM      2  O   UNL     1      -4.570   1.204  23.747  0.00  0.00    -0.366 OA
ATOM     12  C   UNL     1      -5.297   0.461  24.753  0.00  0.00    +0.158 C 
ATOM     13  C   UNL     1      -6.078   1.488  25.565  0.00  0.00    +0.175 C 
ATOM     14  C   UNL     1      -5.207   2.721  25.438  0.00  0.00    +0.175 C 
ATOM     15  C   UNL     1      -4.735   2.612  23.997  0.00  0.00    +0.165 C 
BRANCH  13   3
ATOM      3  O   UNL     1      -7.334   1.700  24.920  0.00  0.00    -0.387 OA
ATOM     31  H   UNL     1      -7.931   2.106  25.572  0.00  0.00    +0.210 HD
ENDBRANCH  13   3
BRANCH  14   4
ATOM      4  O   UNL     1      -5.903   3.925  25.677  0.00  0.00    -0.387 OA
ATOM     32  H   UNL     1      -5.693   4.208  26.583  0.00  0.00    +0.210 HD
ENDBRANCH  14   4
BRANCH  15  17
ATOM     17  C   UNL     1      -3.425   3.333  23.737  0.00  0.00    +0.139 C 
BRANCH  17  11
ATOM     11  N   UNL     1      -2.386   2.846  24.596  0.00  0.00    -0.192 NA
ATOM     33  H   UNL     1      -2.407   1.830  24.754  0.00  0.00    +0.148 HD
BRANCH  11   1
ATOM      1  S   UNL     1      -1.837   3.798  25.929  0.00  0.00    +0.027 S 
ATOM      6  O   UNL     1      -0.775   3.086  26.612  0.00  0.00    -0.158 OA
ATOM      7  O   UNL     1      -2.977   4.313  26.664  0.00  0.00    -0.158 OA
ATOM     26  C   UNL     1      -1.107   5.165  25.055  0.00  0.00    +0.214 C 
ENDBRANCH  11   1
ENDBRANCH  17  11
ENDBRANCH  15  17
ENDBRANCH  16  12
TORSDOF 9
ENDMDL
MODEL 2
REMARK VINA RESULT:       0.3      1.996      4.379
REMARK  Name = 40780675
REMARK  11 active torsions:
REMARK  status: ('A' for Active; 'I' for Inactive)
REMARK    1  A    between atoms: S_1  and  N_11
REMARK    2  A    between atoms: S_1  and  C_26
REMARK    3  A    between atoms: O_3  and  C_13
REMARK    4  A    between atoms: O_4  and  C_14
REMARK    5  A    between atoms: O_8  and  C_24
REMARK    6  A    between atoms: O_8  and  C_30
REMARK    7  A    between atoms: N_10  and  C_23
REMARK    8  A    between atoms: N_11  and  C_17
REMARK    9  A    between atoms: C_12  and  C_16
REMARK   10  A    between atoms: C_15  and  C_17
REMARK   11  A    between atoms: C_16  and  C_18
REMARK                            x       y       z     vdW  Elec       q    Type
REMARK                         _______ _______ _______ _____ _____    ______ ____
ROOT
ATOM     16  C   UNL     1      -4.101   3.991  25.313  0.00  0.00    +0.130 C 
ENDROOT
BRANCH  16  18
ATOM      5  O   UNL     1      -2.540   4.703  26.949  0.00  0.00    -0.276 OA
ATOM      9  N   UNL     1      -1.661   3.856  24.974  0.00  0.00    -0.298 N 
ATOM     10  N   UNL     1       0.340   2.129  23.984  0.00  0.00    -0.324 N 
ATOM     18  C   UNL     1      -2.701   4.220  25.825  0.00  0.00    +0.218 C 
ATOM     19  C   UNL     1      -1.810   3.280  23.636  0.00  0.00    +0.126 C 
ATOM     20  C   UNL     1      -0.272   4.064  25.378  0.00  0.00    +0.126 C 
ATOM     21  C   UNL     1      -1.048   1.959  23.529  0.00  0.00    +0.124 C 
ATOM     22  C   UNL     1       0.514   2.757  25.303  0.00  0.00    +0.124 C 
BRANCH  10  23
ATOM     23  C   UNL     1       1.322   1.228  23.557  0.00  0.00    +0.072 A 
ATOM     24  C   UNL     1       1.078  -0.144  23.567  0.00  0.00    +0.141 A 
ATOM     25  C   UNL     1       2.553   1.716  23.116  0.00  0.00    +0.027 A 
ATOM     27  C   UNL     1       2.065  -1.032  23.137  0.00  0.00    +0.047 A 
ATOM     28  C   UNL     1       3.540   0.829  22.686  0.00  0.00    +0.002 A 
ATOM     29  C   UNL     1       3.297  -0.545  22.697  0.00  0.00    +0.004 A 
BRANCH  24   8
ATOM      8  O   UNL     1      -0.117  -0.640  23.994  0.00  0.00    -0.493 OA
ATOM     30  C   UNL     1      -0.162  -1.174  25.315  0.00  0.00    +0.277 C 
ENDBRANCH  24   8
ENDBRANCH  10  23
ENDBRANCH  16  18
BRANCH  16  12
ATOM      2  O   UNL     1      -4.046   1.617  25.655  0.00  0.00    -0.366 OA
ATOM     12  C   UNL     1      -4.739   2.823  26.053  0.00  0.00    +0.158 C 
ATOM     13  C   UNL     1      -6.205   2.616  25.690  0.00  0.00    +0.175 C 
ATOM     14  C   UNL     1      -6.108   1.670  24.510  0.00  0.00    +0.175 C 
ATOM     15  C   UNL     1      -4.961   0.769  24.937  0.00  0.00    +0.165 C 
BRANCH  13   3
ATOM      3  O   UNL     1      -6.847   1.972  26.790  0.00  0.00    -0.387 OA
ATOM     31  H   UNL     1      -7.787   1.875  26.562  0.00  0.00    +0.210 HD
ENDBRANCH  13   3
BRANCH  14   4
ATOM      4  O   UNL     1      -7.295   0.943  24.278  0.00  0.00    -0.387 OA
ATOM     32  H   UNL     1      -7.331   0.740  23.327  0.00  0.00    +0.210 HD
ENDBRANCH  14   4
BRANCH  15  17
ATOM     17  C   UNL     1      -4.243   0.116  23.770  0.00  0.00    +0.139 C 
BRANCH  17  11
ATOM     11  N   UNL     1      -3.108  -0.637  24.215  0.00  0.00    -0.192 NA
ATOM     33  H   UNL     1      -2.210  -0.328  23.818  0.00  0.00    +0.148 HD
BRANCH  11   1
ATOM      1  S   UNL     1      -3.247  -2.332  24.515  0.00  0.00    +0.027 S 
ATOM      6  O   UNL     1      -3.520  -2.542  25.923  0.00  0.00    -0.158 OA
ATOM      7  O   UNL     1      -2.162  -3.035  23.857  0.00  0.00    -0.158 OA
ATOM     26  C   UNL     1      -4.736  -2.687  23.610  0.00  0.00    +0.214 C 
ENDBRANCH  11   1
ENDBRANCH  17  11
ENDBRANCH  15  17
ENDBRANCH  16  12
TORSDOF 9
ENDMDL
MODEL 3
REMARK VINA RESULT:       1.0      0.985      1.723
REMARK  Name = 40780675
REMARK  11 active torsions:
REMARK  status: ('A' for Active; 'I' for Inactive)
REMARK    1  A    between atoms: S_1  and  N_11
REMARK    2  A    between atoms: S_1  and  C_26
REMARK    3  A    between atoms: O_3  and  C_13
REMARK    4  A    between atoms: O_4  and  C_14
REMARK    5  A    between atoms: O_8  and  C_24
REMARK    6  A    between atoms: O_8  and  C_30
REMARK    7  A    between atoms: N_10  and  C_23
REMARK    8  A    between atoms: N_11  and  C_17
REMARK    9  A    between atoms: C_12  and  C_16
REMARK   10  A    between atoms: C_15  and  C_17
REMARK   11  A    between atoms: C_16  and  C_18
REMARK                            x       y       z     vdW  Elec       q    Type
REMARK                         _______ _______ _______ _____ _____    ______ ____
ROOT
ATOM     16  C   UNL     1      -3.928  -0.191  25.530  0.00  0.00    +0.130 C 
ENDROOT
BRANCH  16  18
ATOM      5  O   UNL     1      -3.753  -1.882  23.877  0.00  0.00    -0.276 OA
ATOM      9  N   UNL     1      -1.758  -1.032  24.708  0.00  0.00    -0.298 N 
ATOM     10  N   UNL     1       0.795  -0.139  23.901  0.00  0.00    -0.324 N 
ATOM     18  C   UNL     1      -3.146  -1.114  24.630  0.00  0.00    +0.218 C 
ATOM     19  C   UNL     1      -1.002  -0.136  25.586  0.00  0.00    +0.126 C 
ATOM     20  C   UNL     1      -0.920  -1.905  23.890  0.00  0.00    +0.126 C 
ATOM     21  C   UNL     1      -0.023   0.714  24.776  0.00  0.00    +0.124 C 
ATOM     22  C   UNL     1       0.056  -1.085  23.050  0.00  0.00    +0.124 C 
BRANCH  10  23
ATOM     23  C   UNL     1       2.027   0.331  23.433  0.00  0.00    +0.072 A 
ATOM     24  C   UNL     1       3.147  -0.499  23.428  0.00  0.00    +0.141 A 
ATOM     25  C   UNL     1       2.127   1.642  22.967  0.00  0.00    +0.027 A 
ATOM     27  C   UNL     1       4.370  -0.019  22.958  0.00  0.00    +0.047 A 
ATOM     28  C   UNL     1       3.350   2.123  22.496  0.00  0.00    +0.002 A 
ATOM     29  C   UNL     1       4.471   1.293  22.492  0.00  0.00    +0.004 A 
BRANCH  24   8
ATOM      8  O   UNL     1       3.070  -1.782  23.880  0.00  0.00    -0.493 OA
ATOM     30  C   UNL     1       4.301  -2.479  24.066  0.00  0.00    +0.277 C 
ENDBRANCH  24   8
ENDBRANCH  10  23
ENDBRANCH  16  18
BRANCH  16  12
ATOM      2  O   UNL     1      -4.407   1.302  23.713  0.00  0.00    -0.366 OA
ATOM     12  C   UNL     1      -5.033   0.492  24.736  0.00  0.00    +0.158 C 
ATOM     13  C   UNL     1      -5.873   1.444  25.581  0.00  0.00    +0.175 C 
ATOM     14  C   UNL     1      -5.116   2.748  25.436  0.00  0.00    +0.175 C 
ATOM     15  C   UNL     1      -4.684   2.688  23.980  0.00  0.00    +0.165 C 
BRANCH  13   3
ATOM      3  O   UNL     1      -7.163   1.549  24.979  0.00  0.00    -0.387 OA
ATOM     31  H   UNL     1      -7.618   2.301  25.396  0.00  0.00    +0.210 HD
ENDBRANCH  13   3
BRANCH  14   4
ATOM      4  O   UNL     1      -5.906   3.886  25.708  0.00  0.00    -0.387 OA
ATOM     32  H   UNL     1      -6.202   3.821  26.632  0.00  0.00    +0.210 HD
ENDBRANCH  14   4
BRANCH  15  17
ATOM     17  C   UNL     1      -3.451   3.522  23.684  0.00  0.00    +0.139 C 
BRANCH  17  11
ATOM     11  N   UNL     1      -2.318   3.052  24.424  0.00  0.00    -0.192 NA
ATOM     33  H   UNL     1      -2.252   2.027  24.495  0.00  0.00    +0.148 HD
BRANCH  11   1
ATOM      1  S   UNL     1      -1.742   3.933  25.794  0.00  0.00    +0.027 S 
ATOM      6  O   UNL     1      -0.723   3.150  26.465  0.00  0.00    -0.158 OA
ATOM      7  O   UNL     1      -2.866   4.477  26.532  0.00  0.00    -0.158 OA
ATOM     26  C   UNL     1      -0.937   5.290  24.974  0.00  0.00    +0.214 C 
ENDBRANCH  11   1
ENDBRANCH  17  11
ENDBRANCH  15  17
ENDBRANCH  16  12
TORSDOF 9
ENDMDL
MODEL 4
REMARK VINA RESULT:       1.7      2.024      4.384
REMARK  Name = 40780675
REMARK  11 active torsions:
REMARK  status: ('A' for Active; 'I' for Inactive)
REMARK    1  A    between atoms: S_1  and  N_11
REMARK    2  A    between atoms: S_1  and  C_26
REMARK    3  A    between atoms: O_3  and  C_13
REMARK    4  A    between atoms: O_4  and  C_14
REMARK    5  A    between atoms: O_8  and  C_24
REMARK    6  A    between atoms: O_8  and  C_30
REMARK    7  A    between atoms: N_10  and  C_23
REMARK    8  A    between atoms: N_11  and  C_17
REMARK    9  A    between atoms: C_12  and  C_16
REMARK   10  A    between atoms: C_15  and  C_17
REMARK   11  A    between atoms: C_16  and  C_18
REMARK                            x       y       z     vdW  Elec       q    Type
REMARK                         _______ _______ _______ _____ _____    ______ ____
ROOT
ATOM     16  C   UNL     1      -3.341   5.040  25.337  0.00  0.00    +0.130 C 
ENDROOT
BRANCH  16  18
ATOM      5  O   UNL     1      -3.260   3.403  27.050  0.00  0.00    -0.276 OA
ATOM      9  N   UNL     1      -1.359   3.624  25.735  0.00  0.00    -0.298 N 
ATOM     10  N   UNL     1       0.590   2.115  24.361  0.00  0.00    -0.324 N 
ATOM     18  C   UNL     1      -2.656   3.950  26.123  0.00  0.00    +0.218 C 
ATOM     19  C   UNL     1      -0.609   4.247  24.642  0.00  0.00    +0.126 C 
ATOM     20  C   UNL     1      -0.611   2.596  26.455  0.00  0.00    +0.126 C 
ATOM     21  C   UNL     1      -0.119   3.191  23.653  0.00  0.00    +0.124 C 
ATOM     22  C   UNL     1      -0.124   1.512  25.497  0.00  0.00    +0.124 C 
BRANCH  10  23
ATOM     23  C   UNL     1       1.501   1.312  23.664  0.00  0.00    +0.072 A 
ATOM     24  C   UNL     1       1.171   0.003  23.316  0.00  0.00    +0.141 A 
ATOM     25  C   UNL     1       2.746   1.835  23.315  0.00  0.00    +0.027 A 
ATOM     27  C   UNL     1       2.087  -0.786  22.620  0.00  0.00    +0.047 A 
ATOM     28  C   UNL     1       3.662   1.047  22.618  0.00  0.00    +0.002 A 
ATOM     29  C   UNL     1       3.334  -0.263  22.271  0.00  0.00    +0.004 A 
BRANCH  24   8
ATOM      8  O   UNL     1      -0.040  -0.526  23.648  0.00  0.00    -0.493 OA
ATOM     30  C   UNL     1      -0.044  -1.588  24.600  0.00  0.00    +0.277 C 
ENDBRANCH  24   8
ENDBRANCH  10  23
ENDBRANCH  16  18
BRANCH  16  12
ATOM      2  O   UNL     1      -4.945   3.310  24.901  0.00  0.00    -0.366 OA
ATOM     12  C   UNL     1      -4.256   4.424  24.287  0.00  0.00    +0.158 C 
ATOM     13  C   UNL     1      -3.497   3.854  23.094  0.00  0.00    +0.175 C 
ATOM     14  C   UNL     1      -3.233   2.430  23.538  0.00  0.00    +0.175 C 
ATOM     15  C   UNL     1      -4.528   2.092  24.258  0.00  0.00    +0.165 C 
BRANCH  13   3
ATOM      3  O   UNL     1      -4.370   3.869  21.965  0.00  0.00    -0.387 OA
ATOM     31  H   UNL     1      -4.401   4.783  21.634  0.00  0.00    +0.210 HD
ENDBRANCH  13   3
BRANCH  14   4
ATOM      4  O   UNL     1      -2.978   1.549  22.465  0.00  0.00    -0.387 OA
ATOM     32  H   UNL     1      -2.411   0.834  22.803  0.00  0.00    +0.210 HD
ENDBRANCH  14   4
BRANCH  15  17
ATOM     17  C   UNL     1      -4.371   0.996  25.296  0.00  0.00    +0.139 C 
BRANCH  17  11
ATOM     11  N   UNL     1      -4.955  -0.232  24.845  0.00  0.00    -0.192 NA
ATOM     33  H   UNL     1      -5.800  -0.515  25.359  0.00  0.00    +0.148 HD
BRANCH  11   1
ATOM      1  S   UNL     1      -3.953  -1.525  24.289  0.00  0.00    +0.027 S 
ATOM      6  O   UNL     1      -2.879  -0.977  23.485  0.00  0.00    -0.158 OA
ATOM      7  O   UNL     1      -4.782  -2.603  23.784  0.00  0.00    -0.158 OA
ATOM     26  C   UNL     1      -3.259  -2.067  25.834  0.00  0.00    +0.214 C 
ENDBRANCH  11   1
ENDBRANCH  17  11
ENDBRANCH  15  17
ENDBRANCH  16  12
TORSDOF 9
ENDMDL
MODEL 5
REMARK VINA RESULT:       2.8      1.977      3.583
REMARK  Name = 40780675
REMARK  11 active torsions:
REMARK  status: ('A' for Active; 'I' for Inactive)
REMARK    1  A    between atoms: S_1  and  N_11
REMARK    2  A    between atoms: S_1  and  C_26
REMARK    3  A    between atoms: O_3  and  C_13
REMARK    4  A    between atoms: O_4  and  C_14
REMARK    5  A    between atoms: O_8  and  C_24
REMARK    6  A    between atoms: O_8  and  C_30
REMARK    7  A    between atoms: N_10  and  C_23
REMARK    8  A    between atoms: N_11  and  C_17
REMARK    9  A    between atoms: C_12  and  C_16
REMARK   10  A    between atoms: C_15  and  C_17
REMARK   11  A    between atoms: C_16  and  C_18
REMARK                            x       y       z     vdW  Elec       q    Type
REMARK                         _______ _______ _______ _____ _____    ______ ____
ROOT
ATOM     16  C   UNL     1      -2.456   3.170  23.816  0.00  0.00    +0.130 C 
ENDROOT
BRANCH  16  18
ATOM      5  O   UNL     1      -2.794   1.656  22.024  0.00  0.00    -0.276 OA
ATOM      9  N   UNL     1      -1.063   1.160  23.490  0.00  0.00    -0.298 N 
ATOM     10  N   UNL     1       1.624   0.299  23.559  0.00  0.00    -0.324 N 
ATOM     18  C   UNL     1      -2.127   1.929  23.025  0.00  0.00    +0.218 C 
ATOM     19  C   UNL     1      -0.249   1.449  24.672  0.00  0.00    +0.126 C 
ATOM     20  C   UNL     1      -0.689  -0.072  22.800  0.00  0.00    +0.126 C 
ATOM     21  C   UNL     1       1.234   1.504  24.305  0.00  0.00    +0.124 C 
ATOM     22  C   UNL     1       0.785  -0.040  22.399  0.00  0.00    +0.124 C 
BRANCH  10  23
ATOM     23  C   UNL     1       2.968  -0.089  23.526  0.00  0.00    +0.072 A 
ATOM     24  C   UNL     1       3.965   0.833  23.210  0.00  0.00    +0.141 A 
ATOM     25  C   UNL     1       3.306  -1.412  23.815  0.00  0.00    +0.027 A 
ATOM     27  C   UNL     1       5.301   0.433  23.182  0.00  0.00    +0.047 A 
ATOM     28  C   UNL     1       4.642  -1.811  23.788  0.00  0.00    +0.002 A 
ATOM     29  C   UNL     1       5.640  -0.890  23.471  0.00  0.00    +0.004 A 
BRANCH  24   8
ATOM      8  O   UNL     1       3.655   2.129  22.924  0.00  0.00    -0.493 OA
ATOM     30  C   UNL     1       4.140   2.653  21.690  0.00  0.00    +0.277 C 
ENDBRANCH  24   8
ENDBRANCH  10  23
ENDBRANCH  16  18
BRANCH  16  12
ATOM      2  O   UNL     1      -3.277   1.347  25.142  0.00  0.00    -0.366 OA
ATOM     12  C   UNL     1      -3.135   2.786  25.124  0.00  0.00    +0.158 C 
ATOM     13  C   UNL     1      -4.542   3.358  25.256  0.00  0.00    +0.175 C 
ATOM     14  C   UNL     1      -5.387   2.268  24.627  0.00  0.00    +0.175 C 
ATOM     15  C   UNL     1      -4.677   1.015  25.115  0.00  0.00    +0.165 C 
BRANCH  13   3
ATOM      3  O   UNL     1      -4.843   3.479  26.646  0.00  0.00    -0.387 OA
ATOM     31  H   UNL     1      -4.139   3.021  27.136  0.00  0.00    +0.210 HD
ENDBRANCH  13   3
BRANCH  14   4
ATOM      4  O   UNL     1      -6.738   2.303  25.034  0.00  0.00    -0.387 OA
ATOM     32  H   UNL     1      -6.776   1.977  25.949  0.00  0.00    +0.210 HD
ENDBRANCH  14   4
BRANCH  15  17
ATOM     17  C   UNL     1      -4.900  -0.189  24.218  0.00  0.00    +0.139 C 
BRANCH  17  11
ATOM     11  N   UNL     1      -3.677  -0.901  23.994  0.00  0.00    -0.192 NA
ATOM     33  H   UNL     1      -3.426  -1.013  23.002  0.00  0.00    +0.148 HD
BRANCH  11   1
ATOM      1  S   UNL     1      -3.222  -2.206  25.031  0.00  0.00    +0.027 S 
ATOM      6  O   UNL     1      -3.779  -3.439  24.510  0.00  0.00    -0.158 OA
ATOM      7  O   UNL     1      -3.429  -1.824  26.415  0.00  0.00    -0.158 OA
ATOM     26  C   UNL     1      -1.467  -2.234  24.744  0.00  0.00    +0.214 C 
ENDBRANCH  11   1
ENDBRANCH  17  11
ENDBRANCH  15  17
ENDBRANCH  16  12
TORSDOF 9
ENDMDL
MODEL 6
REMARK VINA RESULT:       2.8      2.750      7.065
REMARK  Name = 40780675
REMARK  11 active torsions:
REMARK  status: ('A' for Active; 'I' for Inactive)
REMARK    1  A    between atoms: S_1  and  N_11
REMARK    2  A    between atoms: S_1  and  C_26
REMARK    3  A    between atoms: O_3  and  C_13
REMARK    4  A    between atoms: O_4  and  C_14
REMARK    5  A    between atoms: O_8  and  C_24
REMARK    6  A    between atoms: O_8  and  C_30
REMARK    7  A    between atoms: N_10  and  C_23
REMARK    8  A    between atoms: N_11  and  C_17
REMARK    9  A    between atoms: C_12  and  C_16
REMARK   10  A    between atoms: C_15  and  C_17
REMARK   11  A    between atoms: C_16  and  C_18
REMARK                            x       y       z     vdW  Elec       q    Type
REMARK                         _______ _______ _______ _____ _____    ______ ____
ROOT
ATOM     16  C   UNL     1      -0.245  -1.997  23.196  0.00  0.00    +0.130 C 
ENDROOT
BRANCH  16  18
ATOM      5  O   UNL     1      -0.232  -2.256  25.553  0.00  0.00    -0.276 OA
ATOM      9  N   UNL     1      -2.091  -1.212  24.633  0.00  0.00    -0.298 N 
ATOM     10  N   UNL     1      -3.825   0.985  25.000  0.00  0.00    -0.324 N 
ATOM     18  C   UNL     1      -0.849  -1.838  24.569  0.00  0.00    +0.218 C 
ATOM     19  C   UNL     1      -2.855  -0.704  23.492  0.00  0.00    +0.126 C 
ATOM     20  C   UNL     1      -2.762  -1.037  25.920  0.00  0.00    +0.126 C 
ATOM     21  C   UNL     1      -3.199   0.773  23.687  0.00  0.00    +0.124 C 
ATOM     22  C   UNL     1      -3.101   0.433  26.156  0.00  0.00    +0.124 C 
BRANCH  10  23
ATOM     23  C   UNL     1      -4.623   2.115  25.211  0.00  0.00    +0.072 A 
ATOM     24  C   UNL     1      -4.095   3.395  25.053  0.00  0.00    +0.141 A 
ATOM     25  C   UNL     1      -5.959   1.950  25.579  0.00  0.00    +0.027 A 
ATOM     27  C   UNL     1      -4.903   4.513  25.264  0.00  0.00    +0.047 A 
ATOM     28  C   UNL     1      -6.766   3.068  25.789  0.00  0.00    +0.002 A 
ATOM     29  C   UNL     1      -6.239   4.350  25.633  0.00  0.00    +0.004 A 
BRANCH  24   8
ATOM      8  O   UNL     1      -2.794   3.577  24.694  0.00  0.00    -0.493 OA
ATOM     30  C   UNL     1      -2.046   4.540  25.434  0.00  0.00    +0.277 C 
ENDBRANCH  24   8
ENDBRANCH  10  23
ENDBRANCH  16  18
BRANCH  16  12
ATOM      2  O   UNL     1       0.954  -0.664  21.603  0.00  0.00    -0.366 OA
ATOM     12  C   UNL     1      -0.181  -0.645  22.499  0.00  0.00    +0.158 C 
ATOM     13  C   UNL     1       0.053   0.513  23.464  0.00  0.00    +0.175 C 
ATOM     14  C   UNL     1       1.566   0.588  23.506  0.00  0.00    +0.175 C 
ATOM     15  C   UNL     1       1.925   0.295  22.058  0.00  0.00    +0.165 C 
BRANCH  13   3
ATOM      3  O   UNL     1      -0.486   1.695  22.875  0.00  0.00    -0.387 OA
ATOM     31  H   UNL     1      -0.029   2.454  23.275  0.00  0.00    +0.210 HD
ENDBRANCH  13   3
BRANCH  14   4
ATOM      4  O   UNL     1       2.051   1.844  23.929  0.00  0.00    -0.387 OA
ATOM     32  H   UNL     1       2.978   1.723  24.196  0.00  0.00    +0.210 HD
ENDBRANCH  14   4
BRANCH  15  17
ATOM     17  C   UNL     1       3.322  -0.272  21.888  0.00  0.00    +0.139 C 
BRANCH  17  11
ATOM     11  N   UNL     1       4.304   0.580  22.490  0.00  0.00    -0.192 NA
ATOM     33  H   UNL     1       4.684   1.301  21.862  0.00  0.00    +0.148 HD
BRANCH  11   1
ATOM      1  S   UNL     1       5.411  -0.050  23.657  0.00  0.00    +0.027 S 
ATOM      6  O   UNL     1       5.297   0.720  24.880  0.00  0.00    -0.158 OA
ATOM      7  O   UNL     1       6.704  -0.268  23.036  0.00  0.00    -0.158 OA
ATOM     26  C   UNL     1       4.684  -1.647  23.945  0.00  0.00    +0.214 C 
ENDBRANCH  11   1
ENDBRANCH  17  11
ENDBRANCH  15  17
ENDBRANCH  16  12
TORSDOF 9
ENDMDL
MODEL 7
REMARK VINA RESULT:       3.9      2.024      6.459
REMARK  Name = 40780675
REMARK  11 active torsions:
REMARK  status: ('A' for Active; 'I' for Inactive)
REMARK    1  A    between atoms: S_1  and  N_11
REMARK    2  A    between atoms: S_1  and  C_26
REMARK    3  A    between atoms: O_3  and  C_13
REMARK    4  A    between atoms: O_4  and  C_14
REMARK    5  A    between atoms: O_8  and  C_24
REMARK    6  A    between atoms: O_8  and  C_30
REMARK    7  A    between atoms: N_10  and  C_23
REMARK    8  A    between atoms: N_11  and  C_17
REMARK    9  A    between atoms: C_12  and  C_16
REMARK   10  A    between atoms: C_15  and  C_17
REMARK   11  A    between atoms: C_16  and  C_18
REMARK                            x       y       z     vdW  Elec       q    Type
REMARK                         _______ _______ _______ _____ _____    ______ ____
ROOT
ATOM     16  C   UNL     1      -0.869  -2.107  23.203  0.00  0.00    +0.130 C 
ENDROOT
BRANCH  16  18
ATOM      5  O   UNL     1      -1.866  -2.920  25.195  0.00  0.00    -0.276 OA
ATOM      9  N   UNL     1      -2.989  -1.211  24.094  0.00  0.00    -0.298 N 
ATOM     10  N   UNL     1      -4.340   1.225  24.549  0.00  0.00    -0.324 N 
ATOM     18  C   UNL     1      -1.949  -2.123  24.256  0.00  0.00    +0.218 C 
ATOM     19  C   UNL     1      -3.123  -0.251  22.997  0.00  0.00    +0.126 C 
ATOM     20  C   UNL     1      -4.090  -1.172  25.054  0.00  0.00    +0.126 C 
ATOM     21  C   UNL     1      -3.273   1.170  23.539  0.00  0.00    +0.124 C 
ATOM     22  C   UNL     1      -4.253   0.232  25.632  0.00  0.00    +0.124 C 
BRANCH  10  23
ATOM     23  C   UNL     1      -4.960   2.446  24.835  0.00  0.00    +0.072 A 
ATOM     24  C   UNL     1      -6.052   2.503  25.699  0.00  0.00    +0.141 A 
ATOM     25  C   UNL     1      -4.472   3.615  24.249  0.00  0.00    +0.027 A 
ATOM     27  C   UNL     1      -6.660   3.727  25.977  0.00  0.00    +0.047 A 
ATOM     28  C   UNL     1      -5.079   4.840  24.526  0.00  0.00    +0.002 A 
ATOM     29  C   UNL     1      -6.173   4.897  25.390  0.00  0.00    +0.004 A 
BRANCH  24   8
ATOM      8  O   UNL     1      -6.543   1.373  26.281  0.00  0.00    -0.493 OA
ATOM     30  C   UNL     1      -6.917   1.463  27.655  0.00  0.00    +0.277 C 
ENDBRANCH  24   8
ENDBRANCH  10  23
ENDBRANCH  16  18
BRANCH  16  12
ATOM      2  O   UNL     1       0.081  -0.910  25.052  0.00  0.00    -0.366 OA
ATOM     12  C   UNL     1       0.410  -1.520  23.782  0.00  0.00    +0.158 C 
ATOM     13  C   UNL     1       1.004  -0.413  22.917  0.00  0.00    +0.175 C 
ATOM     14  C   UNL     1       0.320   0.821  23.468  0.00  0.00    +0.175 C 
ATOM     15  C   UNL     1       0.287   0.511  24.956  0.00  0.00    +0.165 C 
BRANCH  13   3
ATOM      3  O   UNL     1       2.407  -0.358  23.170  0.00  0.00    -0.387 OA
ATOM     31  H   UNL     1       2.607  -1.026  23.848  0.00  0.00    +0.210 HD
ENDBRANCH  13   3
BRANCH  14   4
ATOM      4  O   UNL     1       1.017   2.017  23.191  0.00  0.00    -0.387 OA
ATOM     32  H   UNL     1       1.468   1.900  22.338  0.00  0.00    +0.210 HD
ENDBRANCH  14   4
BRANCH  15  17
ATOM     17  C   UNL     1      -0.820   1.239  25.697  0.00  0.00    +0.139 C 
BRANCH  17  11
ATOM     11  N   UNL     1      -0.426   2.575  26.033  0.00  0.00    -0.192 NA
ATOM     33  H   UNL     1      -0.263   2.730  27.037  0.00  0.00    +0.148 HD
BRANCH  11   1
ATOM      1  S   UNL     1      -1.074   3.921  25.166  0.00  0.00    +0.027 S 
ATOM      6  O   UNL     1      -1.639   3.451  23.917  0.00  0.00    -0.158 OA
ATOM      7  O   UNL     1      -0.124   5.017  25.185  0.00  0.00    -0.158 OA
ATOM     26  C   UNL     1      -2.419   4.366  26.242  0.00  0.00    +0.214 C 
ENDBRANCH  11   1
ENDBRANCH  17  11
ENDBRANCH  15  17
ENDBRANCH  16  12
TORSDOF 9
ENDMDL
MODEL 8
REMARK VINA RESULT:       4.0      1.853      6.447
REMARK  Name = 40780675
REMARK  11 active torsions:
REMARK  status: ('A' for Active; 'I' for Inactive)
REMARK    1  A    between atoms: S_1  and  N_11
REMARK    2  A    between atoms: S_1  and  C_26
REMARK    3  A    between atoms: O_3  and  C_13
REMARK    4  A    between atoms: O_4  and  C_14
REMARK    5  A    between atoms: O_8  and  C_24
REMARK    6  A    between atoms: O_8  and  C_30
REMARK    7  A    between atoms: N_10  and  C_23
REMARK    8  A    between atoms: N_11  and  C_17
REMARK    9  A    between atoms: C_12  and  C_16
REMARK   10  A    between atoms: C_15  and  C_17
REMARK   11  A    between atoms: C_16  and  C_18
REMARK                            x       y       z     vdW  Elec       q    Type
REMARK                         _______ _______ _______ _____ _____    ______ ____
ROOT
ATOM     16  C   UNL     1      -0.286  -2.035  23.317  0.00  0.00    +0.130 C 
ENDROOT
BRANCH  16  18
ATOM      5  O   UNL     1      -1.195  -3.135  25.210  0.00  0.00    -0.276 OA
ATOM      9  N   UNL     1      -2.512  -1.491  24.233  0.00  0.00    -0.298 N 
ATOM     10  N   UNL     1      -4.164   0.709  24.861  0.00  0.00    -0.324 N 
ATOM     18  C   UNL     1      -1.367  -2.276  24.340  0.00  0.00    +0.218 C 
ATOM     19  C   UNL     1      -2.754  -0.464  23.218  0.00  0.00    +0.126 C 
ATOM     20  C   UNL     1      -3.620  -1.672  25.167  0.00  0.00    +0.126 C 
ATOM     21  C   UNL     1      -3.088   0.876  23.874  0.00  0.00    +0.124 C 
ATOM     22  C   UNL     1      -3.966  -0.355  25.858  0.00  0.00    +0.124 C 
BRANCH  10  23
ATOM     23  C   UNL     1      -4.937   1.815  25.234  0.00  0.00    +0.072 A 
ATOM     24  C   UNL     1      -4.638   3.086  24.747  0.00  0.00    +0.141 A 
ATOM     25  C   UNL     1      -6.016   1.635  26.100  0.00  0.00    +0.027 A 
ATOM     27  C   UNL     1      -5.417   4.180  25.126  0.00  0.00    +0.047 A 
ATOM     28  C   UNL     1      -6.796   2.728  26.479  0.00  0.00    +0.002 A 
ATOM     29  C   UNL     1      -6.497   4.000  25.993  0.00  0.00    +0.004 A 
BRANCH  24   8
ATOM      8  O   UNL     1      -3.588   3.283  23.901  0.00  0.00    -0.493 OA
ATOM     30  C   UNL     1      -3.887   3.816  22.612  0.00  0.00    +0.277 C 
ENDBRANCH  24   8
ENDBRANCH  10  23
ENDBRANCH  16  18
BRANCH  16  12
ATOM      2  O   UNL     1       0.549  -0.102  24.466  0.00  0.00    -0.366 OA
ATOM     12  C   UNL     1       0.931  -1.413  23.986  0.00  0.00    +0.158 C 
ATOM     13  C   UNL     1       2.095  -1.195  23.025  0.00  0.00    +0.175 C 
ATOM     14  C   UNL     1       1.812   0.197  22.497  0.00  0.00    +0.175 C 
ATOM     15  C   UNL     1       1.293   0.895  23.743  0.00  0.00    +0.165 C 
BRANCH  13   3
ATOM      3  O   UNL     1       3.303  -1.202  23.784  0.00  0.00    -0.387 OA
ATOM     31  H   UNL     1       3.600  -0.280  23.868  0.00  0.00    +0.210 HD
ENDBRANCH  13   3
BRANCH  14   4
ATOM      4  O   UNL     1       2.954   0.836  21.969  0.00  0.00    -0.387 OA
ATOM     32  H   UNL     1       2.938   1.760  22.272  0.00  0.00    +0.210 HD
ENDBRANCH  14   4
BRANCH  15  17
ATOM     17  C   UNL     1       0.395   2.080  23.438  0.00  0.00    +0.139 C 
BRANCH  17  11
ATOM     11  N   UNL     1      -0.704   2.147  24.355  0.00  0.00    -0.192 NA
ATOM     33  H   UNL     1      -1.631   2.079  23.914  0.00  0.00    +0.148 HD
BRANCH  11   1
ATOM      1  S   UNL     1      -0.616   3.160  25.752  0.00  0.00    +0.027 S 
ATOM      6  O   UNL     1       0.645   2.925  26.427  0.00  0.00    -0.158 OA
ATOM      7  O   UNL     1      -1.870   3.099  26.479  0.00  0.00    -0.158 OA
ATOM     26  C   UNL     1      -0.531   4.756  24.974  0.00  0.00    +0.214 C 
ENDBRANCH  11   1
ENDBRANCH  17  11
ENDBRANCH  15  17
ENDBRANCH  16  12
TORSDOF 9
ENDMDL
