MODEL 1
REMARK VINA RESULT:       9.5      0.000      0.000
REMARK  Name = 7663774
REMARK  5 active torsions:
REMARK  status: ('A' for Active; 'I' for Inactive)
REMARK    1  A    between atoms: S_2  and  N_7
REMARK    2  A    between atoms: S_2  and  C_20
REMARK    3  A    between atoms: O_6  and  C_30
REMARK    4  A    between atoms: O_6  and  C_32
REMARK    5  A    between atoms: C_16  and  C_21
REMARK                            x       y       z     vdW  Elec       q    Type
REMARK                         _______ _______ _______ _____ _____    ______ ____
ROOT
ATOM      5  O   UNL     1      -2.223   4.219  29.048  0.00  0.00    -0.268 OA
ATOM      7  N   UNL     1      -4.632   2.437  25.105  0.00  0.00    -0.176 NA
ATOM      8  N   UNL     1      -2.301   3.770  26.751  0.00  0.00    -0.311 N 
ATOM      9  C   UNL     1      -4.055   4.856  25.228  0.00  0.00    +0.025 C 
ATOM     10  C   UNL     1      -2.433   3.270  24.290  0.00  0.00    +0.053 C 
ATOM     11  C   UNL     1      -3.010   4.676  24.140  0.00  0.00    +0.017 C 
ATOM     12  C   UNL     1      -5.180   3.822  25.082  0.00  0.00    +0.114 C 
ATOM     13  C   UNL     1      -3.556   2.233  24.091  0.00  0.00    +0.119 C 
ATOM     14  C   UNL     1      -3.363   4.773  26.589  0.00  0.00    +0.130 C 
ATOM     15  C   UNL     1      -1.754   3.082  25.649  0.00  0.00    +0.034 A 
ATOM     16  C   UNL     1      -0.676   2.273  25.825  0.00  0.00    +0.002 A 
ATOM     17  C   UNL     1      -1.794   3.631  28.054  0.00  0.00    +0.252 A 
ATOM     18  C   UNL     1      -0.128   2.103  27.158  0.00  0.00    +0.015 A 
ATOM     19  C   UNL     1      -0.641   2.718  28.223  0.00  0.00    +0.071 A 
ENDROOT
BRANCH  16  21
ATOM      1 CL   UNL     1       1.836  -0.668  21.261  0.00  0.00    -0.084 Cl
ATOM     21  C   UNL     1      -0.054   1.547  24.697  0.00  0.00    -0.016 A 
ATOM     24  C   UNL     1       1.134   2.013  24.144  0.00  0.00    +0.010 A 
ATOM     25  C   UNL     1      -0.663   0.400  24.195  0.00  0.00    +0.010 A 
ATOM     28  C   UNL     1       1.721   1.328  23.080  0.00  0.00    +0.020 A 
ATOM     29  C   UNL     1      -0.077  -0.286  23.131  0.00  0.00    +0.020 A 
ATOM     31  C   UNL     1       1.114   0.179  22.573  0.00  0.00    +0.041 A 
ENDBRANCH  16  21
BRANCH   7   2
ATOM      2  S   UNL     1      -5.789   1.183  25.219  0.00  0.00    +0.061 S 
ATOM      3  O   UNL     1      -6.669   1.243  24.072  0.00  0.00    -0.153 OA
ATOM      4  O   UNL     1      -6.322   1.155  26.565  0.00  0.00    -0.153 OA
BRANCH   2  20
ATOM     20  C   UNL     1      -4.741  -0.224  25.022  0.00  0.00    +0.106 A 
ATOM     22  C   UNL     1      -4.856  -1.001  23.881  0.00  0.00    +0.032 A 
ATOM     23  C   UNL     1      -3.820  -0.528  26.013  0.00  0.00    +0.032 A 
ATOM     26  C   UNL     1      -4.027  -2.113  23.725  0.00  0.00    +0.047 A 
ATOM     27  C   UNL     1      -2.992  -1.640  25.857  0.00  0.00    +0.047 A 
ATOM     30  C   UNL     1      -3.096  -2.432  24.714  0.00  0.00    +0.120 A 
BRANCH  30   6
ATOM      6  O   UNL     1      -2.287  -3.516  24.561  0.00  0.00    -0.495 OA
ATOM     32  C   UNL     1      -0.880  -3.293  24.642  0.00  0.00    +0.277 C 
ENDBRANCH  30   6
ENDBRANCH   2  20
ENDBRANCH   7   2
TORSDOF 4
ENDMDL
MODEL 2
REMARK VINA RESULT:      10.2      2.950      5.459
REMARK  Name = 7663774
REMARK  5 active torsions:
REMARK  status: ('A' for Active; 'I' for Inactive)
REMARK    1  A    between atoms: S_2  and  N_7
REMARK    2  A    between atoms: S_2  and  C_20
REMARK    3  A    between atoms: O_6  and  C_30
REMARK    4  A    between atoms: O_6  and  C_32
REMARK    5  A    between atoms: C_16  and  C_21
REMARK                            x       y       z     vdW  Elec       q    Type
REMARK                         _______ _______ _______ _____ _____    ______ ____
ROOT
ATOM      5  O   UNL     1      -1.471   3.470  22.038  0.00  0.00    -0.268 OA
ATOM      7  N   UNL     1      -2.104  -0.535  24.880  0.00  0.00    -0.176 NA
ATOM      8  N   UNL     1      -0.651   1.964  23.632  0.00  0.00    -0.311 N 
ATOM      9  C   UNL     1      -0.361  -0.528  23.102  0.00  0.00    +0.025 C 
ATOM     10  C   UNL     1       0.187   0.320  25.340  0.00  0.00    +0.053 C 
ATOM     11  C   UNL     1       0.732  -0.475  24.156  0.00  0.00    +0.017 C 
ATOM     12  C   UNL     1      -1.616  -1.221  23.651  0.00  0.00    +0.114 C 
ATOM     13  C   UNL     1      -1.042  -0.406  25.920  0.00  0.00    +0.119 C 
ATOM     14  C   UNL     1      -0.646   0.896  22.622  0.00  0.00    +0.130 C 
ATOM     15  C   UNL     1      -0.168   1.754  24.939  0.00  0.00    +0.034 A 
ATOM     16  C   UNL     1      -0.054   2.805  25.794  0.00  0.00    +0.002 A 
ATOM     17  C   UNL     1      -1.057   3.229  23.172  0.00  0.00    +0.252 A 
ATOM     18  C   UNL     1      -0.467   4.124  25.355  0.00  0.00    +0.015 A 
ATOM     19  C   UNL     1      -0.954   4.348  24.135  0.00  0.00    +0.071 A 
ENDROOT
BRANCH  16  21
ATOM      1 CL   UNL     1       2.048   2.128  31.355  0.00  0.00    -0.084 Cl
ATOM     21  C   UNL     1       0.466   2.638  27.169  0.00  0.00    -0.016 A 
ATOM     24  C   UNL     1       1.836   2.708  27.404  0.00  0.00    +0.010 A 
ATOM     25  C   UNL     1      -0.418   2.411  28.219  0.00  0.00    +0.010 A 
ATOM     28  C   UNL     1       2.327   2.551  28.700  0.00  0.00    +0.020 A 
ATOM     29  C   UNL     1       0.072   2.253  29.515  0.00  0.00    +0.020 A 
ATOM     31  C   UNL     1       1.444   2.322  29.756  0.00  0.00    +0.041 A 
ENDBRANCH  16  21
BRANCH   7   2
ATOM      2  S   UNL     1      -3.640  -1.032  25.447  0.00  0.00    +0.061 S 
ATOM      3  O   UNL     1      -3.509  -1.527  26.800  0.00  0.00    -0.153 OA
ATOM      4  O   UNL     1      -4.285  -1.827  24.423  0.00  0.00    -0.153 OA
BRANCH   2  20
ATOM     20  C   UNL     1      -4.463   0.528  25.520  0.00  0.00    +0.106 A 
ATOM     22  C   UNL     1      -5.691   0.618  26.153  0.00  0.00    +0.032 A 
ATOM     23  C   UNL     1      -3.865   1.637  24.942  0.00  0.00    +0.032 A 
ATOM     26  C   UNL     1      -6.341   1.852  26.211  0.00  0.00    +0.047 A 
ATOM     27  C   UNL     1      -4.515   2.870  24.999  0.00  0.00    +0.047 A 
ATOM     30  C   UNL     1      -5.752   2.978  25.634  0.00  0.00    +0.120 A 
BRANCH  30   6
ATOM      6  O   UNL     1      -6.386   4.181  25.691  0.00  0.00    -0.495 OA
ATOM     32  C   UNL     1      -5.672   5.315  25.200  0.00  0.00    +0.277 C 
ENDBRANCH  30   6
ENDBRANCH   2  20
ENDBRANCH   7   2
TORSDOF 4
ENDMDL
MODEL 3
REMARK VINA RESULT:      10.9      1.364      1.805
REMARK  Name = 7663774
REMARK  5 active torsions:
REMARK  status: ('A' for Active; 'I' for Inactive)
REMARK    1  A    between atoms: S_2  and  N_7
REMARK    2  A    between atoms: S_2  and  C_20
REMARK    3  A    between atoms: O_6  and  C_30
REMARK    4  A    between atoms: O_6  and  C_32
REMARK    5  A    between atoms: C_16  and  C_21
REMARK                            x       y       z     vdW  Elec       q    Type
REMARK                         _______ _______ _______ _____ _____    ______ ____
ROOT
ATOM      5  O   UNL     1      -2.949   5.041  27.149  0.00  0.00    -0.268 OA
ATOM      7  N   UNL     1      -4.360   1.287  24.244  0.00  0.00    -0.176 NA
ATOM      8  N   UNL     1      -2.683   3.776  25.196  0.00  0.00    -0.311 N 
ATOM      9  C   UNL     1      -4.532   3.632  23.425  0.00  0.00    +0.025 C 
ATOM     10  C   UNL     1      -2.438   2.390  23.113  0.00  0.00    +0.053 C 
ATOM     11  C   UNL     1      -3.385   3.392  22.458  0.00  0.00    +0.017 C 
ATOM     12  C   UNL     1      -5.287   2.326  23.714  0.00  0.00    +0.114 C 
ATOM     13  C   UNL     1      -3.184   1.063  23.353  0.00  0.00    +0.119 C 
ATOM     14  C   UNL     1      -3.973   4.273  24.697  0.00  0.00    +0.130 C 
ATOM     15  C   UNL     1      -1.860   2.933  24.422  0.00  0.00    +0.034 A 
ATOM     16  C   UNL     1      -0.613   2.618  24.861  0.00  0.00    +0.002 A 
ATOM     17  C   UNL     1      -2.278   4.290  26.440  0.00  0.00    +0.252 A 
ATOM     18  C   UNL     1      -0.163   3.127  26.142  0.00  0.00    +0.015 A 
ATOM     19  C   UNL     1      -0.928   3.902  26.909  0.00  0.00    +0.071 A 
ENDROOT
BRANCH  16  21
ATOM      1 CL   UNL     1       3.059  -0.876  21.682  0.00  0.00    -0.084 Cl
ATOM     21  C   UNL     1       0.294   1.754  24.075  0.00  0.00    -0.016 A 
ATOM     24  C   UNL     1      -0.123   0.485  23.686  0.00  0.00    +0.010 A 
ATOM     25  C   UNL     1       1.560   2.216  23.728  0.00  0.00    +0.010 A 
ATOM     28  C   UNL     1       0.732  -0.331  22.945  0.00  0.00    +0.020 A 
ATOM     29  C   UNL     1       2.416   1.402  22.987  0.00  0.00    +0.020 A 
ATOM     31  C   UNL     1       2.003   0.128  22.596  0.00  0.00    +0.041 A 
ENDBRANCH  16  21
BRANCH   7   2
ATOM      2  S   UNL     1      -5.104  -0.127  24.857  0.00  0.00    +0.061 S 
ATOM      3  O   UNL     1      -5.955  -0.696  23.835  0.00  0.00    -0.153 OA
ATOM      4  O   UNL     1      -5.616   0.148  26.183  0.00  0.00    -0.153 OA
BRANCH   2  20
ATOM     20  C   UNL     1      -3.691  -1.171  25.027  0.00  0.00    +0.106 A 
ATOM     22  C   UNL     1      -3.652  -2.375  24.344  0.00  0.00    +0.032 A 
ATOM     23  C   UNL     1      -2.645  -0.769  25.842  0.00  0.00    +0.032 A 
ATOM     26  C   UNL     1      -2.535  -3.200  24.478  0.00  0.00    +0.047 A 
ATOM     27  C   UNL     1      -1.529  -1.594  25.977  0.00  0.00    +0.047 A 
ATOM     30  C   UNL     1      -1.473  -2.810  25.295  0.00  0.00    +0.120 A 
BRANCH  30   6
ATOM      6  O   UNL     1      -0.383  -3.615  25.425  0.00  0.00    -0.495 OA
ATOM     32  C   UNL     1       0.888  -2.975  25.520  0.00  0.00    +0.277 C 
ENDBRANCH  30   6
ENDBRANCH   2  20
ENDBRANCH   7   2
TORSDOF 4
ENDMDL
MODEL 4
REMARK VINA RESULT:      13.3      3.062      5.548
REMARK  Name = 7663774
REMARK  5 active torsions:
REMARK  status: ('A' for Active; 'I' for Inactive)
REMARK    1  A    between atoms: S_2  and  N_7
REMARK    2  A    between atoms: S_2  and  C_20
REMARK    3  A    between atoms: O_6  and  C_30
REMARK    4  A    between atoms: O_6  and  C_32
REMARK    5  A    between atoms: C_16  and  C_21
REMARK                            x       y       z     vdW  Elec       q    Type
REMARK                         _______ _______ _______ _____ _____    ______ ____
ROOT
ATOM      5  O   UNL     1      -5.352   4.908  25.563  0.00  0.00    -0.268 OA
ATOM      7  N   UNL     1      -0.975   2.887  24.432  0.00  0.00    -0.176 NA
ATOM      8  N   UNL     1      -3.807   3.161  25.781  0.00  0.00    -0.311 N 
ATOM      9  C   UNL     1      -1.478   3.544  26.780  0.00  0.00    +0.025 C 
ATOM     10  C   UNL     1      -2.116   1.312  25.984  0.00  0.00    +0.053 C 
ATOM     11  C   UNL     1      -1.570   2.082  27.183  0.00  0.00    +0.017 C 
ATOM     12  C   UNL     1      -0.533   3.723  25.583  0.00  0.00    +0.114 C 
ATOM     13  C   UNL     1      -1.139   1.450  24.800  0.00  0.00    +0.119 C 
ATOM     14  C   UNL     1      -2.888   4.061  26.490  0.00  0.00    +0.130 C 
ATOM     15  C   UNL     1      -3.515   1.796  25.593  0.00  0.00    +0.034 A 
ATOM     16  C   UNL     1      -4.456   0.969  25.064  0.00  0.00    +0.002 A 
ATOM     17  C   UNL     1      -5.040   3.726  25.409  0.00  0.00    +0.252 A 
ATOM     18  C   UNL     1      -5.738   1.519  24.665  0.00  0.00    +0.015 A 
ATOM     19  C   UNL     1      -6.033   2.811  24.803  0.00  0.00    +0.071 A 
ENDROOT
BRANCH  16  21
ATOM      1 CL   UNL     1      -3.433  -4.871  24.265  0.00  0.00    -0.084 Cl
ATOM     21  C   UNL     1      -4.203  -0.475  24.867  0.00  0.00    -0.016 A 
ATOM     24  C   UNL     1      -3.535  -1.200  25.849  0.00  0.00    +0.010 A 
ATOM     25  C   UNL     1      -4.635  -1.099  23.701  0.00  0.00    +0.010 A 
ATOM     28  C   UNL     1      -3.296  -2.562  25.663  0.00  0.00    +0.020 A 
ATOM     29  C   UNL     1      -4.397  -2.460  23.514  0.00  0.00    +0.020 A 
ATOM     31  C   UNL     1      -3.727  -3.192  24.495  0.00  0.00    +0.041 A 
ENDBRANCH  16  21
BRANCH   7   2
ATOM      2  S   UNL     1      -0.176   3.185  22.949  0.00  0.00    +0.061 S 
ATOM      3  O   UNL     1       0.506   4.459  23.025  0.00  0.00    -0.153 OA
ATOM      4  O   UNL     1      -1.082   2.890  21.858  0.00  0.00    -0.153 OA
BRANCH   2  20
ATOM     20  C   UNL     1       1.048   1.914  22.995  0.00  0.00    +0.106 A 
ATOM     22  C   UNL     1       2.388   2.264  23.020  0.00  0.00    +0.032 A 
ATOM     23  C   UNL     1       0.647   0.587  23.006  0.00  0.00    +0.032 A 
ATOM     26  C   UNL     1       3.355   1.259  23.058  0.00  0.00    +0.047 A 
ATOM     27  C   UNL     1       1.615  -0.417  23.043  0.00  0.00    +0.047 A 
ATOM     30  C   UNL     1       2.968  -0.082  23.069  0.00  0.00    +0.120 A 
BRANCH  30   6
ATOM      6  O   UNL     1       3.912  -1.062  23.106  0.00  0.00    -0.495 OA
ATOM     32  C   UNL     1       5.110  -0.783  23.828  0.00  0.00    +0.277 C 
ENDBRANCH  30   6
ENDBRANCH   2  20
ENDBRANCH   7   2
TORSDOF 4
ENDMDL
