MODEL 1
REMARK VINA RESULT:      -3.1      0.000      0.000
REMARK  Name = 45783551
REMARK  8 active torsions:
REMARK  status: ('A' for Active; 'I' for Inactive)
REMARK    1  A    between atoms: O_2  and  C_19
REMARK    2  A    between atoms: O_2  and  C_20
REMARK    3  A    between atoms: O_3  and  C_21
REMARK    4  A    between atoms: O_3  and  C_22
REMARK    5  A    between atoms: N_4  and  C_13
REMARK    6  A    between atoms: C_8  and  C_12
REMARK    7  A    between atoms: C_14  and  C_15
REMARK    8  A    between atoms: C_20  and  C_21
REMARK                            x       y       z     vdW  Elec       q    Type
REMARK                         _______ _______ _______ _____ _____    ______ ____
ROOT
ATOM      1  O   UNL     1      16.698  -8.726  28.788  0.00  0.00    -0.336 OA
ATOM      5  N   UNL     1      15.134  -7.137  28.576  0.00  0.00    -0.190 NA
ATOM      6  N   UNL     1      15.710  -9.024  29.735  0.00  0.00    -0.056 NA
ATOM     12  C   UNL     1      16.281  -7.601  28.149  0.00  0.00    +0.245 A 
ATOM     14  C   UNL     1      14.822  -8.042  29.548  0.00  0.00    +0.204 A 
ENDROOT
BRANCH  12   8
ATOM      4  N   UNL     1      16.698  -7.384  25.706  0.00  0.00    -0.294 NA
ATOM      8  C   UNL     1      17.189  -7.067  27.062  0.00  0.00    +0.146 C 
ATOM      9  C   UNL     1      17.307  -5.532  27.086  0.00  0.00    +0.030 C 
ATOM     10  C   UNL     1      16.920  -5.081  25.685  0.00  0.00    +0.017 C 
ATOM     11  C   UNL     1      17.170  -6.309  24.834  0.00  0.00    +0.085 C 
ATOM     13  C   UNL     1      17.119  -8.697  25.235  0.00  0.00    +0.105 C 
ENDBRANCH  12   8
BRANCH  14  15
ATOM      7  N   UNL     1      11.831  -6.552  31.179  0.00  0.00    -0.221 NA
ATOM     15  C   UNL     1      13.615  -7.937  30.316  0.00  0.00    +0.041 A 
ATOM     16  C   UNL     1      13.058  -9.051  30.932  0.00  0.00    +0.018 A 
ATOM     17  C   UNL     1      12.969  -6.721  30.468  0.00  0.00    +0.126 A 
ATOM     18  C   UNL     1      11.888  -8.919  31.670  0.00  0.00    +0.068 A 
ATOM     19  C   UNL     1      11.319  -7.658  31.763  0.00  0.00    +0.215 A 
BRANCH  19   2
ATOM      2  O   UNL     1      10.165  -7.501  32.486  0.00  0.00    -0.474 OA
BRANCH   2  20
ATOM     20  C   UNL     1       9.357  -8.658  32.661  0.00  0.00    +0.258 C 
BRANCH  20  21
ATOM     21  C   UNL     1       8.162  -8.574  31.731  0.00  0.00    +0.200 C 
BRANCH  21   3
ATOM      3  O   UNL     1       6.980  -8.864  32.467  0.00  0.00    -0.380 OA
ATOM     22  C   UNL     1       6.088  -7.759  32.477  0.00  0.00    +0.194 C 
ENDBRANCH  21   3
ENDBRANCH  20  21
ENDBRANCH   2  20
ENDBRANCH  19   2
ENDBRANCH  14  15
TORSDOF 6
ENDMDL
MODEL 2
REMARK VINA RESULT:      -2.8     14.804     18.882
REMARK  Name = 45783551
REMARK  8 active torsions:
REMARK  status: ('A' for Active; 'I' for Inactive)
REMARK    1  A    between atoms: O_2  and  C_19
REMARK    2  A    between atoms: O_2  and  C_20
REMARK    3  A    between atoms: O_3  and  C_21
REMARK    4  A    between atoms: O_3  and  C_22
REMARK    5  A    between atoms: N_4  and  C_13
REMARK    6  A    between atoms: C_8  and  C_12
REMARK    7  A    between atoms: C_14  and  C_15
REMARK    8  A    between atoms: C_20  and  C_21
REMARK                            x       y       z     vdW  Elec       q    Type
REMARK                         _______ _______ _______ _____ _____    ______ ____
ROOT
ATOM      1  O   UNL     1      -2.961  -0.421  24.937  0.00  0.00    -0.336 OA
ATOM      5  N   UNL     1      -1.810   1.488  24.717  0.00  0.00    -0.190 NA
ATOM      6  N   UNL     1      -1.737  -0.769  24.350  0.00  0.00    -0.056 NA
ATOM     12  C   UNL     1      -2.921   0.925  25.119  0.00  0.00    +0.245 A 
ATOM     14  C   UNL     1      -1.114   0.410  24.253  0.00  0.00    +0.204 A 
ENDROOT
BRANCH  12   8
ATOM      4  N   UNL     1      -4.303   2.977  25.382  0.00  0.00    -0.294 NA
ATOM      8  C   UNL     1      -4.145   1.556  25.749  0.00  0.00    +0.146 C 
ATOM      9  C   UNL     1      -5.457   0.887  25.299  0.00  0.00    +0.030 C 
ATOM     10  C   UNL     1      -6.312   2.019  24.748  0.00  0.00    +0.017 C 
ATOM     11  C   UNL     1      -5.740   3.254  25.413  0.00  0.00    +0.085 C 
ATOM     13  C   UNL     1      -3.552   3.881  26.244  0.00  0.00    +0.105 C 
ENDBRANCH  12   8
BRANCH  14  15
ATOM      7  N   UNL     1       2.233   1.838  23.491  0.00  0.00    -0.221 NA
ATOM     15  C   UNL     1       0.201   0.545  23.697  0.00  0.00    +0.041 A 
ATOM     16  C   UNL     1       0.725  -0.428  22.854  0.00  0.00    +0.018 A 
ATOM     17  C   UNL     1       0.988   1.649  23.983  0.00  0.00    +0.126 A 
ATOM     18  C   UNL     1       2.002  -0.269  22.329  0.00  0.00    +0.068 A 
ATOM     19  C   UNL     1       2.710   0.872  22.675  0.00  0.00    +0.215 A 
BRANCH  19   2
ATOM      2  O   UNL     1       3.971   1.051  22.170  0.00  0.00    -0.474 OA
BRANCH   2  20
ATOM     20  C   UNL     1       4.945   0.076  22.521  0.00  0.00    +0.258 C 
BRANCH  20  21
ATOM     21  C   UNL     1       5.481   0.386  23.905  0.00  0.00    +0.200 C 
BRANCH  21   3
ATOM      3  O   UNL     1       5.519  -0.813  24.667  0.00  0.00    -0.380 OA
ATOM     22  C   UNL     1       4.779  -1.852  24.041  0.00  0.00    +0.194 C 
ENDBRANCH  21   3
ENDBRANCH  20  21
ENDBRANCH   2  20
ENDBRANCH  19   2
ENDBRANCH  14  15
TORSDOF 6
ENDMDL
MODEL 3
REMARK VINA RESULT:      -2.3     14.907     17.638
REMARK  Name = 45783551
REMARK  8 active torsions:
REMARK  status: ('A' for Active; 'I' for Inactive)
REMARK    1  A    between atoms: O_2  and  C_19
REMARK    2  A    between atoms: O_2  and  C_20
REMARK    3  A    between atoms: O_3  and  C_21
REMARK    4  A    between atoms: O_3  and  C_22
REMARK    5  A    between atoms: N_4  and  C_13
REMARK    6  A    between atoms: C_8  and  C_12
REMARK    7  A    between atoms: C_14  and  C_15
REMARK    8  A    between atoms: C_20  and  C_21
REMARK                            x       y       z     vdW  Elec       q    Type
REMARK                         _______ _______ _______ _____ _____    ______ ____
ROOT
ATOM      1  O   UNL     1       1.856   1.603  23.881  0.00  0.00    -0.336 OA
ATOM      5  N   UNL     1       0.604  -0.197  23.424  0.00  0.00    -0.190 NA
ATOM      6  N   UNL     1       0.552   1.924  24.280  0.00  0.00    -0.056 NA
ATOM     12  C   UNL     1       1.798   0.338  23.390  0.00  0.00    +0.245 A 
ATOM     14  C   UNL     1      -0.127   0.813  23.978  0.00  0.00    +0.204 A 
ENDROOT
BRANCH  12   8
ATOM      4  N   UNL     1       4.229   0.695  22.997  0.00  0.00    -0.294 NA
ATOM      8  C   UNL     1       3.101  -0.250  22.888  0.00  0.00    +0.146 C 
ATOM      9  C   UNL     1       3.545  -1.486  23.692  0.00  0.00    +0.030 C 
ATOM     10  C   UNL     1       4.957  -1.167  24.164  0.00  0.00    +0.017 C 
ATOM     11  C   UNL     1       5.432  -0.118  23.180  0.00  0.00    +0.085 C 
ATOM     13  C   UNL     1       4.342   1.592  21.854  0.00  0.00    +0.105 C 
ENDBRANCH  12   8
BRANCH  14  15
ATOM      7  N   UNL     1      -3.792   1.374  23.693  0.00  0.00    -0.221 NA
ATOM     15  C   UNL     1      -1.535   0.681  24.215  0.00  0.00    +0.041 A 
ATOM     16  C   UNL     1      -2.022  -0.222  25.153  0.00  0.00    +0.018 A 
ATOM     17  C   UNL     1      -2.453   1.449  23.517  0.00  0.00    +0.126 A 
ATOM     18  C   UNL     1      -3.392  -0.329  25.362  0.00  0.00    +0.068 A 
ATOM     19  C   UNL     1      -4.228   0.485  24.613  0.00  0.00    +0.215 A 
BRANCH  19   2
ATOM      2  O   UNL     1      -5.582   0.399  24.801  0.00  0.00    -0.474 OA
BRANCH   2  20
ATOM     20  C   UNL     1      -6.301   1.625  24.848  0.00  0.00    +0.258 C 
BRANCH  20  21
ATOM     21  C   UNL     1      -5.825   2.434  26.039  0.00  0.00    +0.200 C 
BRANCH  21   3
ATOM      3  O   UNL     1      -5.375   3.704  25.587  0.00  0.00    -0.380 OA
ATOM     22  C   UNL     1      -3.992   3.893  25.855  0.00  0.00    +0.194 C 
ENDBRANCH  21   3
ENDBRANCH  20  21
ENDBRANCH   2  20
ENDBRANCH  19   2
ENDBRANCH  14  15
TORSDOF 6
ENDMDL
MODEL 4
REMARK VINA RESULT:      -0.6     25.149     27.145
REMARK  Name = 45783551
REMARK  8 active torsions:
REMARK  status: ('A' for Active; 'I' for Inactive)
REMARK    1  A    between atoms: O_2  and  C_19
REMARK    2  A    between atoms: O_2  and  C_20
REMARK    3  A    between atoms: O_3  and  C_21
REMARK    4  A    between atoms: O_3  and  C_22
REMARK    5  A    between atoms: N_4  and  C_13
REMARK    6  A    between atoms: C_8  and  C_12
REMARK    7  A    between atoms: C_14  and  C_15
REMARK    8  A    between atoms: C_20  and  C_21
REMARK                            x       y       z     vdW  Elec       q    Type
REMARK                         _______ _______ _______ _____ _____    ______ ____
ROOT
ATOM      1  O   UNL     1      -3.127  -9.277  12.102  0.00  0.00    -0.336 OA
ATOM      5  N   UNL     1      -4.926 -10.586  12.356  0.00  0.00    -0.190 NA
ATOM      6  N   UNL     1      -3.999  -8.949  11.056  0.00  0.00    -0.056 NA
ATOM     12  C   UNL     1      -3.750 -10.248  12.820  0.00  0.00    +0.245 A 
ATOM     14  C   UNL     1      -5.036  -9.763  11.274  0.00  0.00    +0.204 A 
ENDROOT
BRANCH  12   8
ATOM      4  N   UNL     1      -1.819  -9.967  14.363  0.00  0.00    -0.294 NA
ATOM      8  C   UNL     1      -3.003 -10.781  14.024  0.00  0.00    +0.146 C 
ATOM      9  C   UNL     1      -3.858 -10.779  15.304  0.00  0.00    +0.030 C 
ATOM     10  C   UNL     1      -3.047  -9.991  16.324  0.00  0.00    +0.017 C 
ATOM     11  C   UNL     1      -1.627 -10.097  15.807  0.00  0.00    +0.085 C 
ATOM     13  C   UNL     1      -0.627 -10.347  13.615  0.00  0.00    +0.105 C 
ENDBRANCH  12   8
BRANCH  14  15
ATOM      7  N   UNL     1      -8.570 -10.165  10.190  0.00  0.00    -0.221 NA
ATOM     15  C   UNL     1      -6.196  -9.779  10.430  0.00  0.00    +0.041 A 
ATOM     16  C   UNL     1      -6.106  -9.445   9.084  0.00  0.00    +0.018 A 
ATOM     17  C   UNL     1      -7.440 -10.128  10.931  0.00  0.00    +0.126 A 
ATOM     18  C   UNL     1      -7.247  -9.470   8.290  0.00  0.00    +0.068 A 
ATOM     19  C   UNL     1      -8.444  -9.834   8.885  0.00  0.00    +0.215 A 
BRANCH  19   2
ATOM      2  O   UNL     1      -9.583  -9.866   8.124  0.00  0.00    -0.474 OA
BRANCH   2  20
ATOM     20  C   UNL     1     -10.575  -8.889   8.413  0.00  0.00    +0.258 C 
BRANCH  20  21
ATOM     21  C   UNL     1      -9.926  -7.719   9.126  0.00  0.00    +0.200 C 
BRANCH  21   3
ATOM      3  O   UNL     1     -10.003  -6.569   8.293  0.00  0.00    -0.380 OA
ATOM     22  C   UNL     1      -8.737  -5.937   8.160  0.00  0.00    +0.194 C 
ENDBRANCH  21   3
ENDBRANCH  20  21
ENDBRANCH   2  20
ENDBRANCH  19   2
ENDBRANCH  14  15
TORSDOF 6
ENDMDL
MODEL 5
REMARK VINA RESULT:       0.2     15.054     19.023
REMARK  Name = 45783551
REMARK  8 active torsions:
REMARK  status: ('A' for Active; 'I' for Inactive)
REMARK    1  A    between atoms: O_2  and  C_19
REMARK    2  A    between atoms: O_2  and  C_20
REMARK    3  A    between atoms: O_3  and  C_21
REMARK    4  A    between atoms: O_3  and  C_22
REMARK    5  A    between atoms: N_4  and  C_13
REMARK    6  A    between atoms: C_8  and  C_12
REMARK    7  A    between atoms: C_14  and  C_15
REMARK    8  A    between atoms: C_20  and  C_21
REMARK                            x       y       z     vdW  Elec       q    Type
REMARK                         _______ _______ _______ _____ _____    ______ ____
ROOT
ATOM      1  O   UNL     1      -2.194   2.737  25.515  0.00  0.00    -0.336 OA
ATOM      5  N   UNL     1      -1.939   1.582  23.613  0.00  0.00    -0.190 NA
ATOM      6  N   UNL     1      -0.821   2.484  25.394  0.00  0.00    -0.056 NA
ATOM     12  C   UNL     1      -2.778   2.173  24.426  0.00  0.00    +0.245 A 
ATOM     14  C   UNL     1      -0.751   1.799  24.248  0.00  0.00    +0.204 A 
ENDROOT
BRANCH  12   8
ATOM      4  N   UNL     1      -5.002   1.355  25.183  0.00  0.00    -0.294 NA
ATOM      8  C   UNL     1      -4.282   2.312  24.320  0.00  0.00    +0.146 C 
ATOM      9  C   UNL     1      -4.785   3.697  24.768  0.00  0.00    +0.030 C 
ATOM     10  C   UNL     1      -5.826   3.414  25.841  0.00  0.00    +0.017 C 
ATOM     11  C   UNL     1      -6.267   1.995  25.546  0.00  0.00    +0.085 C 
ATOM     13  C   UNL     1      -5.207   0.055  24.555  0.00  0.00    +0.105 C 
ENDBRANCH  12   8
BRANCH  14  15
ATOM      7  N   UNL     1       1.775  -0.526  22.821  0.00  0.00    -0.221 NA
ATOM     15  C   UNL     1       0.488   1.317  23.712  0.00  0.00    +0.041 A 
ATOM     16  C   UNL     1       1.580   2.163  23.558  0.00  0.00    +0.018 A 
ATOM     17  C   UNL     1       0.635  -0.008  23.331  0.00  0.00    +0.126 A 
ATOM     18  C   UNL     1       2.769   1.667  23.036  0.00  0.00    +0.068 A 
ATOM     19  C   UNL     1       2.815   0.327  22.686  0.00  0.00    +0.215 A 
BRANCH  19   2
ATOM      2  O   UNL     1       3.976  -0.186  22.169  0.00  0.00    -0.474 OA
BRANCH   2  20
ATOM     20  C   UNL     1       5.191   0.404  22.616  0.00  0.00    +0.258 C 
BRANCH  20  21
ATOM     21  C   UNL     1       5.224   0.385  24.131  0.00  0.00    +0.200 C 
BRANCH  21   3
ATOM      3  O   UNL     1       5.587  -0.917  24.571  0.00  0.00    -0.380 OA
ATOM     22  C   UNL     1       4.829  -1.921  23.910  0.00  0.00    +0.194 C 
ENDBRANCH  21   3
ENDBRANCH  20  21
ENDBRANCH   2  20
ENDBRANCH  19   2
ENDBRANCH  14  15
TORSDOF 6
ENDMDL
MODEL 6
REMARK VINA RESULT:       0.5     14.872     19.065
REMARK  Name = 45783551
REMARK  8 active torsions:
REMARK  status: ('A' for Active; 'I' for Inactive)
REMARK    1  A    between atoms: O_2  and  C_19
REMARK    2  A    between atoms: O_2  and  C_20
REMARK    3  A    between atoms: O_3  and  C_21
REMARK    4  A    between atoms: O_3  and  C_22
REMARK    5  A    between atoms: N_4  and  C_13
REMARK    6  A    between atoms: C_8  and  C_12
REMARK    7  A    between atoms: C_14  and  C_15
REMARK    8  A    between atoms: C_20  and  C_21
REMARK                            x       y       z     vdW  Elec       q    Type
REMARK                         _______ _______ _______ _____ _____    ______ ____
ROOT
ATOM      1  O   UNL     1      -4.272  -0.232  24.363  0.00  0.00    -0.336 OA
ATOM      5  N   UNL     1      -2.449   1.068  24.330  0.00  0.00    -0.190 NA
ATOM      6  N   UNL     1      -3.174  -1.102  24.349  0.00  0.00    -0.056 NA
ATOM     12  C   UNL     1      -3.757   1.025  24.351  0.00  0.00    +0.245 A 
ATOM     14  C   UNL     1      -2.136  -0.260  24.330  0.00  0.00    +0.204 A 
ENDROOT
BRANCH  12   8
ATOM      4  N   UNL     1      -5.225   2.491  25.724  0.00  0.00    -0.294 NA
ATOM      8  C   UNL     1      -4.756   2.163  24.363  0.00  0.00    +0.146 C 
ATOM      9  C   UNL     1      -4.164   3.479  23.825  0.00  0.00    +0.030 C 
ATOM     10  C   UNL     1      -4.401   4.502  24.928  0.00  0.00    +0.017 C 
ATOM     11  C   UNL     1      -5.555   3.916  25.715  0.00  0.00    +0.085 C 
ATOM     13  C   UNL     1      -6.348   1.671  26.159  0.00  0.00    +0.105 C 
ENDBRANCH  12   8
BRANCH  14  15
ATOM      7  N   UNL     1       1.457  -0.503  23.405  0.00  0.00    -0.221 NA
ATOM     15  C   UNL     1      -0.775  -0.713  24.308  0.00  0.00    +0.041 A 
ATOM     16  C   UNL     1      -0.355  -1.757  25.124  0.00  0.00    +0.018 A 
ATOM     17  C   UNL     1       0.161  -0.124  23.474  0.00  0.00    +0.126 A 
ATOM     18  C   UNL     1       0.970  -2.176  25.081  0.00  0.00    +0.068 A 
ATOM     19  C   UNL     1       1.829  -1.521  24.212  0.00  0.00    +0.215 A 
BRANCH  19   2
ATOM      2  O   UNL     1       3.141  -1.915  24.152  0.00  0.00    -0.474 OA
BRANCH   2  20
ATOM     20  C   UNL     1       3.983  -1.200  23.257  0.00  0.00    +0.258 C 
BRANCH  20  21
ATOM     21  C   UNL     1       5.115  -0.566  24.041  0.00  0.00    +0.200 C 
BRANCH  21   3
ATOM      3  O   UNL     1       5.171   0.822  23.735  0.00  0.00    -0.380 OA
ATOM     22  C   UNL     1       4.275   1.160  22.685  0.00  0.00    +0.194 C 
ENDBRANCH  21   3
ENDBRANCH  20  21
ENDBRANCH   2  20
ENDBRANCH  19   2
ENDBRANCH  14  15
TORSDOF 6
ENDMDL
