MODEL 1
REMARK VINA RESULT:      -6.0      0.000      0.000
REMARK  Name = 56775456
REMARK  9 active torsions:
REMARK  status: ('A' for Active; 'I' for Inactive)
REMARK    1  A    between atoms: N_4  and  C_6
REMARK    2  A    between atoms: N_4  and  C_11
REMARK    3  A    between atoms: C_6  and  C_9
REMARK    4  A    between atoms: C_9  and  C_10
REMARK    5  A    between atoms: C_11  and  C_15
REMARK    6  A    between atoms: C_12  and  C_14
REMARK    7  A    between atoms: C_12  and  C_16
REMARK    8  A    between atoms: C_12  and  C_17
REMARK    9  A    between atoms: C_12  and  C_18
REMARK                            x       y       z     vdW  Elec       q    Type
REMARK                         _______ _______ _______ _____ _____    ______ ____
ROOT
ATOM      2  O   UNL     1      -4.182  -3.657  24.104  0.00  0.00    -0.376 OA
ATOM      6  C   UNL     1      -2.900  -2.030  24.613  0.00  0.00    +0.072 C 
ATOM      7  C   UNL     1      -3.727  -2.472  23.412  0.00  0.00    +0.184 C 
ATOM      8  C   UNL     1      -3.497  -3.247  25.309  0.00  0.00    +0.184 C 
ENDROOT
BRANCH   6   4
ATOM      4  N   UNL     1      -3.498  -0.827  25.177  0.00  0.00    -0.302 NA
ATOM     24  H   UNL     1      -4.068  -0.978  26.009  0.00  0.00    +0.123 HD
BRANCH   4  11
ATOM     11  C   UNL     1      -4.286  -0.141  24.156  0.00  0.00    +0.118 C 
BRANCH  11  15
ATOM      1 CL   UNL     1      -2.779   1.975  22.486  0.00  0.00    -0.083 Cl
ATOM     15  C   UNL     1      -4.498   1.310  24.494  0.00  0.00    -0.015 A 
ATOM     19  C   UNL     1      -3.856   2.328  23.789  0.00  0.00    +0.045 A 
ATOM     20  C   UNL     1      -5.363   1.626  25.542  0.00  0.00    +0.006 A 
ATOM     21  C   UNL     1      -4.078   3.661  24.131  0.00  0.00    +0.020 A 
ATOM     22  C   UNL     1      -5.585   2.960  25.884  0.00  0.00    +0.000 A 
ATOM     23  C   UNL     1      -4.943   3.977  25.179  0.00  0.00    +0.001 A 
ENDBRANCH  11  15
ENDBRANCH   4  11
ENDBRANCH   6   4
BRANCH   6   9
ATOM      9  C   UNL     1      -1.375  -1.928  24.470  0.00  0.00    +0.085 C 
BRANCH   9  10
ATOM      3  O   UNL     1       0.114   1.293  24.070  0.00  0.00    -0.359 OA
ATOM      5  N   UNL     1      -0.112  -0.015  23.661  0.00  0.00    -0.083 NA
ATOM     10  C   UNL     1      -0.922  -0.533  24.589  0.00  0.00    +0.086 A 
ATOM     13  C   UNL     1      -1.236   0.393  25.599  0.00  0.00    +0.071 A 
ATOM     14  C   UNL     1      -0.561   1.524  25.225  0.00  0.00    +0.143 A 
BRANCH  14  12
ATOM     12  C   UNL     1      -0.425   2.931  25.829  0.00  0.00    +0.023 C 
ATOM     16  C   UNL     1      -1.706   3.437  26.531  0.00  0.00    +0.019 C 
ATOM     17  C   UNL     1       0.705   2.938  26.882  0.00  0.00    +0.019 C 
ATOM     18  C   UNL     1      -0.086   3.945  24.714  0.00  0.00    +0.019 C 
ENDBRANCH  14  12
ENDBRANCH   9  10
ENDBRANCH   6   9
TORSDOF 6
ENDMDL
MODEL 2
REMARK VINA RESULT:      -5.3      1.859      3.904
REMARK  Name = 56775456
REMARK  9 active torsions:
REMARK  status: ('A' for Active; 'I' for Inactive)
REMARK    1  A    between atoms: N_4  and  C_6
REMARK    2  A    between atoms: N_4  and  C_11
REMARK    3  A    between atoms: C_6  and  C_9
REMARK    4  A    between atoms: C_9  and  C_10
REMARK    5  A    between atoms: C_11  and  C_15
REMARK    6  A    between atoms: C_12  and  C_14
REMARK    7  A    between atoms: C_12  and  C_16
REMARK    8  A    between atoms: C_12  and  C_17
REMARK    9  A    between atoms: C_12  and  C_18
REMARK                            x       y       z     vdW  Elec       q    Type
REMARK                         _______ _______ _______ _____ _____    ______ ____
ROOT
ATOM      2  O   UNL     1      -2.577  -3.786  24.335  0.00  0.00    -0.376 OA
ATOM      6  C   UNL     1      -2.912  -1.688  24.532  0.00  0.00    +0.072 C 
ATOM      7  C   UNL     1      -3.597  -2.978  24.965  0.00  0.00    +0.184 C 
ATOM      8  C   UNL     1      -1.827  -2.603  23.977  0.00  0.00    +0.184 C 
ENDROOT
BRANCH   6   4
ATOM      4  N   UNL     1      -2.395  -1.012  25.714  0.00  0.00    -0.302 NA
ATOM     24  H   UNL     1      -2.851  -0.129  25.941  0.00  0.00    +0.123 HD
BRANCH   4  11
ATOM     11  C   UNL     1      -0.956  -0.803  25.575  0.00  0.00    +0.118 C 
BRANCH  11  15
ATOM      1 CL   UNL     1       0.491  -0.165  22.922  0.00  0.00    -0.083 Cl
ATOM     15  C   UNL     1      -0.625   0.634  25.276  0.00  0.00    -0.015 A 
ATOM     19  C   UNL     1       0.028   1.008  24.101  0.00  0.00    +0.045 A 
ATOM     20  C   UNL     1      -0.988   1.606  26.210  0.00  0.00    +0.006 A 
ATOM     21  C   UNL     1       0.317   2.350  23.860  0.00  0.00    +0.020 A 
ATOM     22  C   UNL     1      -0.697   2.948  25.969  0.00  0.00    +0.000 A 
ATOM     23  C   UNL     1      -0.045   3.321  24.794  0.00  0.00    +0.001 A 
ENDBRANCH  11  15
ENDBRANCH   4  11
ENDBRANCH   6   4
BRANCH   6   9
ATOM      9  C   UNL     1      -3.646  -0.739  23.575  0.00  0.00    +0.085 C 
BRANCH   9  10
ATOM      3  O   UNL     1      -5.090   1.755  25.683  0.00  0.00    -0.359 OA
ATOM      5  N   UNL     1      -4.929   0.438  25.270  0.00  0.00    -0.083 NA
ATOM     10  C   UNL     1      -4.056   0.496  24.261  0.00  0.00    +0.086 A 
ATOM     13  C   UNL     1      -3.635   1.811  23.995  0.00  0.00    +0.071 A 
ATOM     14  C   UNL     1      -4.314   2.563  24.916  0.00  0.00    +0.143 A 
BRANCH  14  12
ATOM     12  C   UNL     1      -4.366   4.066  25.233  0.00  0.00    +0.023 C 
ATOM     16  C   UNL     1      -3.556   4.469  26.487  0.00  0.00    +0.019 C 
ATOM     17  C   UNL     1      -3.794   4.869  24.044  0.00  0.00    +0.019 C 
ATOM     18  C   UNL     1      -5.829   4.496  25.478  0.00  0.00    +0.019 C 
ENDBRANCH  14  12
ENDBRANCH   9  10
ENDBRANCH   6   9
TORSDOF 6
ENDMDL
MODEL 3
REMARK VINA RESULT:      -4.9      1.622      4.915
REMARK  Name = 56775456
REMARK  9 active torsions:
REMARK  status: ('A' for Active; 'I' for Inactive)
REMARK    1  A    between atoms: N_4  and  C_6
REMARK    2  A    between atoms: N_4  and  C_11
REMARK    3  A    between atoms: C_6  and  C_9
REMARK    4  A    between atoms: C_9  and  C_10
REMARK    5  A    between atoms: C_11  and  C_15
REMARK    6  A    between atoms: C_12  and  C_14
REMARK    7  A    between atoms: C_12  and  C_16
REMARK    8  A    between atoms: C_12  and  C_17
REMARK    9  A    between atoms: C_12  and  C_18
REMARK                            x       y       z     vdW  Elec       q    Type
REMARK                         _______ _______ _______ _____ _____    ______ ____
ROOT
ATOM      2  O   UNL     1      -0.300   5.711  24.674  0.00  0.00    -0.376 OA
ATOM      6  C   UNL     1      -0.940   3.678  24.776  0.00  0.00    +0.072 C 
ATOM      7  C   UNL     1      -1.374   5.021  25.353  0.00  0.00    +0.184 C 
ATOM      8  C   UNL     1       0.106   4.488  24.019  0.00  0.00    +0.184 C 
ENDROOT
BRANCH   6   4
ATOM      4  N   UNL     1      -1.953   3.224  23.834  0.00  0.00    -0.302 NA
ATOM     24  H   UNL     1      -1.695   3.302  22.850  0.00  0.00    +0.123 HD
BRANCH   4  11
ATOM     11  C   UNL     1      -3.206   3.936  24.073  0.00  0.00    +0.118 C 
BRANCH  11  15
ATOM      1 CL   UNL     1      -3.559   1.120  22.856  0.00  0.00    -0.083 Cl
ATOM     15  C   UNL     1      -4.258   3.036  24.663  0.00  0.00    -0.015 A 
ATOM     19  C   UNL     1      -4.482   1.749  24.171  0.00  0.00    +0.045 A 
ATOM     20  C   UNL     1      -5.021   3.517  25.728  0.00  0.00    +0.006 A 
ATOM     21  C   UNL     1      -5.467   0.945  24.744  0.00  0.00    +0.020 A 
ATOM     22  C   UNL     1      -6.005   2.712  26.301  0.00  0.00    +0.000 A 
ATOM     23  C   UNL     1      -6.228   1.426  25.809  0.00  0.00    +0.001 A 
ENDBRANCH  11  15
ENDBRANCH   4  11
ENDBRANCH   6   4
BRANCH   6   9
ATOM      9  C   UNL     1      -0.475   2.572  25.733  0.00  0.00    +0.085 C 
BRANCH   9  10
ATOM      3  O   UNL     1      -0.810  -0.540  24.013  0.00  0.00    -0.359 OA
ATOM      5  N   UNL     1      -0.198   0.691  24.219  0.00  0.00    -0.083 NA
ATOM     10  C   UNL     1      -0.864   1.242  25.238  0.00  0.00    +0.086 A 
ATOM     13  C   UNL     1      -1.896   0.414  25.711  0.00  0.00    +0.071 A 
ATOM     14  C   UNL     1      -1.819  -0.693  24.908  0.00  0.00    +0.143 A 
BRANCH  14  12
ATOM     12  C   UNL     1      -2.614  -2.007  24.827  0.00  0.00    +0.023 C 
ATOM     16  C   UNL     1      -3.823  -1.948  23.866  0.00  0.00    +0.019 C 
ATOM     17  C   UNL     1      -1.692  -3.142  24.332  0.00  0.00    +0.019 C 
ATOM     18  C   UNL     1      -3.161  -2.369  26.225  0.00  0.00    +0.019 C 
ENDBRANCH  14  12
ENDBRANCH   9  10
ENDBRANCH   6   9
TORSDOF 6
ENDMDL
MODEL 4
REMARK VINA RESULT:      -4.9      2.100      5.069
REMARK  Name = 56775456
REMARK  9 active torsions:
REMARK  status: ('A' for Active; 'I' for Inactive)
REMARK    1  A    between atoms: N_4  and  C_6
REMARK    2  A    between atoms: N_4  and  C_11
REMARK    3  A    between atoms: C_6  and  C_9
REMARK    4  A    between atoms: C_9  and  C_10
REMARK    5  A    between atoms: C_11  and  C_15
REMARK    6  A    between atoms: C_12  and  C_14
REMARK    7  A    between atoms: C_12  and  C_16
REMARK    8  A    between atoms: C_12  and  C_17
REMARK    9  A    between atoms: C_12  and  C_18
REMARK                            x       y       z     vdW  Elec       q    Type
REMARK                         _______ _______ _______ _____ _____    ______ ____
ROOT
ATOM      2  O   UNL     1      -1.692   5.883  25.311  0.00  0.00    -0.376 OA
ATOM      6  C   UNL     1      -1.131   3.866  24.901  0.00  0.00    +0.072 C 
ATOM      7  C   UNL     1      -2.230   4.590  25.669  0.00  0.00    +0.184 C 
ATOM      8  C   UNL     1      -0.680   5.262  24.487  0.00  0.00    +0.184 C 
ENDROOT
BRANCH   6   4
ATOM      4  N   UNL     1      -1.724   3.203  23.747  0.00  0.00    -0.302 NA
ATOM     24  H   UNL     1      -1.421   3.561  22.841  0.00  0.00    +0.123 HD
BRANCH   4  11
ATOM     11  C   UNL     1      -3.180   3.260  23.839  0.00  0.00    +0.118 C 
BRANCH  11  15
ATOM      1 CL   UNL     1      -5.351   2.961  26.015  0.00  0.00    -0.083 Cl
ATOM     15  C   UNL     1      -3.781   1.897  24.058  0.00  0.00    -0.015 A 
ATOM     19  C   UNL     1      -4.766   1.676  25.021  0.00  0.00    +0.045 A 
ATOM     20  C   UNL     1      -3.329   0.839  23.269  0.00  0.00    +0.006 A 
ATOM     21  C   UNL     1      -5.298   0.399  25.195  0.00  0.00    +0.020 A 
ATOM     22  C   UNL     1      -3.861  -0.438  23.443  0.00  0.00    +0.000 A 
ATOM     23  C   UNL     1      -4.846  -0.658  24.406  0.00  0.00    +0.001 A 
ENDBRANCH  11  15
ENDBRANCH   4  11
ENDBRANCH   6   4
BRANCH   6   9
ATOM      9  C   UNL     1      -0.154   2.966  25.670  0.00  0.00    +0.085 C 
BRANCH   9  10
ATOM      3  O   UNL     1       0.054  -0.151  23.939  0.00  0.00    -0.359 OA
ATOM      5  N   UNL     1       0.324   1.207  24.063  0.00  0.00    -0.083 NA
ATOM     10  C   UNL     1      -0.246   1.570  25.215  0.00  0.00    +0.086 A 
ATOM     13  C   UNL     1      -0.884   0.494  25.857  0.00  0.00    +0.071 A 
ATOM     14  C   UNL     1      -0.666  -0.563  25.014  0.00  0.00    +0.143 A 
BRANCH  14  12
ATOM     12  C   UNL     1      -1.058  -2.050  25.048  0.00  0.00    +0.023 C 
ATOM     16  C   UNL     1      -1.357  -2.650  23.655  0.00  0.00    +0.019 C 
ATOM     17  C   UNL     1       0.092  -2.877  25.663  0.00  0.00    +0.019 C 
ATOM     18  C   UNL     1      -2.330  -2.232  25.905  0.00  0.00    +0.019 C 
ENDBRANCH  14  12
ENDBRANCH   9  10
ENDBRANCH   6   9
TORSDOF 6
ENDMDL
MODEL 5
REMARK VINA RESULT:      -4.7      2.566      4.889
REMARK  Name = 56775456
REMARK  9 active torsions:
REMARK  status: ('A' for Active; 'I' for Inactive)
REMARK    1  A    between atoms: N_4  and  C_6
REMARK    2  A    between atoms: N_4  and  C_11
REMARK    3  A    between atoms: C_6  and  C_9
REMARK    4  A    between atoms: C_9  and  C_10
REMARK    5  A    between atoms: C_11  and  C_15
REMARK    6  A    between atoms: C_12  and  C_14
REMARK    7  A    between atoms: C_12  and  C_16
REMARK    8  A    between atoms: C_12  and  C_17
REMARK    9  A    between atoms: C_12  and  C_18
REMARK                            x       y       z     vdW  Elec       q    Type
REMARK                         _______ _______ _______ _____ _____    ______ ____
ROOT
ATOM      2  O   UNL     1      -5.405   3.857  25.621  0.00  0.00    -0.376 OA
ATOM      6  C   UNL     1      -3.857   2.641  24.799  0.00  0.00    +0.072 C 
ATOM      7  C   UNL     1      -3.965   3.836  25.739  0.00  0.00    +0.184 C 
ATOM      8  C   UNL     1      -5.381   2.667  24.801  0.00  0.00    +0.184 C 
ENDROOT
BRANCH   6   4
ATOM      4  N   UNL     1      -3.407   1.484  25.561  0.00  0.00    -0.302 NA
ATOM     24  H   UNL     1      -2.471   1.153  25.331  0.00  0.00    +0.123 HD
BRANCH   4  11
ATOM     11  C   UNL     1      -4.367   0.392  25.415  0.00  0.00    +0.118 C 
BRANCH  11  15
ATOM      1 CL   UNL     1      -1.456  -0.174  26.277  0.00  0.00    -0.083 Cl
ATOM     15  C   UNL     1      -3.712  -0.866  24.913  0.00  0.00    -0.015 A 
ATOM     19  C   UNL     1      -2.400  -1.196  25.255  0.00  0.00    +0.045 A 
ATOM     20  C   UNL     1      -4.451  -1.713  24.086  0.00  0.00    +0.006 A 
ATOM     21  C   UNL     1      -1.828  -2.372  24.770  0.00  0.00    +0.020 A 
ATOM     22  C   UNL     1      -3.877  -2.888  23.601  0.00  0.00    +0.000 A 
ATOM     23  C   UNL     1      -2.566  -3.217  23.943  0.00  0.00    +0.001 A 
ENDBRANCH  11  15
ENDBRANCH   4  11
ENDBRANCH   6   4
BRANCH   6   9
ATOM      9  C   UNL     1      -3.112   2.805  23.467  0.00  0.00    +0.085 C 
BRANCH   9  10
ATOM      3  O   UNL     1       0.297   2.025  24.192  0.00  0.00    -0.359 OA
ATOM      5  N   UNL     1      -0.852   2.788  24.362  0.00  0.00    -0.083 NA
ATOM     10  C   UNL     1      -1.756   2.241  23.543  0.00  0.00    +0.086 A 
ATOM     13  C   UNL     1      -1.238   1.140  22.839  0.00  0.00    +0.071 A 
ATOM     14  C   UNL     1       0.053   1.047  23.283  0.00  0.00    +0.143 A 
BRANCH  14  12
ATOM     12  C   UNL     1       1.222   0.098  22.968  0.00  0.00    +0.023 C 
ATOM     16  C   UNL     1       1.183  -0.489  21.538  0.00  0.00    +0.019 C 
ATOM     17  C   UNL     1       2.560   0.855  23.115  0.00  0.00    +0.019 C 
ATOM     18  C   UNL     1       1.202  -1.094  23.950  0.00  0.00    +0.019 C 
ENDBRANCH  14  12
ENDBRANCH   9  10
ENDBRANCH   6   9
TORSDOF 6
ENDMDL
MODEL 6
REMARK VINA RESULT:      -4.7      1.687      4.622
REMARK  Name = 56775456
REMARK  9 active torsions:
REMARK  status: ('A' for Active; 'I' for Inactive)
REMARK    1  A    between atoms: N_4  and  C_6
REMARK    2  A    between atoms: N_4  and  C_11
REMARK    3  A    between atoms: C_6  and  C_9
REMARK    4  A    between atoms: C_9  and  C_10
REMARK    5  A    between atoms: C_11  and  C_15
REMARK    6  A    between atoms: C_12  and  C_14
REMARK    7  A    between atoms: C_12  and  C_16
REMARK    8  A    between atoms: C_12  and  C_17
REMARK    9  A    between atoms: C_12  and  C_18
REMARK                            x       y       z     vdW  Elec       q    Type
REMARK                         _______ _______ _______ _____ _____    ______ ____
ROOT
ATOM      2  O   UNL     1       0.492   2.230  27.767  0.00  0.00    -0.376 OA
ATOM      6  C   UNL     1       0.068   2.772  25.747  0.00  0.00    +0.072 C 
ATOM      7  C   UNL     1      -0.642   2.055  26.889  0.00  0.00    +0.184 C 
ATOM      8  C   UNL     1       1.185   3.002  26.759  0.00  0.00    +0.184 C 
ENDROOT
BRANCH   6   4
ATOM      4  N   UNL     1      -0.605   4.038  25.497  0.00  0.00    -0.302 NA
ATOM     24  H   UNL     1      -1.181   4.381  26.266  0.00  0.00    +0.123 HD
BRANCH   4  11
ATOM     11  C   UNL     1      -1.411   3.938  24.283  0.00  0.00    +0.118 C 
BRANCH  11  15
ATOM      1 CL   UNL     1      -2.844   2.120  22.238  0.00  0.00    -0.083 Cl
ATOM     15  C   UNL     1      -2.823   3.511  24.582  0.00  0.00    -0.015 A 
ATOM     19  C   UNL     1      -3.541   2.691  23.710  0.00  0.00    +0.045 A 
ATOM     20  C   UNL     1      -3.414   3.956  25.765  0.00  0.00    +0.006 A 
ATOM     21  C   UNL     1      -4.848   2.317  24.022  0.00  0.00    +0.020 A 
ATOM     22  C   UNL     1      -4.721   3.582  26.076  0.00  0.00    +0.000 A 
ATOM     23  C   UNL     1      -5.438   2.762  25.205  0.00  0.00    +0.001 A 
ENDBRANCH  11  15
ENDBRANCH   4  11
ENDBRANCH   6   4
BRANCH   6   9
ATOM      9  C   UNL     1       0.380   1.995  24.460  0.00  0.00    +0.085 C 
BRANCH   9  10
ATOM      3  O   UNL     1      -0.824  -1.322  23.913  0.00  0.00    -0.359 OA
ATOM      5  N   UNL     1       0.138  -0.328  23.788  0.00  0.00    -0.083 NA
ATOM     10  C   UNL     1      -0.384   0.739  24.399  0.00  0.00    +0.086 A 
ATOM     13  C   UNL     1      -1.662   0.480  24.924  0.00  0.00    +0.071 A 
ATOM     14  C   UNL     1      -1.891  -0.828  24.592  0.00  0.00    +0.143 A 
BRANCH  14  12
ATOM     12  C   UNL     1      -3.063  -1.797  24.826  0.00  0.00    +0.023 C 
ATOM     16  C   UNL     1      -2.726  -3.273  24.518  0.00  0.00    +0.019 C 
ATOM     17  C   UNL     1      -3.506  -1.729  26.305  0.00  0.00    +0.019 C 
ATOM     18  C   UNL     1      -4.251  -1.402  23.922  0.00  0.00    +0.019 C 
ENDBRANCH  14  12
ENDBRANCH   9  10
ENDBRANCH   6   9
TORSDOF 6
ENDMDL
MODEL 7
REMARK VINA RESULT:      -4.3      2.223      4.550
REMARK  Name = 56775456
REMARK  9 active torsions:
REMARK  status: ('A' for Active; 'I' for Inactive)
REMARK    1  A    between atoms: N_4  and  C_6
REMARK    2  A    between atoms: N_4  and  C_11
REMARK    3  A    between atoms: C_6  and  C_9
REMARK    4  A    between atoms: C_9  and  C_10
REMARK    5  A    between atoms: C_11  and  C_15
REMARK    6  A    between atoms: C_12  and  C_14
REMARK    7  A    between atoms: C_12  and  C_16
REMARK    8  A    between atoms: C_12  and  C_17
REMARK    9  A    between atoms: C_12  and  C_18
REMARK                            x       y       z     vdW  Elec       q    Type
REMARK                         _______ _______ _______ _____ _____    ______ ____
ROOT
ATOM      2  O   UNL     1       1.434  -0.672  23.316  0.00  0.00    -0.376 OA
ATOM      6  C   UNL     1      -0.230   0.525  23.910  0.00  0.00    +0.072 C 
ATOM      7  C   UNL     1       0.138  -0.953  23.892  0.00  0.00    +0.184 C 
ATOM      8  C   UNL     1       1.187   0.751  23.394  0.00  0.00    +0.184 C 
ENDROOT
BRANCH   6   4
ATOM      4  N   UNL     1      -0.301   0.974  25.294  0.00  0.00    -0.302 NA
ATOM     24  H   UNL     1      -1.233   0.955  25.707  0.00  0.00    +0.123 HD
BRANCH   4  11
ATOM     11  C   UNL     1       0.263   2.317  25.408  0.00  0.00    +0.118 C 
BRANCH  11  15
ATOM      1 CL   UNL     1       0.314   4.724  23.474  0.00  0.00    -0.083 Cl
ATOM     15  C   UNL     1      -0.809   3.364  25.551  0.00  0.00    -0.015 A 
ATOM     19  C   UNL     1      -0.857   4.482  24.719  0.00  0.00    +0.045 A 
ATOM     20  C   UNL     1      -1.770   3.196  26.549  0.00  0.00    +0.006 A 
ATOM     21  C   UNL     1      -1.866   5.431  24.883  0.00  0.00    +0.020 A 
ATOM     22  C   UNL     1      -2.779   4.145  26.712  0.00  0.00    +0.000 A 
ATOM     23  C   UNL     1      -2.826   5.262  25.879  0.00  0.00    +0.001 A 
ENDBRANCH  11  15
ENDBRANCH   4  11
ENDBRANCH   6   4
BRANCH   6   9
ATOM      9  C   UNL     1      -1.415   1.008  23.064  0.00  0.00    +0.085 C 
BRANCH   9  10
ATOM      3  O   UNL     1      -4.182   0.325  25.217  0.00  0.00    -0.359 OA
ATOM      5  N   UNL     1      -2.973  -0.017  24.623  0.00  0.00    -0.083 NA
ATOM     10  C   UNL     1      -2.658   1.028  23.851  0.00  0.00    +0.086 A 
ATOM     13  C   UNL     1      -3.622   2.049  23.917  0.00  0.00    +0.071 A 
ATOM     14  C   UNL     1      -4.558   1.557  24.788  0.00  0.00    +0.143 A 
BRANCH  14  12
ATOM     12  C   UNL     1      -5.883   2.103  25.346  0.00  0.00    +0.023 C 
ATOM     16  C   UNL     1      -6.248   1.551  26.743  0.00  0.00    +0.019 C 
ATOM     17  C   UNL     1      -5.802   3.640  25.469  0.00  0.00    +0.019 C 
ATOM     18  C   UNL     1      -7.040   1.731  24.393  0.00  0.00    +0.019 C 
ENDBRANCH  14  12
ENDBRANCH   9  10
ENDBRANCH   6   9
TORSDOF 6
ENDMDL
MODEL 8
REMARK VINA RESULT:      -4.1      2.312      4.409
REMARK  Name = 56775456
REMARK  9 active torsions:
REMARK  status: ('A' for Active; 'I' for Inactive)
REMARK    1  A    between atoms: N_4  and  C_6
REMARK    2  A    between atoms: N_4  and  C_11
REMARK    3  A    between atoms: C_6  and  C_9
REMARK    4  A    between atoms: C_9  and  C_10
REMARK    5  A    between atoms: C_11  and  C_15
REMARK    6  A    between atoms: C_12  and  C_14
REMARK    7  A    between atoms: C_12  and  C_16
REMARK    8  A    between atoms: C_12  and  C_17
REMARK    9  A    between atoms: C_12  and  C_18
REMARK                            x       y       z     vdW  Elec       q    Type
REMARK                         _______ _______ _______ _____ _____    ______ ____
ROOT
ATOM      2  O   UNL     1       1.114  -0.559  21.441  0.00  0.00    -0.376 OA
ATOM      6  C   UNL     1       0.985   0.196  23.433  0.00  0.00    +0.072 C 
ATOM      7  C   UNL     1       0.118   0.184  22.180  0.00  0.00    +0.184 C 
ATOM      8  C   UNL     1       1.943  -0.668  22.621  0.00  0.00    +0.184 C 
ENDROOT
BRANCH   6   4
ATOM      4  N   UNL     1       0.353  -0.635  24.449  0.00  0.00    -0.302 NA
ATOM     24  H   UNL     1       0.245  -1.617  24.198  0.00  0.00    +0.123 HD
BRANCH   4  11
ATOM     11  C   UNL     1      -0.946  -0.072  24.808  0.00  0.00    +0.118 C 
BRANCH  11  15
ATOM      1 CL   UNL     1      -3.711   1.070  24.039  0.00  0.00    -0.083 Cl
ATOM     15  C   UNL     1      -2.068  -1.043  24.553  0.00  0.00    -0.015 A 
ATOM     19  C   UNL     1      -3.347  -0.610  24.202  0.00  0.00    +0.045 A 
ATOM     20  C   UNL     1      -1.803  -2.407  24.677  0.00  0.00    +0.006 A 
ATOM     21  C   UNL     1      -4.360  -1.540  23.974  0.00  0.00    +0.020 A 
ATOM     22  C   UNL     1      -2.817  -3.337  24.449  0.00  0.00    +0.000 A 
ATOM     23  C   UNL     1      -4.095  -2.904  24.097  0.00  0.00    +0.001 A 
ENDBRANCH  11  15
ENDBRANCH   4  11
ENDBRANCH   6   4
BRANCH   6   9
ATOM      9  C   UNL     1       1.481   1.540  23.984  0.00  0.00    +0.085 C 
BRANCH   9  10
ATOM      3  O   UNL     1      -0.820   3.038  26.268  0.00  0.00    -0.359 OA
ATOM      5  N   UNL     1       0.291   2.254  25.979  0.00  0.00    -0.083 NA
ATOM     10  C   UNL     1       0.394   2.276  24.647  0.00  0.00    +0.086 A 
ATOM     13  C   UNL     1      -0.616   3.050  24.048  0.00  0.00    +0.071 A 
ATOM     14  C   UNL     1      -1.351   3.506  25.109  0.00  0.00    +0.143 A 
BRANCH  14  12
ATOM     12  C   UNL     1      -2.596   4.398  25.237  0.00  0.00    +0.023 C 
ATOM     16  C   UNL     1      -3.648   4.167  24.128  0.00  0.00    +0.019 C 
ATOM     17  C   UNL     1      -3.293   4.128  26.589  0.00  0.00    +0.019 C 
ATOM     18  C   UNL     1      -2.180   5.883  25.168  0.00  0.00    +0.019 C 
ENDBRANCH  14  12
ENDBRANCH   9  10
ENDBRANCH   6   9
TORSDOF 6
ENDMDL
MODEL 9
REMARK VINA RESULT:      -3.9      2.452      4.593
REMARK  Name = 56775456
REMARK  9 active torsions:
REMARK  status: ('A' for Active; 'I' for Inactive)
REMARK    1  A    between atoms: N_4  and  C_6
REMARK    2  A    between atoms: N_4  and  C_11
REMARK    3  A    between atoms: C_6  and  C_9
REMARK    4  A    between atoms: C_9  and  C_10
REMARK    5  A    between atoms: C_11  and  C_15
REMARK    6  A    between atoms: C_12  and  C_14
REMARK    7  A    between atoms: C_12  and  C_16
REMARK    8  A    between atoms: C_12  and  C_17
REMARK    9  A    between atoms: C_12  and  C_18
REMARK                            x       y       z     vdW  Elec       q    Type
REMARK                         _______ _______ _______ _____ _____    ______ ____
ROOT
ATOM      2  O   UNL     1       1.278  -0.289  21.807  0.00  0.00    -0.376 OA
ATOM      6  C   UNL     1       0.658   0.430  23.718  0.00  0.00    +0.072 C 
ATOM      7  C   UNL     1       0.002   0.047  22.396  0.00  0.00    +0.184 C 
ATOM      8  C   UNL     1       1.952  -0.035  23.060  0.00  0.00    +0.184 C 
ENDROOT
BRANCH   6   4
ATOM      4  N   UNL     1       0.272  -0.543  24.731  0.00  0.00    -0.302 NA
ATOM     24  H   UNL     1       0.196  -1.504  24.400  0.00  0.00    +0.123 HD
BRANCH   4  11
ATOM     11  C   UNL     1      -0.984  -0.134  25.355  0.00  0.00    +0.118 C 
BRANCH  11  15
ATOM      1 CL   UNL     1      -0.591  -3.190  25.153  0.00  0.00    -0.083 Cl
ATOM     15  C   UNL     1      -2.143  -0.967  24.879  0.00  0.00    -0.015 A 
ATOM     19  C   UNL     1      -2.049  -2.354  24.759  0.00  0.00    +0.045 A 
ATOM     20  C   UNL     1      -3.335  -0.319  24.553  0.00  0.00    +0.006 A 
ATOM     21  C   UNL     1      -3.145  -3.092  24.314  0.00  0.00    +0.020 A 
ATOM     22  C   UNL     1      -4.431  -1.058  24.107  0.00  0.00    +0.000 A 
ATOM     23  C   UNL     1      -4.336  -2.444  23.988  0.00  0.00    +0.001 A 
ENDBRANCH  11  15
ENDBRANCH   4  11
ENDBRANCH   6   4
BRANCH   6   9
ATOM      9  C   UNL     1       0.552   1.880  24.209  0.00  0.00    +0.085 C 
BRANCH   9  10
ATOM      3  O   UNL     1      -2.842   2.743  23.511  0.00  0.00    -0.359 OA
ATOM      5  N   UNL     1      -1.599   2.247  23.139  0.00  0.00    -0.083 NA
ATOM     10  C   UNL     1      -0.848   2.330  24.241  0.00  0.00    +0.086 A 
ATOM     13  C   UNL     1      -1.558   2.865  25.331  0.00  0.00    +0.071 A 
ATOM     14  C   UNL     1      -2.805   3.107  24.819  0.00  0.00    +0.143 A 
BRANCH  14  12
ATOM     12  C   UNL     1      -4.103   3.683  25.408  0.00  0.00    +0.023 C 
ATOM     16  C   UNL     1      -5.211   2.628  25.631  0.00  0.00    +0.019 C 
ATOM     17  C   UNL     1      -3.809   4.333  26.778  0.00  0.00    +0.019 C 
ATOM     18  C   UNL     1      -4.678   4.752  24.453  0.00  0.00    +0.019 C 
ENDBRANCH  14  12
ENDBRANCH   9  10
ENDBRANCH   6   9
TORSDOF 6
ENDMDL
MODEL 10
REMARK VINA RESULT:      -3.1      2.287      4.414
REMARK  Name = 56775456
REMARK  9 active torsions:
REMARK  status: ('A' for Active; 'I' for Inactive)
REMARK    1  A    between atoms: N_4  and  C_6
REMARK    2  A    between atoms: N_4  and  C_11
REMARK    3  A    between atoms: C_6  and  C_9
REMARK    4  A    between atoms: C_9  and  C_10
REMARK    5  A    between atoms: C_11  and  C_15
REMARK    6  A    between atoms: C_12  and  C_14
REMARK    7  A    between atoms: C_12  and  C_16
REMARK    8  A    between atoms: C_12  and  C_17
REMARK    9  A    between atoms: C_12  and  C_18
REMARK                            x       y       z     vdW  Elec       q    Type
REMARK                         _______ _______ _______ _____ _____    ______ ____
ROOT
ATOM      2  O   UNL     1      -7.021   1.899  26.400  0.00  0.00    -0.376 OA
ATOM      6  C   UNL     1      -5.569   1.711  24.847  0.00  0.00    +0.072 C 
ATOM      7  C   UNL     1      -5.576   1.892  26.360  0.00  0.00    +0.184 C 
ATOM      8  C   UNL     1      -7.086   1.633  24.980  0.00  0.00    +0.184 C 
ENDROOT
BRANCH   6   4
ATOM      4  N   UNL     1      -5.057   0.384  24.535  0.00  0.00    -0.302 NA
ATOM     24  H   UNL     1      -5.747  -0.270  24.169  0.00  0.00    +0.123 HD
BRANCH   4  11
ATOM     11  C   UNL     1      -4.411  -0.186  25.714  0.00  0.00    +0.118 C 
BRANCH  11  15
ATOM      1 CL   UNL     1      -4.474  -2.613  23.806  0.00  0.00    -0.083 Cl
ATOM     15  C   UNL     1      -3.105  -0.852  25.372  0.00  0.00    -0.015 A 
ATOM     19  C   UNL     1      -3.046  -1.954  24.518  0.00  0.00    +0.045 A 
ATOM     20  C   UNL     1      -1.934  -0.341  25.932  0.00  0.00    +0.006 A 
ATOM     21  C   UNL     1      -1.818  -2.543  24.224  0.00  0.00    +0.020 A 
ATOM     22  C   UNL     1      -0.705  -0.932  25.638  0.00  0.00    +0.000 A 
ATOM     23  C   UNL     1      -0.647  -2.033  24.784  0.00  0.00    +0.001 A 
ENDBRANCH  11  15
ENDBRANCH   4  11
ENDBRANCH   6   4
BRANCH   6   9
ATOM      9  C   UNL     1      -4.956   2.811  23.968  0.00  0.00    +0.085 C 
BRANCH   9  10
ATOM      3  O   UNL     1      -1.605   2.062  22.987  0.00  0.00    -0.359 OA
ATOM      5  N   UNL     1      -2.979   2.045  22.780  0.00  0.00    -0.083 NA
ATOM     10  C   UNL     1      -3.499   2.648  23.853  0.00  0.00    +0.086 A 
ATOM     13  C   UNL     1      -2.510   3.063  24.763  0.00  0.00    +0.071 A 
ATOM     14  C   UNL     1      -1.339   2.670  24.171  0.00  0.00    +0.143 A 
BRANCH  14  12
ATOM     12  C   UNL     1       0.143   2.780  24.568  0.00  0.00    +0.023 C 
ATOM     16  C   UNL     1       0.396   2.638  26.086  0.00  0.00    +0.019 C 
ATOM     17  C   UNL     1       0.953   1.669  23.864  0.00  0.00    +0.019 C 
ATOM     18  C   UNL     1       0.695   4.158  24.140  0.00  0.00    +0.019 C 
ENDBRANCH  14  12
ENDBRANCH   9  10
ENDBRANCH   6   9
TORSDOF 6
ENDMDL
