MODEL 1
REMARK VINA RESULT:      16.5      0.000      0.000
REMARK  Name = 7142828
REMARK  2 active torsions:
REMARK  status: ('A' for Active; 'I' for Inactive)
REMARK    1  A    between atoms: N_8  and  C_20
REMARK    2  A    between atoms: N_9  and  C_26
REMARK                            x       y       z     vdW  Elec       q    Type
REMARK                         _______ _______ _______ _____ _____    ______ ____
ROOT
ATOM      2  O   UNL     1      -0.130   2.615  25.964  0.00  0.00    -0.266 OA
ATOM      4  N   UNL     1      -4.504   0.368  24.895  0.00  0.00    -0.299 N 
ATOM      5  N   UNL     1      -2.237   2.627  24.956  0.00  0.00    -0.310 N 
ATOM      6  N   UNL     1      -4.608  -1.559  23.541  0.00  0.00    -0.223 NA
ATOM      7  N   UNL     1      -3.927  -1.712  25.847  0.00  0.00    -0.223 NA
ATOM     10  C   UNL     1      -4.414   2.429  26.288  0.00  0.00    +0.027 C 
ATOM     11  C   UNL     1      -4.497   2.611  23.843  0.00  0.00    +0.054 C 
ATOM     12  C   UNL     1      -5.034   3.210  25.139  0.00  0.00    +0.018 C 
ATOM     13  C   UNL     1      -4.801   0.940  26.214  0.00  0.00    +0.113 C 
ATOM     14  C   UNL     1      -2.894   2.635  26.269  0.00  0.00    +0.130 C 
ATOM     15  C   UNL     1      -4.949   1.141  23.727  0.00  0.00    +0.117 C 
ATOM     16  C   UNL     1      -2.984   2.695  23.776  0.00  0.00    +0.027 A 
ATOM     17  C   UNL     1      -2.363   2.807  22.589  0.00  0.00    +0.024 A 
ATOM     18  C   UNL     1      -0.829   2.655  24.951  0.00  0.00    +0.273 A 
ATOM     19  C   UNL     1      -4.342  -1.012  24.757  0.00  0.00    +0.218 A 
ATOM     20  C   UNL     1      -0.174   2.753  23.607  0.00  0.00    +0.100 A 
ATOM     21  C   UNL     1      -0.930   2.833  22.506  0.00  0.00    +0.030 A 
ATOM     22  C   UNL     1      -4.440  -2.894  23.441  0.00  0.00    +0.116 A 
ATOM     23  C   UNL     1      -3.780  -3.043  25.677  0.00  0.00    +0.116 A 
ATOM     25  C   UNL     1      -4.025  -3.695  24.485  0.00  0.00    +0.039 A 
ENDROOT
BRANCH  20   8
ATOM      3  O   UNL     1       1.509   0.506  23.153  0.00  0.00    -0.252 OA
ATOM      8  N   UNL     1       1.188   2.766  23.558  0.00  0.00    -0.265 N 
ATOM      9  N   UNL     1       3.331   1.973  23.339  0.00  0.00    -0.269 N 
ATOM     24  C   UNL     1       1.974   1.629  23.330  0.00  0.00    +0.308 C 
ATOM     32  H   UNL     1       1.655   3.583  23.944  0.00  0.00    +0.157 HD
ATOM     33  H   UNL     1       3.550   2.954  23.497  0.00  0.00    +0.156 HD
BRANCH   9  26
ATOM      1 CL   UNL     1       7.983  -1.576  22.544  0.00  0.00    -0.084 Cl
ATOM     26  C   UNL     1       4.445   1.122  23.148  0.00  0.00    +0.035 A 
ATOM     27  C   UNL     1       4.548   0.392  21.976  0.00  0.00    +0.025 A 
ATOM     28  C   UNL     1       5.410   1.038  24.138  0.00  0.00    +0.025 A 
ATOM     29  C   UNL     1       5.647  -0.447  21.788  0.00  0.00    +0.022 A 
ATOM     30  C   UNL     1       6.509   0.200  23.950  0.00  0.00    +0.022 A 
ATOM     31  C   UNL     1       6.628  -0.542  22.775  0.00  0.00    +0.041 A 
ENDBRANCH   9  26
ENDBRANCH  20   8
TORSDOF 2
ENDMDL
MODEL 2
REMARK VINA RESULT:      20.5      2.524      2.935
REMARK  Name = 7142828
REMARK  2 active torsions:
REMARK  status: ('A' for Active; 'I' for Inactive)
REMARK    1  A    between atoms: N_8  and  C_20
REMARK    2  A    between atoms: N_9  and  C_26
REMARK                            x       y       z     vdW  Elec       q    Type
REMARK                         _______ _______ _______ _____ _____    ______ ____
ROOT
ATOM      2  O   UNL     1       0.063   2.560  25.395  0.00  0.00    -0.266 OA
ATOM      4  N   UNL     1      -4.866   3.561  25.252  0.00  0.00    -0.299 N 
ATOM      5  N   UNL     1      -1.828   3.347  24.271  0.00  0.00    -0.310 N 
ATOM      6  N   UNL     1      -6.482   1.848  25.382  0.00  0.00    -0.223 NA
ATOM      7  N   UNL     1      -5.349   2.621  27.362  0.00  0.00    -0.223 NA
ATOM     10  C   UNL     1      -3.172   5.374  25.068  0.00  0.00    +0.027 C 
ATOM     11  C   UNL     1      -3.882   4.158  23.059  0.00  0.00    +0.054 C 
ATOM     12  C   UNL     1      -3.539   5.542  23.600  0.00  0.00    +0.018 C 
ATOM     13  C   UNL     1      -4.352   4.790  25.867  0.00  0.00    +0.113 C 
ATOM     14  C   UNL     1      -1.914   4.503  25.171  0.00  0.00    +0.130 C 
ATOM     15  C   UNL     1      -5.112   3.602  23.803  0.00  0.00    +0.117 C 
ATOM     16  C   UNL     1      -2.713   3.200  23.200  0.00  0.00    +0.027 A 
ATOM     17  C   UNL     1      -2.547   2.200  22.317  0.00  0.00    +0.024 A 
ATOM     18  C   UNL     1      -0.752   2.460  24.477  0.00  0.00    +0.273 A 
ATOM     19  C   UNL     1      -5.589   2.648  26.024  0.00  0.00    +0.218 A 
ATOM     20  C   UNL     1      -0.616   1.344  23.488  0.00  0.00    +0.100 A 
ATOM     21  C   UNL     1      -1.478   1.254  22.468  0.00  0.00    +0.030 A 
ATOM     22  C   UNL     1      -7.162   0.977  26.156  0.00  0.00    +0.116 A 
ATOM     23  C   UNL     1      -6.064   1.727  28.076  0.00  0.00    +0.116 A 
ATOM     25  C   UNL     1      -6.994   0.871  27.521  0.00  0.00    +0.039 A 
ENDROOT
BRANCH  20   8
ATOM      3  O   UNL     1       2.140   1.836  22.989  0.00  0.00    -0.252 OA
ATOM      8  N   UNL     1       0.403   0.455  23.661  0.00  0.00    -0.265 N 
ATOM      9  N   UNL     1       2.544  -0.370  23.678  0.00  0.00    -0.269 N 
ATOM     24  C   UNL     1       1.748   0.747  23.401  0.00  0.00    +0.308 C 
ATOM     32  H   UNL     1       0.149  -0.525  23.746  0.00  0.00    +0.157 HD
ATOM     33  H   UNL     1       2.062  -1.199  24.018  0.00  0.00    +0.156 HD
BRANCH   9  26
ATOM      1 CL   UNL     1       8.403  -0.877  23.135  0.00  0.00    -0.084 Cl
ATOM     26  C   UNL     1       3.948  -0.492  23.549  0.00  0.00    +0.035 A 
ATOM     27  C   UNL     1       4.555  -1.699  23.852  0.00  0.00    +0.025 A 
ATOM     28  C   UNL     1       4.686   0.600  23.121  0.00  0.00    +0.025 A 
ATOM     29  C   UNL     1       5.939  -1.819  23.724  0.00  0.00    +0.022 A 
ATOM     30  C   UNL     1       6.069   0.480  22.992  0.00  0.00    +0.022 A 
ATOM     31  C   UNL     1       6.696  -0.729  23.293  0.00  0.00    +0.041 A 
ENDBRANCH   9  26
ENDBRANCH  20   8
TORSDOF 2
ENDMDL
