MODEL 1
REMARK VINA RESULT:      -4.9      0.000      0.000
REMARK  Name = 45783695
REMARK  8 active torsions:
REMARK  status: ('A' for Active; 'I' for Inactive)
REMARK    1  A    between atoms: O_2  and  C_21
REMARK    2  A    between atoms: O_2  and  C_22
REMARK    3  A    between atoms: N_3  and  C_11
REMARK    4  A    between atoms: C_7  and  C_13
REMARK    5  A    between atoms: C_11  and  C_12
REMARK    6  A    between atoms: C_12  and  C_14
REMARK    7  A    between atoms: C_12  and  C_15
REMARK    8  A    between atoms: C_16  and  C_17
REMARK                            x       y       z     vdW  Elec       q    Type
REMARK                         _______ _______ _______ _____ _____    ______ ____
ROOT
ATOM      1  O   UNL     1      -1.963   2.613  25.416  0.00  0.00    -0.336 OA
ATOM      4  N   UNL     1      -1.668   1.384  23.567  0.00  0.00    -0.190 NA
ATOM      5  N   UNL     1      -0.582   2.412  25.297  0.00  0.00    -0.056 NA
ATOM     13  C   UNL     1      -2.528   1.975  24.358  0.00  0.00    +0.245 A 
ATOM     16  C   UNL     1      -0.488   1.679  24.184  0.00  0.00    +0.204 A 
ENDROOT
BRANCH  16  17
ATOM      6  N   UNL     1       3.113   1.658  23.255  0.00  0.00    -0.221 NA
ATOM     17  C   UNL     1       0.769   1.226  23.662  0.00  0.00    +0.041 A 
ATOM     18  C   UNL     1       0.890  -0.028  23.076  0.00  0.00    +0.018 A 
ATOM     19  C   UNL     1       1.901   2.024  23.727  0.00  0.00    +0.126 A 
ATOM     20  C   UNL     1       2.121  -0.441  22.578  0.00  0.00    +0.068 A 
ATOM     21  C   UNL     1       3.191   0.431  22.690  0.00  0.00    +0.214 A 
BRANCH  21   2
ATOM      2  O   UNL     1       4.416   0.048  22.207  0.00  0.00    -0.480 OA
ATOM     22  C   UNL     1       5.476  -0.040  23.152  0.00  0.00    +0.279 C 
ENDBRANCH  21   2
ENDBRANCH  16  17
BRANCH  13   7
ATOM      3  N   UNL     1      -4.709   0.983  25.031  0.00  0.00    -0.291 NA
ATOM      7  C   UNL     1      -4.037   2.045  24.256  0.00  0.00    +0.146 C 
ATOM      8  C   UNL     1      -4.611   3.360  24.815  0.00  0.00    +0.030 C 
ATOM      9  C   UNL     1      -6.006   1.525  25.438  0.00  0.00    +0.085 C 
ATOM     10  C   UNL     1      -5.639   2.935  25.854  0.00  0.00    +0.017 C 
BRANCH   3  11
ATOM     11  C   UNL     1      -4.844  -0.268  24.295  0.00  0.00    +0.088 C 
BRANCH  11  12
ATOM     12  C   UNL     1      -3.677  -1.234  24.560  0.00  0.00    -0.003 C 
ATOM     14  C   UNL     1      -3.979  -2.662  24.095  0.00  0.00    +0.008 C 
ATOM     15  C   UNL     1      -3.339  -1.241  26.053  0.00  0.00    +0.008 C 
ENDBRANCH  11  12
ENDBRANCH   3  11
ENDBRANCH  13   7
TORSDOF 5
ENDMDL
MODEL 2
REMARK VINA RESULT:      -3.6      1.644      3.063
REMARK  Name = 45783695
REMARK  8 active torsions:
REMARK  status: ('A' for Active; 'I' for Inactive)
REMARK    1  A    between atoms: O_2  and  C_21
REMARK    2  A    between atoms: O_2  and  C_22
REMARK    3  A    between atoms: N_3  and  C_11
REMARK    4  A    between atoms: C_7  and  C_13
REMARK    5  A    between atoms: C_11  and  C_12
REMARK    6  A    between atoms: C_12  and  C_14
REMARK    7  A    between atoms: C_12  and  C_15
REMARK    8  A    between atoms: C_16  and  C_17
REMARK                            x       y       z     vdW  Elec       q    Type
REMARK                         _______ _______ _______ _____ _____    ______ ____
ROOT
ATOM      1  O   UNL     1      -3.004  -0.478  24.710  0.00  0.00    -0.336 OA
ATOM      4  N   UNL     1      -1.714   1.353  24.714  0.00  0.00    -0.190 NA
ATOM      5  N   UNL     1      -1.793  -0.853  24.114  0.00  0.00    -0.056 NA
ATOM     13  C   UNL     1      -2.874   0.835  25.034  0.00  0.00    +0.245 A 
ATOM     16  C   UNL     1      -1.085   0.280  24.153  0.00  0.00    +0.204 A 
ENDROOT
BRANCH  16  17
ATOM      6  N   UNL     1       2.369   1.537  23.591  0.00  0.00    -0.221 NA
ATOM     17  C   UNL     1       0.250   0.373  23.640  0.00  0.00    +0.041 A 
ATOM     18  C   UNL     1       0.732  -0.557  22.726  0.00  0.00    +0.018 A 
ATOM     19  C   UNL     1       1.101   1.392  24.037  0.00  0.00    +0.126 A 
ATOM     20  C   UNL     1       2.031  -0.442  22.244  0.00  0.00    +0.068 A 
ATOM     21  C   UNL     1       2.802   0.614  22.703  0.00  0.00    +0.214 A 
BRANCH  21   2
ATOM      2  O   UNL     1       4.086   0.749  22.244  0.00  0.00    -0.480 OA
ATOM     22  C   UNL     1       5.125   0.297  23.105  0.00  0.00    +0.279 C 
ENDBRANCH  21   2
ENDBRANCH  16  17
BRANCH  13   7
ATOM      3  N   UNL     1      -4.234   2.901  25.310  0.00  0.00    -0.291 NA
ATOM      7  C   UNL     1      -4.065   1.487  25.702  0.00  0.00    +0.146 C 
ATOM      8  C   UNL     1      -5.400   0.816  25.326  0.00  0.00    +0.030 C 
ATOM      9  C   UNL     1      -5.666   3.187  25.400  0.00  0.00    +0.085 C 
ATOM     10  C   UNL     1      -6.273   1.940  24.789  0.00  0.00    +0.017 C 
BRANCH   3  11
ATOM     11  C   UNL     1      -3.440   3.819  26.117  0.00  0.00    +0.088 C 
BRANCH  11  12
ATOM     12  C   UNL     1      -2.586   4.767  25.259  0.00  0.00    -0.003 C 
ATOM     14  C   UNL     1      -2.968   4.721  23.776  0.00  0.00    +0.008 C 
ATOM     15  C   UNL     1      -1.104   4.416  25.419  0.00  0.00    +0.008 C 
ENDBRANCH  11  12
ENDBRANCH   3  11
ENDBRANCH  13   7
TORSDOF 5
ENDMDL
MODEL 3
REMARK VINA RESULT:      -2.4      1.831      3.254
REMARK  Name = 45783695
REMARK  8 active torsions:
REMARK  status: ('A' for Active; 'I' for Inactive)
REMARK    1  A    between atoms: O_2  and  C_21
REMARK    2  A    between atoms: O_2  and  C_22
REMARK    3  A    between atoms: N_3  and  C_11
REMARK    4  A    between atoms: C_7  and  C_13
REMARK    5  A    between atoms: C_11  and  C_12
REMARK    6  A    between atoms: C_12  and  C_14
REMARK    7  A    between atoms: C_12  and  C_15
REMARK    8  A    between atoms: C_16  and  C_17
REMARK                            x       y       z     vdW  Elec       q    Type
REMARK                         _______ _______ _______ _____ _____    ______ ____
ROOT
ATOM      1  O   UNL     1      -1.834  -0.881  24.168  0.00  0.00    -0.336 OA
ATOM      4  N   UNL     1      -0.540   0.933  24.398  0.00  0.00    -0.190 NA
ATOM      5  N   UNL     1      -0.561  -1.251  23.716  0.00  0.00    -0.056 NA
ATOM     13  C   UNL     1      -1.735   0.418  24.551  0.00  0.00    +0.245 A 
ATOM     16  C   UNL     1       0.146  -0.129  23.883  0.00  0.00    +0.204 A 
ENDROOT
BRANCH  16  17
ATOM      6  N   UNL     1       3.699  -1.103  23.379  0.00  0.00    -0.221 NA
ATOM     17  C   UNL     1       1.536  -0.035  23.545  0.00  0.00    +0.041 A 
ATOM     18  C   UNL     1       2.078   1.154  23.071  0.00  0.00    +0.018 A 
ATOM     19  C   UNL     1       2.381  -1.125  23.679  0.00  0.00    +0.126 A 
ATOM     20  C   UNL     1       3.430   1.216  22.751  0.00  0.00    +0.068 A 
ATOM     21  C   UNL     1       4.191   0.071  22.922  0.00  0.00    +0.214 A 
BRANCH  21   2
ATOM      2  O   UNL     1       5.526   0.107  22.614  0.00  0.00    -0.480 OA
ATOM     22  C   UNL     1       6.428  -0.321  23.628  0.00  0.00    +0.279 C 
ENDBRANCH  21   2
ENDBRANCH  16  17
BRANCH  13   7
ATOM      3  N   UNL     1      -3.633   1.966  24.109  0.00  0.00    -0.291 NA
ATOM      7  C   UNL     1      -2.996   1.062  25.087  0.00  0.00    +0.146 C 
ATOM      8  C   UNL     1      -4.087   0.033  25.435  0.00  0.00    +0.030 C 
ATOM      9  C   UNL     1      -5.066   1.949  24.401  0.00  0.00    +0.085 C 
ATOM     10  C   UNL     1      -5.316   0.475  24.654  0.00  0.00    +0.017 C 
BRANCH   3  11
ATOM     11  C   UNL     1      -3.085   3.317  24.134  0.00  0.00    +0.088 C 
BRANCH  11  12
ATOM     12  C   UNL     1      -2.352   3.629  25.449  0.00  0.00    -0.003 C 
ATOM     14  C   UNL     1      -3.265   4.283  26.490  0.00  0.00    +0.008 C 
ATOM     15  C   UNL     1      -1.155   4.542  25.170  0.00  0.00    +0.008 C 
ENDBRANCH  11  12
ENDBRANCH   3  11
ENDBRANCH  13   7
TORSDOF 5
ENDMDL
MODEL 4
REMARK VINA RESULT:      -1.7      1.464      2.262
REMARK  Name = 45783695
REMARK  8 active torsions:
REMARK  status: ('A' for Active; 'I' for Inactive)
REMARK    1  A    between atoms: O_2  and  C_21
REMARK    2  A    between atoms: O_2  and  C_22
REMARK    3  A    between atoms: N_3  and  C_11
REMARK    4  A    between atoms: C_7  and  C_13
REMARK    5  A    between atoms: C_11  and  C_12
REMARK    6  A    between atoms: C_12  and  C_14
REMARK    7  A    between atoms: C_12  and  C_15
REMARK    8  A    between atoms: C_16  and  C_17
REMARK                            x       y       z     vdW  Elec       q    Type
REMARK                         _______ _______ _______ _____ _____    ______ ____
ROOT
ATOM      1  O   UNL     1      -1.997   1.200  23.522  0.00  0.00    -0.336 OA
ATOM      4  N   UNL     1      -0.193   2.449  23.972  0.00  0.00    -0.190 NA
ATOM      5  N   UNL     1      -0.886   0.403  23.221  0.00  0.00    -0.056 NA
ATOM     13  C   UNL     1      -1.502   2.388  23.957  0.00  0.00    +0.245 A 
ATOM     16  C   UNL     1       0.139   1.209  23.512  0.00  0.00    +0.204 A 
ENDROOT
BRANCH  16  17
ATOM      6  N   UNL     1       3.813   1.425  22.980  0.00  0.00    -0.221 NA
ATOM     17  C   UNL     1       1.506   0.805  23.353  0.00  0.00    +0.041 A 
ATOM     18  C   UNL     1       1.868  -0.536  23.411  0.00  0.00    +0.018 A 
ATOM     19  C   UNL     1       2.508   1.739  23.138  0.00  0.00    +0.126 A 
ATOM     20  C   UNL     1       3.201  -0.898  23.253  0.00  0.00    +0.068 A 
ATOM     21  C   UNL     1       4.127   0.111  23.041  0.00  0.00    +0.214 A 
BRANCH  21   2
ATOM      2  O   UNL     1       5.448  -0.220  22.883  0.00  0.00    -0.480 OA
ATOM     22  C   UNL     1       6.167  -0.559  24.062  0.00  0.00    +0.279 C 
ENDBRANCH  21   2
ENDBRANCH  16  17
BRANCH  13   7
ATOM      3  N   UNL     1      -3.651   2.877  25.113  0.00  0.00    -0.291 NA
ATOM      7  C   UNL     1      -2.516   3.439  24.352  0.00  0.00    +0.146 C 
ATOM      8  C   UNL     1      -1.924   4.519  25.277  0.00  0.00    +0.030 C 
ATOM      9  C   UNL     1      -4.127   3.942  25.995  0.00  0.00    +0.085 C 
ATOM     10  C   UNL     1      -2.827   4.532  26.503  0.00  0.00    +0.017 C 
BRANCH   3  11
ATOM     11  C   UNL     1      -4.712   2.356  24.259  0.00  0.00    +0.088 C 
BRANCH  11  12
ATOM     12  C   UNL     1      -5.387   1.110  24.855  0.00  0.00    -0.003 C 
ATOM     14  C   UNL     1      -6.231   1.433  26.092  0.00  0.00    +0.008 C 
ATOM     15  C   UNL     1      -4.324   0.069  25.217  0.00  0.00    +0.008 C 
ENDBRANCH  11  12
ENDBRANCH   3  11
ENDBRANCH  13   7
TORSDOF 5
ENDMDL
MODEL 5
REMARK VINA RESULT:      -1.6      1.188      2.764
REMARK  Name = 45783695
REMARK  8 active torsions:
REMARK  status: ('A' for Active; 'I' for Inactive)
REMARK    1  A    between atoms: O_2  and  C_21
REMARK    2  A    between atoms: O_2  and  C_22
REMARK    3  A    between atoms: N_3  and  C_11
REMARK    4  A    between atoms: C_7  and  C_13
REMARK    5  A    between atoms: C_11  and  C_12
REMARK    6  A    between atoms: C_12  and  C_14
REMARK    7  A    between atoms: C_12  and  C_15
REMARK    8  A    between atoms: C_16  and  C_17
REMARK                            x       y       z     vdW  Elec       q    Type
REMARK                         _______ _______ _______ _____ _____    ______ ____
ROOT
ATOM      1  O   UNL     1      -1.325   2.055  24.407  0.00  0.00    -0.336 OA
ATOM      4  N   UNL     1      -0.413   0.012  24.298  0.00  0.00    -0.190 NA
ATOM      5  N   UNL     1      -0.001   2.240  23.989  0.00  0.00    -0.056 NA
ATOM     13  C   UNL     1      -1.485   0.715  24.567  0.00  0.00    +0.245 A 
ATOM     16  C   UNL     1       0.470   0.991  23.948  0.00  0.00    +0.204 A 
ENDROOT
BRANCH  16  17
ATOM      6  N   UNL     1       3.982   1.471  22.823  0.00  0.00    -0.221 NA
ATOM     17  C   UNL     1       1.818   0.687  23.563  0.00  0.00    +0.041 A 
ATOM     18  C   UNL     1       2.279  -0.624  23.548  0.00  0.00    +0.018 A 
ATOM     19  C   UNL     1       2.701   1.690  23.196  0.00  0.00    +0.126 A 
ATOM     20  C   UNL     1       3.591  -0.890  23.170  0.00  0.00    +0.068 A 
ATOM     21  C   UNL     1       4.394   0.183  22.819  0.00  0.00    +0.214 A 
BRANCH  21   2
ATOM      2  O   UNL     1       5.692  -0.052  22.443  0.00  0.00    -0.480 OA
ATOM     22  C   UNL     1       6.601  -0.414  23.475  0.00  0.00    +0.279 C 
ENDBRANCH  21   2
ENDBRANCH  16  17
BRANCH  13   7
ATOM      3  N   UNL     1      -3.893   0.457  23.995  0.00  0.00    -0.291 NA
ATOM      7  C   UNL     1      -2.851   0.248  25.021  0.00  0.00    +0.146 C 
ATOM      8  C   UNL     1      -2.894  -1.263  25.318  0.00  0.00    +0.030 C 
ATOM      9  C   UNL     1      -4.895  -0.588  24.203  0.00  0.00    +0.085 C 
ATOM     10  C   UNL     1      -4.029  -1.805  24.460  0.00  0.00    +0.017 C 
BRANCH   3  11
ATOM     11  C   UNL     1      -4.477   1.792  24.035  0.00  0.00    +0.088 C 
BRANCH  11  12
ATOM     12  C   UNL     1      -4.643   2.319  25.470  0.00  0.00    -0.003 C 
ATOM     14  C   UNL     1      -6.085   2.207  25.974  0.00  0.00    +0.008 C 
ATOM     15  C   UNL     1      -4.185   3.778  25.542  0.00  0.00    +0.008 C 
ENDBRANCH  11  12
ENDBRANCH   3  11
ENDBRANCH  13   7
TORSDOF 5
ENDMDL
