MODEL 1
REMARK VINA RESULT:      -5.4      0.000      0.000
REMARK  Name = 71693227
REMARK  5 active torsions:
REMARK  status: ('A' for Active; 'I' for Inactive)
REMARK    1  A    between atoms: O_2  and  C_10
REMARK    2  A    between atoms: N_6  and  C_17
REMARK    3  A    between atoms: CA_7  and  C_10
REMARK    4  A    between atoms: C_8  and  C_9
REMARK    5  A    between atoms: C_18  and  C_19
REMARK                            x       y       z     vdW  Elec       q    Type
REMARK                         _______ _______ _______ _____ _____    ______ ____
ROOT
ATOM      1  O   UNL     1      -3.709   2.681  24.460  0.00  0.00    -0.361 OA
ATOM      3  O   UNL     1      -7.180   1.988  25.046  0.00  0.00    -0.273 OA
ATOM      5  N   UNL     1      -5.384   0.560  25.009  0.00  0.00    -0.306 N 
ATOM      7  CA  UNL     1      -3.967   0.315  24.753  0.00  0.00    +0.131 C 
ATOM      8  C   UNL     1      -3.134   1.550  25.128  0.00  0.00    +0.171 C 
ATOM     11  C   UNL     1      -4.997   2.977  24.961  0.00  0.00    +0.256 C 
ATOM     12  C   UNL     1      -5.964   1.809  24.984  0.00  0.00    +0.239 C 
ATOM     20  H   UNL     1      -6.008  -0.241  25.027  0.00  0.00    +0.149 HD
ENDROOT
BRANCH   8   9
ATOM      9  C   UNL     1      -1.684   1.457  24.705  0.00  0.00    -0.017 A 
ATOM     13  C   UNL     1      -0.853   2.571  24.819  0.00  0.00    +0.008 A 
ATOM     14  C   UNL     1      -1.180   0.259  24.201  0.00  0.00    +0.008 A 
ATOM     15  C   UNL     1       0.484   2.486  24.430  0.00  0.00    +0.023 A 
ATOM     16  C   UNL     1       0.156   0.173  23.811  0.00  0.00    +0.023 A 
ATOM     17  C   UNL     1       0.989   1.287  23.924  0.00  0.00    +0.033 A 
BRANCH  17   6
ATOM      4  O   UNL     1       2.264  -0.182  21.625  0.00  0.00    -0.276 OA
ATOM      6  N   UNL     1       2.325   1.202  23.534  0.00  0.00    -0.286 N 
ATOM     18  C   UNL     1       2.867   0.499  22.450  0.00  0.00    +0.214 C 
ATOM     19  C   UNL     1       4.364   0.661  22.370  0.00  0.00    +0.109 C 
ATOM     22  H   UNL     1       2.982   1.719  24.116  0.00  0.00    +0.155 HD
ENDBRANCH  17   6
ENDBRANCH   8   9
BRANCH   7  10
ATOM     10  C   UNL     1      -3.519  -0.941  25.497  0.00  0.00    +0.181 C 
BRANCH  10   2
ATOM      2  O   UNL     1      -3.831  -2.070  24.702  0.00  0.00    -0.393 OA
ATOM     21  H   UNL     1      -3.014  -2.335  24.248  0.00  0.00    +0.209 HD
ENDBRANCH  10   2
ENDBRANCH   7  10
TORSDOF 4
ENDMDL
MODEL 2
REMARK VINA RESULT:      -4.9      1.026      1.554
REMARK  Name = 71693227
REMARK  5 active torsions:
REMARK  status: ('A' for Active; 'I' for Inactive)
REMARK    1  A    between atoms: O_2  and  C_10
REMARK    2  A    between atoms: N_6  and  C_17
REMARK    3  A    between atoms: CA_7  and  C_10
REMARK    4  A    between atoms: C_8  and  C_9
REMARK    5  A    between atoms: C_18  and  C_19
REMARK                            x       y       z     vdW  Elec       q    Type
REMARK                         _______ _______ _______ _____ _____    ______ ____
ROOT
ATOM      1  O   UNL     1      -3.106   3.547  25.460  0.00  0.00    -0.361 OA
ATOM      3  O   UNL     1      -6.675   3.716  25.780  0.00  0.00    -0.273 OA
ATOM      5  N   UNL     1      -5.362   2.099  24.816  0.00  0.00    -0.306 N 
ATOM      7  CA  UNL     1      -4.053   1.631  24.371  0.00  0.00    +0.131 C 
ATOM      8  C   UNL     1      -2.955   2.127  25.325  0.00  0.00    +0.171 C 
ATOM     11  C   UNL     1      -4.307   3.877  26.126  0.00  0.00    +0.256 C 
ATOM     12  C   UNL     1      -5.560   3.250  25.546  0.00  0.00    +0.239 C 
ATOM     20  H   UNL     1      -6.185   1.656  24.417  0.00  0.00    +0.149 HD
ENDROOT
BRANCH   8   9
ATOM      9  C   UNL     1      -1.551   1.861  24.827  0.00  0.00    -0.017 A 
ATOM     13  C   UNL     1      -1.122   0.549  24.625  0.00  0.00    +0.008 A 
ATOM     14  C   UNL     1      -0.686   2.925  24.575  0.00  0.00    +0.008 A 
ATOM     15  C   UNL     1       0.172   0.302  24.167  0.00  0.00    +0.023 A 
ATOM     16  C   UNL     1       0.608   2.678  24.117  0.00  0.00    +0.023 A 
ATOM     17  C   UNL     1       1.038   1.367  23.914  0.00  0.00    +0.033 A 
BRANCH  17   6
ATOM      4  O   UNL     1       2.008  -0.262  21.573  0.00  0.00    -0.276 OA
ATOM      6  N   UNL     1       2.333   1.120  23.456  0.00  0.00    -0.286 N 
ATOM     18  C   UNL     1       2.730   0.349  22.356  0.00  0.00    +0.214 C 
ATOM     19  C   UNL     1       4.230   0.332  22.197  0.00  0.00    +0.109 C 
ATOM     22  H   UNL     1       3.075   1.560  23.997  0.00  0.00    +0.155 HD
ENDBRANCH  17   6
ENDBRANCH   8   9
BRANCH   7  10
ATOM     10  C   UNL     1      -4.067   0.110  24.236  0.00  0.00    +0.181 C 
BRANCH  10   2
ATOM      2  O   UNL     1      -4.198  -0.455  25.528  0.00  0.00    -0.393 OA
ATOM     21  H   UNL     1      -4.268   0.282  26.157  0.00  0.00    +0.209 HD
ENDBRANCH  10   2
ENDBRANCH   7  10
TORSDOF 4
ENDMDL
MODEL 3
REMARK VINA RESULT:      -4.3     14.276     16.403
REMARK  Name = 71693227
REMARK  5 active torsions:
REMARK  status: ('A' for Active; 'I' for Inactive)
REMARK    1  A    between atoms: O_2  and  C_10
REMARK    2  A    between atoms: N_6  and  C_17
REMARK    3  A    between atoms: CA_7  and  C_10
REMARK    4  A    between atoms: C_8  and  C_9
REMARK    5  A    between atoms: C_18  and  C_19
REMARK                            x       y       z     vdW  Elec       q    Type
REMARK                         _______ _______ _______ _____ _____    ______ ____
ROOT
ATOM      1  O   UNL     1      -3.504 -10.747  15.113  0.00  0.00    -0.361 OA
ATOM      3  O   UNL     1      -1.743 -10.781  11.987  0.00  0.00    -0.273 OA
ATOM      5  N   UNL     1      -3.990 -10.567  12.405  0.00  0.00    -0.306 N 
ATOM      7  CA  UNL     1      -5.111 -10.589  13.340  0.00  0.00    +0.131 C 
ATOM      8  C   UNL     1      -4.679 -10.034  14.706  0.00  0.00    +0.171 C 
ATOM     11  C   UNL     1      -2.408 -10.460  14.269  0.00  0.00    +0.256 C 
ATOM     12  C   UNL     1      -2.669 -10.643  12.787  0.00  0.00    +0.239 C 
ATOM     20  H   UNL     1      -4.194 -10.684  11.417  0.00  0.00    +0.149 HD
ENDROOT
BRANCH   8   9
ATOM      9  C   UNL     1      -5.719 -10.209  15.791  0.00  0.00    -0.017 A 
ATOM     13  C   UNL     1      -7.071 -10.282  15.454  0.00  0.00    +0.008 A 
ATOM     14  C   UNL     1      -5.328 -10.295  17.126  0.00  0.00    +0.008 A 
ATOM     15  C   UNL     1      -8.031 -10.443  16.453  0.00  0.00    +0.023 A 
ATOM     16  C   UNL     1      -6.288 -10.456  18.126  0.00  0.00    +0.023 A 
ATOM     17  C   UNL     1      -7.640 -10.529  17.789  0.00  0.00    +0.033 A 
BRANCH  17   6
ATOM      4  O   UNL     1     -10.367  -9.289  18.098  0.00  0.00    -0.276 OA
ATOM      6  N   UNL     1      -8.599 -10.689  18.789  0.00  0.00    -0.286 N 
ATOM     18  C   UNL     1      -9.859 -10.083  18.885  0.00  0.00    +0.214 C 
ATOM     19  C   UNL     1     -10.599 -10.521  20.124  0.00  0.00    +0.109 C 
ATOM     22  H   UNL     1      -8.343 -11.329  19.539  0.00  0.00    +0.155 HD
ENDBRANCH  17   6
ENDBRANCH   8   9
BRANCH   7  10
ATOM     10  C   UNL     1      -6.293  -9.827  12.746  0.00  0.00    +0.181 C 
BRANCH  10   2
ATOM      2  O   UNL     1      -5.792  -8.805  11.904  0.00  0.00    -0.393 OA
ATOM     21  H   UNL     1      -4.991  -9.152  11.478  0.00  0.00    +0.209 HD
ENDBRANCH  10   2
ENDBRANCH   7  10
TORSDOF 4
ENDMDL
MODEL 4
REMARK VINA RESULT:      -4.3     14.280     15.432
REMARK  Name = 71693227
REMARK  5 active torsions:
REMARK  status: ('A' for Active; 'I' for Inactive)
REMARK    1  A    between atoms: O_2  and  C_10
REMARK    2  A    between atoms: N_6  and  C_17
REMARK    3  A    between atoms: CA_7  and  C_10
REMARK    4  A    between atoms: C_8  and  C_9
REMARK    5  A    between atoms: C_18  and  C_19
REMARK                            x       y       z     vdW  Elec       q    Type
REMARK                         _______ _______ _______ _____ _____    ______ ____
ROOT
ATOM      1  O   UNL     1      -9.352  -9.768  16.326  0.00  0.00    -0.361 OA
ATOM      3  O   UNL     1     -10.719 -10.033  19.633  0.00  0.00    -0.273 OA
ATOM      5  N   UNL     1      -8.609 -10.523  18.872  0.00  0.00    -0.306 N 
ATOM      7  CA  UNL     1      -7.668 -10.684  17.767  0.00  0.00    +0.131 C 
ATOM      8  C   UNL     1      -7.963  -9.660  16.661  0.00  0.00    +0.171 C 
ATOM     11  C   UNL     1     -10.175  -9.355  17.398  0.00  0.00    +0.256 C 
ATOM     12  C   UNL     1      -9.883 -10.018  18.729  0.00  0.00    +0.239 C 
ATOM     20  H   UNL     1      -8.385 -10.972  19.756  0.00  0.00    +0.149 HD
ENDROOT
BRANCH   8   9
ATOM      9  C   UNL     1      -7.167  -9.887  15.394  0.00  0.00    -0.017 A 
ATOM     13  C   UNL     1      -5.780  -9.743  15.408  0.00  0.00    +0.008 A 
ATOM     14  C   UNL     1      -7.820 -10.239  14.213  0.00  0.00    +0.008 A 
ATOM     15  C   UNL     1      -5.046  -9.952  14.240  0.00  0.00    +0.023 A 
ATOM     16  C   UNL     1      -7.086 -10.448  13.046  0.00  0.00    +0.023 A 
ATOM     17  C   UNL     1      -5.699 -10.304  13.059  0.00  0.00    +0.033 A 
BRANCH  17   6
ATOM      4  O   UNL     1      -4.978  -8.403  10.837  0.00  0.00    -0.276 OA
ATOM      6  N   UNL     1      -4.965 -10.512  11.891  0.00  0.00    -0.286 N 
ATOM     18  C   UNL     1      -4.659  -9.587  10.884  0.00  0.00    +0.214 C 
ATOM     19  C   UNL     1      -3.840 -10.210   9.782  0.00  0.00    +0.109 C 
ATOM     22  H   UNL     1      -4.612 -11.459  11.763  0.00  0.00    +0.155 HD
ENDBRANCH  17   6
ENDBRANCH   8   9
BRANCH   7  10
ATOM     10  C   UNL     1      -6.237 -10.585  18.291  0.00  0.00    +0.181 C 
BRANCH  10   2
ATOM      2  O   UNL     1      -6.283 -10.218  19.658  0.00  0.00    -0.393 OA
ATOM     21  H   UNL     1      -6.115 -11.022  20.177  0.00  0.00    +0.209 HD
ENDBRANCH  10   2
ENDBRANCH   7  10
TORSDOF 4
ENDMDL
MODEL 5
REMARK VINA RESULT:      -3.8     14.459     15.710
REMARK  Name = 71693227
REMARK  5 active torsions:
REMARK  status: ('A' for Active; 'I' for Inactive)
REMARK    1  A    between atoms: O_2  and  C_10
REMARK    2  A    between atoms: N_6  and  C_17
REMARK    3  A    between atoms: CA_7  and  C_10
REMARK    4  A    between atoms: C_8  and  C_9
REMARK    5  A    between atoms: C_18  and  C_19
REMARK                            x       y       z     vdW  Elec       q    Type
REMARK                         _______ _______ _______ _____ _____    ______ ____
ROOT
ATOM      1  O   UNL     1      -9.683 -10.203  16.520  0.00  0.00    -0.361 OA
ATOM      3  O   UNL     1     -10.648 -10.263  19.975  0.00  0.00    -0.273 OA
ATOM      5  N   UNL     1      -8.570 -10.488  19.026  0.00  0.00    -0.306 N 
ATOM      7  CA  UNL     1      -7.729 -10.631  17.841  0.00  0.00    +0.131 C 
ATOM      8  C   UNL     1      -8.310  -9.821  16.672  0.00  0.00    +0.171 C 
ATOM     11  C   UNL     1     -10.458  -9.798  17.630  0.00  0.00    +0.256 C 
ATOM     12  C   UNL     1      -9.921 -10.225  18.982  0.00  0.00    +0.239 C 
ATOM     20  H   UNL     1      -8.183 -10.776  19.920  0.00  0.00    +0.149 HD
ENDROOT
BRANCH   8   9
ATOM      9  C   UNL     1      -7.615 -10.074  15.352  0.00  0.00    -0.017 A 
ATOM     13  C   UNL     1      -8.348 -10.525  14.254  0.00  0.00    +0.008 A 
ATOM     14  C   UNL     1      -6.242  -9.860  15.234  0.00  0.00    +0.008 A 
ATOM     15  C   UNL     1      -7.707 -10.759  13.037  0.00  0.00    +0.023 A 
ATOM     16  C   UNL     1      -5.602 -10.094  14.017  0.00  0.00    +0.023 A 
ATOM     17  C   UNL     1      -6.334 -10.545  12.918  0.00  0.00    +0.033 A 
BRANCH  17   6
ATOM      4  O   UNL     1      -4.797  -8.676  11.126  0.00  0.00    -0.276 OA
ATOM      6  N   UNL     1      -5.694 -10.779  11.702  0.00  0.00    -0.286 N 
ATOM     18  C   UNL     1      -4.990  -9.867  10.904  0.00  0.00    +0.214 C 
ATOM     19  C   UNL     1      -4.443 -10.519   9.658  0.00  0.00    +0.109 C 
ATOM     22  H   UNL     1      -5.750 -11.737  11.359  0.00  0.00    +0.155 HD
ENDBRANCH  17   6
ENDBRANCH   8   9
BRANCH   7  10
ATOM     10  C   UNL     1      -6.294 -10.228  18.177  0.00  0.00    +0.181 C 
BRANCH  10   2
ATOM      2  O   UNL     1      -6.169 -10.138  19.584  0.00  0.00    -0.393 OA
ATOM     21  H   UNL     1      -5.231 -10.270  19.798  0.00  0.00    +0.209 HD
ENDBRANCH  10   2
ENDBRANCH   7  10
TORSDOF 4
ENDMDL
MODEL 6
REMARK VINA RESULT:      -3.6      1.446      1.593
REMARK  Name = 71693227
REMARK  5 active torsions:
REMARK  status: ('A' for Active; 'I' for Inactive)
REMARK    1  A    between atoms: O_2  and  C_10
REMARK    2  A    between atoms: N_6  and  C_17
REMARK    3  A    between atoms: CA_7  and  C_10
REMARK    4  A    between atoms: C_8  and  C_9
REMARK    5  A    between atoms: C_18  and  C_19
REMARK                            x       y       z     vdW  Elec       q    Type
REMARK                         _______ _______ _______ _____ _____    ______ ____
ROOT
ATOM      1  O   UNL     1      -2.207   2.936  24.943  0.00  0.00    -0.361 OA
ATOM      3  O   UNL     1      -5.715   3.300  25.598  0.00  0.00    -0.273 OA
ATOM      5  N   UNL     1      -4.570   1.540  24.674  0.00  0.00    -0.306 N 
ATOM      7  CA  UNL     1      -3.331   0.972  24.149  0.00  0.00    +0.131 C 
ATOM      8  C   UNL     1      -2.123   1.505  24.935  0.00  0.00    +0.171 C 
ATOM     11  C   UNL     1      -3.320   3.384  25.688  0.00  0.00    +0.256 C 
ATOM     12  C   UNL     1      -4.648   2.763  25.301  0.00  0.00    +0.239 C 
ATOM     20  H   UNL     1      -5.445   1.100  24.404  0.00  0.00    +0.149 HD
ENDROOT
BRANCH   8   9
ATOM      9  C   UNL     1      -0.789   1.127  24.329  0.00  0.00    -0.017 A 
ATOM     13  C   UNL     1       0.204   2.093  24.174  0.00  0.00    +0.008 A 
ATOM     14  C   UNL     1      -0.554  -0.187  23.923  0.00  0.00    +0.008 A 
ATOM     15  C   UNL     1       1.434   1.746  23.616  0.00  0.00    +0.023 A 
ATOM     16  C   UNL     1       0.676  -0.534  23.365  0.00  0.00    +0.023 A 
ATOM     17  C   UNL     1       1.670   0.432  23.210  0.00  0.00    +0.033 A 
BRANCH  17   6
ATOM      4  O   UNL     1       4.464   0.720  24.296  0.00  0.00    -0.276 OA
ATOM      6  N   UNL     1       2.900   0.085  22.650  0.00  0.00    -0.286 N 
ATOM     18  C   UNL     1       4.178   0.243  23.202  0.00  0.00    +0.214 C 
ATOM     19  C   UNL     1       5.255  -0.262  22.275  0.00  0.00    +0.109 C 
ATOM     22  H   UNL     1       2.852  -0.337  21.724  0.00  0.00    +0.155 HD
ENDBRANCH  17   6
ENDBRANCH   8   9
BRANCH   7  10
ATOM     10  C   UNL     1      -3.415  -0.553  24.168  0.00  0.00    +0.181 C 
BRANCH  10   2
ATOM      2  O   UNL     1      -3.665  -0.974  25.497  0.00  0.00    -0.393 OA
ATOM     21  H   UNL     1      -2.809  -1.221  25.884  0.00  0.00    +0.209 HD
ENDBRANCH  10   2
ENDBRANCH   7  10
TORSDOF 4
ENDMDL
MODEL 7
REMARK VINA RESULT:      -3.1      1.993      6.705
REMARK  Name = 71693227
REMARK  5 active torsions:
REMARK  status: ('A' for Active; 'I' for Inactive)
REMARK    1  A    between atoms: O_2  and  C_10
REMARK    2  A    between atoms: N_6  and  C_17
REMARK    3  A    between atoms: CA_7  and  C_10
REMARK    4  A    between atoms: C_8  and  C_9
REMARK    5  A    between atoms: C_18  and  C_19
REMARK                            x       y       z     vdW  Elec       q    Type
REMARK                         _______ _______ _______ _____ _____    ______ ____
ROOT
ATOM      1  O   UNL     1       1.493   1.612  23.595  0.00  0.00    -0.361 OA
ATOM      3  O   UNL     1       3.950  -0.976  23.229  0.00  0.00    -0.273 OA
ATOM      5  N   UNL     1       1.726  -1.130  23.775  0.00  0.00    -0.306 N 
ATOM      7  CA  UNL     1       0.461  -0.488  24.119  0.00  0.00    +0.131 C 
ATOM      8  C   UNL     1       0.309   0.839  23.359  0.00  0.00    +0.171 C 
ATOM     11  C   UNL     1       2.627   1.012  23.005  0.00  0.00    +0.256 C 
ATOM     12  C   UNL     1       2.848  -0.444  23.365  0.00  0.00    +0.239 C 
ATOM     20  H   UNL     1       1.845  -2.108  24.021  0.00  0.00    +0.149 HD
ENDROOT
BRANCH   8   9
ATOM      9  C   UNL     1      -0.876   1.665  23.809  0.00  0.00    -0.017 A 
ATOM     13  C   UNL     1      -2.039   1.692  23.040  0.00  0.00    +0.008 A 
ATOM     14  C   UNL     1      -0.805   2.401  24.992  0.00  0.00    +0.008 A 
ATOM     15  C   UNL     1      -3.131   2.454  23.454  0.00  0.00    +0.023 A 
ATOM     16  C   UNL     1      -1.897   3.163  25.406  0.00  0.00    +0.023 A 
ATOM     17  C   UNL     1      -3.061   3.191  24.636  0.00  0.00    +0.033 A 
BRANCH  17   6
ATOM      4  O   UNL     1      -5.786   2.342  25.596  0.00  0.00    -0.276 OA
ATOM      6  N   UNL     1      -4.153   3.953  25.050  0.00  0.00    -0.286 N 
ATOM     18  C   UNL     1      -5.406   3.505  25.488  0.00  0.00    +0.214 C 
ATOM     19  C   UNL     1      -6.317   4.652  25.848  0.00  0.00    +0.109 C 
ATOM     22  H   UNL     1      -4.012   4.962  25.027  0.00  0.00    +0.155 HD
ENDBRANCH  17   6
ENDBRANCH   8   9
BRANCH   7  10
ATOM     10  C   UNL     1      -0.694  -1.451  23.852  0.00  0.00    +0.181 C 
BRANCH  10   2
ATOM      2  O   UNL     1      -1.478  -1.551  25.027  0.00  0.00    -0.393 OA
ATOM     21  H   UNL     1      -2.134  -0.835  24.996  0.00  0.00    +0.209 HD
ENDBRANCH  10   2
ENDBRANCH   7  10
TORSDOF 4
ENDMDL
MODEL 8
REMARK VINA RESULT:      -2.7     15.335     17.304
REMARK  Name = 71693227
REMARK  5 active torsions:
REMARK  status: ('A' for Active; 'I' for Inactive)
REMARK    1  A    between atoms: O_2  and  C_10
REMARK    2  A    between atoms: N_6  and  C_17
REMARK    3  A    between atoms: CA_7  and  C_10
REMARK    4  A    between atoms: C_8  and  C_9
REMARK    5  A    between atoms: C_18  and  C_19
REMARK                            x       y       z     vdW  Elec       q    Type
REMARK                         _______ _______ _______ _____ _____    ______ ____
ROOT
ATOM      1  O   UNL     1      -3.101  -9.075  10.891  0.00  0.00    -0.361 OA
ATOM      3  O   UNL     1       0.483  -8.981  10.760  0.00  0.00    -0.273 OA
ATOM      5  N   UNL     1      -0.908  -9.616  12.472  0.00  0.00    -0.306 N 
ATOM      7  CA  UNL     1      -2.250  -9.736  13.034  0.00  0.00    +0.131 C 
ATOM      8  C   UNL     1      -3.267 -10.053  11.927  0.00  0.00    +0.171 C 
ATOM     11  C   UNL     1      -1.850  -9.209  10.250  0.00  0.00    +0.256 C 
ATOM     12  C   UNL     1      -0.649  -9.230  11.176  0.00  0.00    +0.239 C 
ATOM     20  H   UNL     1      -0.121  -9.640  13.114  0.00  0.00    +0.149 HD
ENDROOT
BRANCH   8   9
ATOM      9  C   UNL     1      -4.707  -9.993  12.388  0.00  0.00    -0.017 A 
ATOM     13  C   UNL     1      -5.129 -10.781  13.458  0.00  0.00    +0.008 A 
ATOM     14  C   UNL     1      -5.612  -9.151  11.741  0.00  0.00    +0.008 A 
ATOM     15  C   UNL     1      -6.456 -10.727  13.883  0.00  0.00    +0.023 A 
ATOM     16  C   UNL     1      -6.939  -9.097  12.167  0.00  0.00    +0.023 A 
ATOM     17  C   UNL     1      -7.362  -9.886  13.237  0.00  0.00    +0.033 A 
BRANCH  17   6
ATOM      4  O   UNL     1      -8.525  -9.272  15.946  0.00  0.00    -0.276 OA
ATOM      6  N   UNL     1      -8.690  -9.832  13.662  0.00  0.00    -0.286 N 
ATOM     18  C   UNL     1      -9.178  -9.541  14.943  0.00  0.00    +0.214 C 
ATOM     19  C   UNL     1     -10.685  -9.584  14.990  0.00  0.00    +0.109 C 
ATOM     22  H   UNL     1      -9.384 -10.030  12.943  0.00  0.00    +0.155 HD
ENDBRANCH  17   6
ENDBRANCH   8   9
BRANCH   7  10
ATOM     10  C   UNL     1      -2.252 -10.781  14.147  0.00  0.00    +0.181 C 
BRANCH  10   2
ATOM      2  O   UNL     1      -2.534 -10.132  15.373  0.00  0.00    -0.393 OA
ATOM     21  H   UNL     1      -3.330  -9.592  15.235  0.00  0.00    +0.209 HD
ENDBRANCH  10   2
ENDBRANCH   7  10
TORSDOF 4
ENDMDL
MODEL 9
REMARK VINA RESULT:      -2.6     15.032     17.174
REMARK  Name = 71693227
REMARK  5 active torsions:
REMARK  status: ('A' for Active; 'I' for Inactive)
REMARK    1  A    between atoms: O_2  and  C_10
REMARK    2  A    between atoms: N_6  and  C_17
REMARK    3  A    between atoms: CA_7  and  C_10
REMARK    4  A    between atoms: C_8  and  C_9
REMARK    5  A    between atoms: C_18  and  C_19
REMARK                            x       y       z     vdW  Elec       q    Type
REMARK                         _______ _______ _______ _____ _____    ______ ____
ROOT
ATOM      1  O   UNL     1      -3.078 -10.349  13.728  0.00  0.00    -0.361 OA
ATOM      3  O   UNL     1      -0.618 -10.184  11.122  0.00  0.00    -0.273 OA
ATOM      5  N   UNL     1      -2.909 -10.168  10.981  0.00  0.00    -0.306 N 
ATOM      7  CA  UNL     1      -4.217 -10.301  11.618  0.00  0.00    +0.131 C 
ATOM      8  C   UNL     1      -4.178  -9.732  13.044  0.00  0.00    +0.171 C 
ATOM     11  C   UNL     1      -1.840  -9.956  13.173  0.00  0.00    +0.256 C 
ATOM     12  C   UNL     1      -1.718 -10.138  11.673  0.00  0.00    +0.239 C 
ATOM     20  H   UNL     1      -2.857 -10.287   9.974  0.00  0.00    +0.149 HD
ENDROOT
BRANCH   8   9
ATOM      9  C   UNL     1      -5.430 -10.012  13.845  0.00  0.00    -0.017 A 
ATOM     13  C   UNL     1      -6.684  -9.755  13.290  0.00  0.00    +0.008 A 
ATOM     14  C   UNL     1      -5.332 -10.524  15.139  0.00  0.00    +0.008 A 
ATOM     15  C   UNL     1      -7.839 -10.013  14.027  0.00  0.00    +0.023 A 
ATOM     16  C   UNL     1      -6.488 -10.781  15.876  0.00  0.00    +0.023 A 
ATOM     17  C   UNL     1      -7.742 -10.525  15.321  0.00  0.00    +0.033 A 
BRANCH  17   6
ATOM      4  O   UNL     1      -9.047  -8.939  17.524  0.00  0.00    -0.276 OA
ATOM      6  N   UNL     1      -8.897 -10.781  16.059  0.00  0.00    -0.286 N 
ATOM     18  C   UNL     1      -9.462 -10.006  17.081  0.00  0.00    +0.214 C 
ATOM     19  C   UNL     1     -10.719 -10.632  17.629  0.00  0.00    +0.109 C 
ATOM     22  H   UNL     1      -9.384 -11.643  15.819  0.00  0.00    +0.155 HD
ENDBRANCH  17   6
ENDBRANCH   8   9
BRANCH   7  10
ATOM     10  C   UNL     1      -5.281  -9.632  10.750  0.00  0.00    +0.181 C 
BRANCH  10   2
ATOM      2  O   UNL     1      -4.889  -8.294  10.507  0.00  0.00    -0.393 OA
ATOM     21  H   UNL     1      -4.130  -8.108  11.086  0.00  0.00    +0.209 HD
ENDBRANCH  10   2
ENDBRANCH   7  10
TORSDOF 4
ENDMDL
MODEL 10
REMARK VINA RESULT:      -1.9      1.723      7.058
REMARK  Name = 71693227
REMARK  5 active torsions:
REMARK  status: ('A' for Active; 'I' for Inactive)
REMARK    1  A    between atoms: O_2  and  C_10
REMARK    2  A    between atoms: N_6  and  C_17
REMARK    3  A    between atoms: CA_7  and  C_10
REMARK    4  A    between atoms: C_8  and  C_9
REMARK    5  A    between atoms: C_18  and  C_19
REMARK                            x       y       z     vdW  Elec       q    Type
REMARK                         _______ _______ _______ _____ _____    ______ ____
ROOT
ATOM      1  O   UNL     1       0.566  -0.094  22.434  0.00  0.00    -0.361 OA
ATOM      3  O   UNL     1       4.097   0.478  22.159  0.00  0.00    -0.273 OA
ATOM      5  N   UNL     1       2.546   1.494  23.512  0.00  0.00    -0.306 N 
ATOM      7  CA  UNL     1       1.156   1.702  23.909  0.00  0.00    +0.131 C 
ATOM      8  C   UNL     1       0.357   0.398  23.764  0.00  0.00    +0.171 C 
ATOM     11  C   UNL     1       1.906  -0.495  22.236  0.00  0.00    +0.256 C 
ATOM     12  C   UNL     1       2.951   0.542  22.603  0.00  0.00    +0.239 C 
ATOM     20  H   UNL     1       3.226   2.200  23.777  0.00  0.00    +0.149 HD
ENDROOT
BRANCH   8   9
ATOM      9  C   UNL     1      -1.133   0.574  23.959  0.00  0.00    -0.017 A 
ATOM     13  C   UNL     1      -1.829   1.515  23.201  0.00  0.00    +0.008 A 
ATOM     14  C   UNL     1      -1.810  -0.204  24.898  0.00  0.00    +0.008 A 
ATOM     15  C   UNL     1      -3.203   1.677  23.381  0.00  0.00    +0.023 A 
ATOM     16  C   UNL     1      -3.183  -0.042  25.078  0.00  0.00    +0.023 A 
ATOM     17  C   UNL     1      -3.880   0.900  24.320  0.00  0.00    +0.033 A 
BRANCH  17   6
ATOM      4  O   UNL     1      -5.430   3.125  25.630  0.00  0.00    -0.276 OA
ATOM      6  N   UNL     1      -5.254   1.062  24.501  0.00  0.00    -0.286 N 
ATOM     18  C   UNL     1      -5.926   2.123  25.123  0.00  0.00    +0.214 C 
ATOM     19  C   UNL     1      -7.420   1.922  25.113  0.00  0.00    +0.109 C 
ATOM     22  H   UNL     1      -5.833   0.310  24.131  0.00  0.00    +0.155 HD
ENDBRANCH  17   6
ENDBRANCH   8   9
BRANCH   7  10
ATOM     10  C   UNL     1       1.105   2.266  25.327  0.00  0.00    +0.181 C 
BRANCH  10   2
ATOM      2  O   UNL     1       0.053   3.212  25.397  0.00  0.00    -0.393 OA
ATOM     21  H   UNL     1      -0.656   2.813  25.929  0.00  0.00    +0.209 HD
ENDBRANCH  10   2
ENDBRANCH   7  10
TORSDOF 4
ENDMDL
