MODEL 1
REMARK VINA RESULT:      -3.0      0.000      0.000
REMARK  Name = 40781555
REMARK  9 active torsions:
REMARK  status: ('A' for Active; 'I' for Inactive)
REMARK    1  A    between atoms: S_2  and  N_10
REMARK    2  A    between atoms: S_2  and  C_24
REMARK    3  A    between atoms: O_4  and  C_12
REMARK    4  A    between atoms: O_5  and  C_13
REMARK    5  A    between atoms: N_10  and  C_21
REMARK    6  A    between atoms: C_11  and  C_15
REMARK    7  A    between atoms: C_14  and  C_21
REMARK    8  A    between atoms: C_15  and  C_22
REMARK    9  A    between atoms: C_16  and  C_23
REMARK                            x       y       z     vdW  Elec       q    Type
REMARK                         _______ _______ _______ _____ _____    ______ ____
ROOT
ATOM      3  O   UNL     1      -2.103   3.158  23.359  0.00  0.00    -0.366 OA
ATOM     11  C   UNL     1      -3.157   3.761  24.130  0.00  0.00    +0.158 C 
ATOM     12  C   UNL     1      -2.697   3.698  25.576  0.00  0.00    +0.175 C 
ATOM     13  C   UNL     1      -1.204   3.911  25.428  0.00  0.00    +0.175 C 
ATOM     14  C   UNL     1      -0.897   3.130  24.156  0.00  0.00    +0.165 C 
ENDROOT
BRANCH  12   4
ATOM      4  O   UNL     1      -3.325   4.678  26.376  0.00  0.00    -0.387 OA
ATOM     30  H   UNL     1      -2.927   5.536  26.151  0.00  0.00    +0.210 HD
ENDBRANCH  12   4
BRANCH  13   5
ATOM      5  O   UNL     1      -0.922   5.288  25.182  0.00  0.00    -0.387 OA
ATOM     31  H   UNL     1      -0.320   5.591  25.884  0.00  0.00    +0.210 HD
ENDBRANCH  13   5
BRANCH  11  15
ATOM     15  C   UNL     1      -4.460   3.022  23.880  0.00  0.00    +0.130 C 
BRANCH  15  22
ATOM      6  O   UNL     1      -5.137   2.472  26.083  0.00  0.00    -0.276 OA
ATOM      9  N   UNL     1      -4.471   0.703  24.731  0.00  0.00    -0.301 N 
ATOM     16  C   UNL     1      -2.961  -1.773  24.716  0.00  0.00    -0.011 C 
ATOM     17  C   UNL     1      -2.724  -0.674  23.670  0.00  0.00    +0.022 C 
ATOM     18  C   UNL     1      -3.499  -1.159  26.017  0.00  0.00    +0.022 C 
ATOM     19  C   UNL     1      -3.980   0.170  23.456  0.00  0.00    +0.108 C 
ATOM     20  C   UNL     1      -4.739  -0.307  25.756  0.00  0.00    +0.108 C 
ATOM     22  C   UNL     1      -4.723   2.048  25.000  0.00  0.00    +0.218 C 
ATOM     23  C   UNL     1      -1.680  -2.562  24.976  0.00  0.00    +0.007 C 
ENDBRANCH  15  22
ENDBRANCH  11  15
BRANCH  14  21
ATOM     21  C   UNL     1      -0.547   1.672  24.421  0.00  0.00    +0.140 C 
BRANCH  21  10
ATOM     10  N   UNL     1       0.762   1.356  23.928  0.00  0.00    -0.187 NA
ATOM     32  H   UNL     1       1.549   1.882  24.329  0.00  0.00    +0.148 HD
BRANCH  10   2
ATOM      2  S   UNL     1       1.110  -0.183  23.236  0.00  0.00    +0.058 S 
ATOM      7  O   UNL     1       0.692  -0.170  21.847  0.00  0.00    -0.153 OA
ATOM      8  O   UNL     1       0.667  -1.242  24.121  0.00  0.00    -0.153 OA
BRANCH   2  24
ATOM      1 CL   UNL     1       7.387  -0.190  23.362  0.00  0.00    -0.084 Cl
ATOM     24  C   UNL     1       2.878  -0.185  23.272  0.00  0.00    +0.105 A 
ATOM     25  C   UNL     1       3.585   0.933  22.830  0.00  0.00    +0.030 A 
ATOM     26  C   UNL     1       3.563  -1.304  23.743  0.00  0.00    +0.030 A 
ATOM     27  C   UNL     1       4.980   0.932  22.857  0.00  0.00    +0.022 A 
ATOM     28  C   UNL     1       4.959  -1.306  23.771  0.00  0.00    +0.022 A 
ATOM     29  C   UNL     1       5.666  -0.188  23.328  0.00  0.00    +0.041 A 
ENDBRANCH   2  24
ENDBRANCH  10   2
ENDBRANCH  21  10
ENDBRANCH  14  21
TORSDOF 8
ENDMDL
MODEL 2
REMARK VINA RESULT:      -2.5      1.878      4.338
REMARK  Name = 40781555
REMARK  9 active torsions:
REMARK  status: ('A' for Active; 'I' for Inactive)
REMARK    1  A    between atoms: S_2  and  N_10
REMARK    2  A    between atoms: S_2  and  C_24
REMARK    3  A    between atoms: O_4  and  C_12
REMARK    4  A    between atoms: O_5  and  C_13
REMARK    5  A    between atoms: N_10  and  C_21
REMARK    6  A    between atoms: C_11  and  C_15
REMARK    7  A    between atoms: C_14  and  C_21
REMARK    8  A    between atoms: C_15  and  C_22
REMARK    9  A    between atoms: C_16  and  C_23
REMARK                            x       y       z     vdW  Elec       q    Type
REMARK                         _______ _______ _______ _____ _____    ______ ____
ROOT
ATOM      3  O   UNL     1      -2.214  -0.685  25.058  0.00  0.00    -0.366 OA
ATOM     11  C   UNL     1      -3.561  -0.731  24.554  0.00  0.00    +0.158 C 
ATOM     12  C   UNL     1      -3.675  -2.047  23.804  0.00  0.00    +0.175 C 
ATOM     13  C   UNL     1      -2.802  -2.953  24.649  0.00  0.00    +0.175 C 
ATOM     14  C   UNL     1      -1.662  -2.021  25.039  0.00  0.00    +0.165 C 
ENDROOT
BRANCH  12   4
ATOM      4  O   UNL     1      -5.012  -2.489  23.709  0.00  0.00    -0.387 OA
ATOM     30  H   UNL     1      -5.357  -2.574  24.613  0.00  0.00    +0.210 HD
ENDBRANCH  12   4
BRANCH  13   5
ATOM      5  O   UNL     1      -3.490  -3.335  25.838  0.00  0.00    -0.387 OA
ATOM     31  H   UNL     1      -4.313  -2.818  25.878  0.00  0.00    +0.210 HD
ENDBRANCH  13   5
BRANCH  11  15
ATOM     15  C   UNL     1      -3.822   0.484  23.681  0.00  0.00    +0.130 C 
BRANCH  15  22
ATOM      6  O   UNL     1      -5.549   1.787  24.647  0.00  0.00    -0.276 OA
ATOM      9  N   UNL     1      -3.370   2.439  25.122  0.00  0.00    -0.301 N 
ATOM     16  C   UNL     1      -1.644   4.752  25.409  0.00  0.00    -0.011 C 
ATOM     17  C   UNL     1      -1.263   3.564  24.514  0.00  0.00    +0.022 C 
ATOM     18  C   UNL     1      -3.171   4.861  25.525  0.00  0.00    +0.022 C 
ATOM     19  C   UNL     1      -1.918   2.271  24.997  0.00  0.00    +0.108 C 
ATOM     20  C   UNL     1      -3.787   3.543  25.989  0.00  0.00    +0.108 C 
ATOM     22  C   UNL     1      -4.332   1.625  24.526  0.00  0.00    +0.218 C 
ATOM     23  C   UNL     1      -1.045   6.050  24.874  0.00  0.00    +0.007 C 
ENDBRANCH  15  22
ENDBRANCH  11  15
BRANCH  14  21
ATOM     21  C   UNL     1      -0.512  -2.035  24.041  0.00  0.00    +0.140 C 
BRANCH  21  10
ATOM     10  N   UNL     1       0.399  -0.955  24.285  0.00  0.00    -0.187 NA
ATOM     32  H   UNL     1       1.018  -1.045  25.101  0.00  0.00    +0.148 HD
BRANCH  10   2
ATOM      2  S   UNL     1       0.914   0.087  23.013  0.00  0.00    +0.058 S 
ATOM      7  O   UNL     1       0.530   1.446  23.344  0.00  0.00    -0.153 OA
ATOM      8  O   UNL     1       0.557  -0.479  21.726  0.00  0.00    -0.153 OA
BRANCH   2  24
ATOM      1 CL   UNL     1       7.156  -0.340  23.532  0.00  0.00    -0.084 Cl
ATOM     24  C   UNL     1       2.672  -0.033  23.160  0.00  0.00    +0.105 A 
ATOM     25  C   UNL     1       3.476   1.051  22.809  0.00  0.00    +0.030 A 
ATOM     26  C   UNL     1       3.253  -1.212  23.626  0.00  0.00    +0.030 A 
ATOM     27  C   UNL     1       4.863   0.956  22.923  0.00  0.00    +0.022 A 
ATOM     28  C   UNL     1       4.641  -1.307  23.741  0.00  0.00    +0.022 A 
ATOM     29  C   UNL     1       5.445  -0.223  23.390  0.00  0.00    +0.041 A 
ENDBRANCH   2  24
ENDBRANCH  10   2
ENDBRANCH  21  10
ENDBRANCH  14  21
TORSDOF 8
ENDMDL
MODEL 3
REMARK VINA RESULT:      -2.2      2.745      6.784
REMARK  Name = 40781555
REMARK  9 active torsions:
REMARK  status: ('A' for Active; 'I' for Inactive)
REMARK    1  A    between atoms: S_2  and  N_10
REMARK    2  A    between atoms: S_2  and  C_24
REMARK    3  A    between atoms: O_4  and  C_12
REMARK    4  A    between atoms: O_5  and  C_13
REMARK    5  A    between atoms: N_10  and  C_21
REMARK    6  A    between atoms: C_11  and  C_15
REMARK    7  A    between atoms: C_14  and  C_21
REMARK    8  A    between atoms: C_15  and  C_22
REMARK    9  A    between atoms: C_16  and  C_23
REMARK                            x       y       z     vdW  Elec       q    Type
REMARK                         _______ _______ _______ _____ _____    ______ ____
ROOT
ATOM      3  O   UNL     1      -1.613   1.493  25.005  0.00  0.00    -0.366 OA
ATOM     11  C   UNL     1      -0.387   1.678  24.275  0.00  0.00    +0.158 C 
ATOM     12  C   UNL     1      -0.441   3.095  23.731  0.00  0.00    +0.175 C 
ATOM     13  C   UNL     1      -1.154   3.822  24.853  0.00  0.00    +0.175 C 
ATOM     14  C   UNL     1      -2.183   2.790  25.297  0.00  0.00    +0.165 C 
ENDROOT
BRANCH  12   4
ATOM      4  O   UNL     1       0.845   3.609  23.461  0.00  0.00    -0.387 OA
ATOM     30  H   UNL     1       1.267   3.016  22.816  0.00  0.00    +0.210 HD
ENDBRANCH  12   4
BRANCH  13   5
ATOM      5  O   UNL     1      -0.260   4.053  25.941  0.00  0.00    -0.387 OA
ATOM     31  H   UNL     1       0.139   3.198  26.176  0.00  0.00    +0.210 HD
ENDBRANCH  13   5
BRANCH  11  15
ATOM     15  C   UNL     1      -0.275   0.621  23.190  0.00  0.00    +0.130 C 
BRANCH  15  22
ATOM      6  O   UNL     1       0.185  -1.326  24.459  0.00  0.00    -0.276 OA
ATOM      9  N   UNL     1       1.914  -0.523  23.130  0.00  0.00    -0.301 N 
ATOM     16  C   UNL     1       4.774  -0.044  23.072  0.00  0.00    -0.011 C 
ATOM     17  C   UNL     1       3.762   1.049  22.696  0.00  0.00    +0.022 C 
ATOM     18  C   UNL     1       4.138  -1.040  24.054  0.00  0.00    +0.022 C 
ATOM     19  C   UNL     1       2.460   0.444  22.172  0.00  0.00    +0.108 C 
ATOM     20  C   UNL     1       2.830  -1.602  23.502  0.00  0.00    +0.108 C 
ATOM     22  C   UNL     1       0.621  -0.500  23.653  0.00  0.00    +0.218 C 
ATOM     23  C   UNL     1       6.040   0.569  23.664  0.00  0.00    +0.007 C 
ENDBRANCH  15  22
ENDBRANCH  11  15
BRANCH  14  21
ATOM     21  C   UNL     1      -3.501   2.899  24.543  0.00  0.00    +0.140 C 
BRANCH  21  10
ATOM     10  N   UNL     1      -4.611   2.976  25.447  0.00  0.00    -0.187 NA
ATOM     32  H   UNL     1      -4.912   3.915  25.736  0.00  0.00    +0.148 HD
BRANCH  10   2
ATOM      2  S   UNL     1      -5.774   1.709  25.547  0.00  0.00    +0.058 S 
ATOM      7  O   UNL     1      -6.720   1.863  24.458  0.00  0.00    -0.153 OA
ATOM      8  O   UNL     1      -6.249   1.570  26.910  0.00  0.00    -0.153 OA
BRANCH   2  24
ATOM      1 CL   UNL     1      -2.219  -3.319  24.322  0.00  0.00    -0.084 Cl
ATOM     24  C   UNL     1      -4.773   0.293  25.202  0.00  0.00    +0.105 A 
ATOM     25  C   UNL     1      -4.716  -0.221  23.907  0.00  0.00    +0.030 A 
ATOM     26  C   UNL     1      -4.040  -0.308  26.225  0.00  0.00    +0.030 A 
ATOM     27  C   UNL     1      -3.926  -1.338  23.634  0.00  0.00    +0.022 A 
ATOM     28  C   UNL     1      -3.251  -1.426  25.953  0.00  0.00    +0.022 A 
ATOM     29  C   UNL     1      -3.194  -1.940  24.657  0.00  0.00    +0.041 A 
ENDBRANCH   2  24
ENDBRANCH  10   2
ENDBRANCH  21  10
ENDBRANCH  14  21
TORSDOF 8
ENDMDL
MODEL 4
REMARK VINA RESULT:      -0.4      2.931      6.107
REMARK  Name = 40781555
REMARK  9 active torsions:
REMARK  status: ('A' for Active; 'I' for Inactive)
REMARK    1  A    between atoms: S_2  and  N_10
REMARK    2  A    between atoms: S_2  and  C_24
REMARK    3  A    between atoms: O_4  and  C_12
REMARK    4  A    between atoms: O_5  and  C_13
REMARK    5  A    between atoms: N_10  and  C_21
REMARK    6  A    between atoms: C_11  and  C_15
REMARK    7  A    between atoms: C_14  and  C_21
REMARK    8  A    between atoms: C_15  and  C_22
REMARK    9  A    between atoms: C_16  and  C_23
REMARK                            x       y       z     vdW  Elec       q    Type
REMARK                         _______ _______ _______ _____ _____    ______ ____
ROOT
ATOM      3  O   UNL     1      -2.358   3.337  26.124  0.00  0.00    -0.366 OA
ATOM     11  C   UNL     1      -0.989   3.780  26.114  0.00  0.00    +0.158 C 
ATOM     12  C   UNL     1      -0.777   4.434  24.760  0.00  0.00    +0.175 C 
ATOM     13  C   UNL     1      -2.127   5.080  24.522  0.00  0.00    +0.175 C 
ATOM     14  C   UNL     1      -3.083   4.036  25.086  0.00  0.00    +0.165 C 
ENDROOT
BRANCH  12   4
ATOM      4  O   UNL     1       0.290   5.358  24.778  0.00  0.00    -0.387 OA
ATOM     30  H   UNL     1       0.702   5.310  25.657  0.00  0.00    +0.210 HD
ENDBRANCH  12   4
BRANCH  13   5
ATOM      5  O   UNL     1      -2.253   6.266  25.305  0.00  0.00    -0.387 OA
ATOM     31  H   UNL     1      -2.474   5.994  26.212  0.00  0.00    +0.210 HD
ENDBRANCH  13   5
BRANCH  11  15
ATOM     15  C   UNL     1      -0.068   2.597  26.363  0.00  0.00    +0.130 C 
BRANCH  15  22
ATOM      6  O   UNL     1      -1.380   0.663  25.973  0.00  0.00    -0.276 OA
ATOM      9  N   UNL     1       0.116   1.256  24.297  0.00  0.00    -0.301 N 
ATOM     16  C   UNL     1       2.028   0.182  22.399  0.00  0.00    -0.011 C 
ATOM     17  C   UNL     1       2.390   1.332  23.350  0.00  0.00    +0.022 C 
ATOM     18  C   UNL     1       0.921  -0.687  23.015  0.00  0.00    +0.022 C 
ATOM     19  C   UNL     1       1.153   2.136  23.747  0.00  0.00    +0.108 C 
ATOM     20  C   UNL     1      -0.286   0.157  23.417  0.00  0.00    +0.108 C 
ATOM     22  C   UNL     1      -0.509   1.418  25.533  0.00  0.00    +0.218 C 
ATOM     23  C   UNL     1       3.259  -0.659  22.069  0.00  0.00    +0.007 C 
ENDBRANCH  15  22
ENDBRANCH  11  15
BRANCH  14  21
ATOM     21  C   UNL     1      -3.521   3.008  24.052  0.00  0.00    +0.140 C 
BRANCH  21  10
ATOM     10  N   UNL     1      -4.948   2.872  24.029  0.00  0.00    -0.187 NA
ATOM     32  H   UNL     1      -5.425   3.120  23.153  0.00  0.00    +0.148 HD
BRANCH  10   2
ATOM      2  S   UNL     1      -5.761   1.786  25.091  0.00  0.00    +0.058 S 
ATOM      7  O   UNL     1      -7.059   1.471  24.526  0.00  0.00    -0.153 OA
ATOM      8  O   UNL     1      -5.655   2.250  26.460  0.00  0.00    -0.153 OA
BRANCH   2  24
ATOM      1 CL   UNL     1      -2.152  -3.329  24.606  0.00  0.00    -0.084 Cl
ATOM     24  C   UNL     1      -4.744   0.346  24.954  0.00  0.00    +0.105 A 
ATOM     25  C   UNL     1      -4.440  -0.176  23.697  0.00  0.00    +0.030 A 
ATOM     26  C   UNL     1      -4.247  -0.268  26.104  0.00  0.00    +0.030 A 
ATOM     27  C   UNL     1      -3.638  -1.313  23.589  0.00  0.00    +0.022 A 
ATOM     28  C   UNL     1      -3.446  -1.405  25.996  0.00  0.00    +0.022 A 
ATOM     29  C   UNL     1      -3.141  -1.927  24.739  0.00  0.00    +0.041 A 
ENDBRANCH   2  24
ENDBRANCH  10   2
ENDBRANCH  21  10
ENDBRANCH  14  21
TORSDOF 8
ENDMDL
MODEL 5
REMARK VINA RESULT:      -0.1      2.775      6.985
REMARK  Name = 40781555
REMARK  9 active torsions:
REMARK  status: ('A' for Active; 'I' for Inactive)
REMARK    1  A    between atoms: S_2  and  N_10
REMARK    2  A    between atoms: S_2  and  C_24
REMARK    3  A    between atoms: O_4  and  C_12
REMARK    4  A    between atoms: O_5  and  C_13
REMARK    5  A    between atoms: N_10  and  C_21
REMARK    6  A    between atoms: C_11  and  C_15
REMARK    7  A    between atoms: C_14  and  C_21
REMARK    8  A    between atoms: C_15  and  C_22
REMARK    9  A    between atoms: C_16  and  C_23
REMARK                            x       y       z     vdW  Elec       q    Type
REMARK                         _______ _______ _______ _____ _____    ______ ____
ROOT
ATOM      3  O   UNL     1      -3.302   0.288  23.862  0.00  0.00    -0.366 OA
ATOM     11  C   UNL     1      -2.302  -0.724  24.073  0.00  0.00    +0.158 C 
ATOM     12  C   UNL     1      -2.966  -1.787  24.929  0.00  0.00    +0.175 C 
ATOM     13  C   UNL     1      -4.385  -1.760  24.398  0.00  0.00    +0.175 C 
ATOM     14  C   UNL     1      -4.603  -0.272  24.152  0.00  0.00    +0.165 C 
ENDROOT
BRANCH  12   4
ATOM      4  O   UNL     1      -2.342  -3.046  24.792  0.00  0.00    -0.387 OA
ATOM     30  H   UNL     1      -1.383  -2.893  24.754  0.00  0.00    +0.210 HD
ENDBRANCH  12   4
BRANCH  13   5
ATOM      5  O   UNL     1      -4.457  -2.433  23.143  0.00  0.00    -0.387 OA
ATOM     31  H   UNL     1      -3.555  -2.709  22.908  0.00  0.00    +0.210 HD
ENDBRANCH  13   5
BRANCH  11  15
ATOM     15  C   UNL     1      -1.077  -0.104  24.724  0.00  0.00    +0.130 C 
BRANCH  15  22
ATOM      6  O   UNL     1       0.087  -2.040  25.436  0.00  0.00    -0.276 OA
ATOM      9  N   UNL     1       1.084  -0.794  23.747  0.00  0.00    -0.301 N 
ATOM     16  C   UNL     1       3.628   0.230  22.803  0.00  0.00    -0.011 C 
ATOM     17  C   UNL     1       2.401   1.139  22.970  0.00  0.00    +0.022 C 
ATOM     18  C   UNL     1       3.541  -0.961  23.770  0.00  0.00    +0.022 C 
ATOM     19  C   UNL     1       1.101   0.349  22.827  0.00  0.00    +0.108 C 
ATOM     20  C   UNL     1       2.219  -1.708  23.610  0.00  0.00    +0.108 C 
ATOM     22  C   UNL     1       0.078  -1.071  24.673  0.00  0.00    +0.218 C 
ATOM     23  C   UNL     1       4.919   1.014  23.021  0.00  0.00    +0.007 C 
ENDBRANCH  15  22
ENDBRANCH  11  15
BRANCH  14  21
ATOM     21  C   UNL     1      -5.165   0.458  25.364  0.00  0.00    +0.140 C 
BRANCH  21  10
ATOM     10  N   UNL     1      -5.810   1.679  24.981  0.00  0.00    -0.187 NA
ATOM     32  H   UNL     1      -6.736   1.597  24.541  0.00  0.00    +0.148 HD
BRANCH  10   2
ATOM      2  S   UNL     1      -5.431   3.172  25.752  0.00  0.00    +0.058 S 
ATOM      7  O   UNL     1      -5.412   2.961  27.186  0.00  0.00    -0.153 OA
ATOM      8  O   UNL     1      -6.224   4.245  25.183  0.00  0.00    -0.153 OA
BRANCH   2  24
ATOM      1 CL   UNL     1       0.486   4.059  23.850  0.00  0.00    -0.084 Cl
ATOM     24  C   UNL     1      -3.765   3.423  25.216  0.00  0.00    +0.105 A 
ATOM     25  C   UNL     1      -3.421   3.202  23.882  0.00  0.00    +0.030 A 
ATOM     26  C   UNL     1      -2.796   3.841  26.127  0.00  0.00    +0.030 A 
ATOM     27  C   UNL     1      -2.106   3.398  23.460  0.00  0.00    +0.022 A 
ATOM     28  C   UNL     1      -1.480   4.038  25.705  0.00  0.00    +0.022 A 
ATOM     29  C   UNL     1      -1.136   3.817  24.371  0.00  0.00    +0.041 A 
ENDBRANCH   2  24
ENDBRANCH  10   2
ENDBRANCH  21  10
ENDBRANCH  14  21
TORSDOF 8
ENDMDL
MODEL 6
REMARK VINA RESULT:      -0.0      2.921      7.205
REMARK  Name = 40781555
REMARK  9 active torsions:
REMARK  status: ('A' for Active; 'I' for Inactive)
REMARK    1  A    between atoms: S_2  and  N_10
REMARK    2  A    between atoms: S_2  and  C_24
REMARK    3  A    between atoms: O_4  and  C_12
REMARK    4  A    between atoms: O_5  and  C_13
REMARK    5  A    between atoms: N_10  and  C_21
REMARK    6  A    between atoms: C_11  and  C_15
REMARK    7  A    between atoms: C_14  and  C_21
REMARK    8  A    between atoms: C_15  and  C_22
REMARK    9  A    between atoms: C_16  and  C_23
REMARK                            x       y       z     vdW  Elec       q    Type
REMARK                         _______ _______ _______ _____ _____    ______ ____
ROOT
ATOM      3  O   UNL     1      -1.638  -0.780  23.929  0.00  0.00    -0.366 OA
ATOM     11  C   UNL     1      -0.558   0.080  24.334  0.00  0.00    +0.158 C 
ATOM     12  C   UNL     1      -1.121   0.955  25.440  0.00  0.00    +0.175 C 
ATOM     13  C   UNL     1      -2.059  -0.008  26.138  0.00  0.00    +0.175 C 
ATOM     14  C   UNL     1      -2.644  -0.787  24.967  0.00  0.00    +0.165 C 
ENDROOT
BRANCH  12   4
ATOM      4  O   UNL     1      -0.108   1.460  26.284  0.00  0.00    -0.387 OA
ATOM     30  H   UNL     1       0.012   0.823  27.009  0.00  0.00    +0.210 HD
ENDBRANCH  12   4
BRANCH  13   5
ATOM      5  O   UNL     1      -1.321  -0.918  26.952  0.00  0.00    -0.387 OA
ATOM     31  H   UNL     1      -0.805  -0.390  27.584  0.00  0.00    +0.210 HD
ENDBRANCH  13   5
BRANCH  11  15
ATOM     15  C   UNL     1      -0.058   0.870  23.137  0.00  0.00    +0.130 C 
BRANCH  15  22
ATOM      6  O   UNL     1       0.485  -0.932  21.698  0.00  0.00    -0.276 OA
ATOM      9  N   UNL     1       2.249   0.420  22.376  0.00  0.00    -0.301 N 
ATOM     16  C   UNL     1       5.009   0.371  23.264  0.00  0.00    -0.011 C 
ATOM     17  C   UNL     1       3.921   1.124  24.043  0.00  0.00    +0.022 C 
ATOM     18  C   UNL     1       4.389  -0.795  22.480  0.00  0.00    +0.022 C 
ATOM     19  C   UNL     1       2.783   1.563  23.125  0.00  0.00    +0.108 C 
ATOM     20  C   UNL     1       3.242  -0.317  21.593  0.00  0.00    +0.108 C 
ATOM     22  C   UNL     1       0.909   0.035  22.336  0.00  0.00    +0.218 C 
ATOM     23  C   UNL     1       6.105  -0.127  24.204  0.00  0.00    +0.007 C 
ENDBRANCH  15  22
ENDBRANCH  11  15
BRANCH  14  21
ATOM     21  C   UNL     1      -3.905  -0.151  24.397  0.00  0.00    +0.140 C 
BRANCH  21  10
ATOM     10  N   UNL     1      -4.824   0.201  25.439  0.00  0.00    -0.187 NA
ATOM     32  H   UNL     1      -4.726  -0.297  26.333  0.00  0.00    +0.148 HD
BRANCH  10   2
ATOM      2  S   UNL     1      -5.592   1.743  25.474  0.00  0.00    +0.058 S 
ATOM      7  O   UNL     1      -6.131   1.961  26.803  0.00  0.00    -0.153 OA
ATOM      8  O   UNL     1      -6.438   1.908  24.308  0.00  0.00    -0.153 OA
BRANCH   2  24
ATOM      1 CL   UNL     1      -0.676   5.576  24.727  0.00  0.00    -0.084 Cl
ATOM     24  C   UNL     1      -4.207   2.822  25.264  0.00  0.00    +0.105 A 
ATOM     25  C   UNL     1      -3.672   3.492  26.364  0.00  0.00    +0.030 A 
ATOM     26  C   UNL     1      -3.651   3.002  23.998  0.00  0.00    +0.030 A 
ATOM     27  C   UNL     1      -2.580   4.344  26.198  0.00  0.00    +0.022 A 
ATOM     28  C   UNL     1      -2.558   3.854  23.832  0.00  0.00    +0.022 A 
ATOM     29  C   UNL     1      -2.023   4.525  24.932  0.00  0.00    +0.041 A 
ENDBRANCH   2  24
ENDBRANCH  10   2
ENDBRANCH  21  10
ENDBRANCH  14  21
TORSDOF 8
ENDMDL
MODEL 7
REMARK VINA RESULT:       0.0      3.746      5.483
REMARK  Name = 40781555
REMARK  9 active torsions:
REMARK  status: ('A' for Active; 'I' for Inactive)
REMARK    1  A    between atoms: S_2  and  N_10
REMARK    2  A    between atoms: S_2  and  C_24
REMARK    3  A    between atoms: O_4  and  C_12
REMARK    4  A    between atoms: O_5  and  C_13
REMARK    5  A    between atoms: N_10  and  C_21
REMARK    6  A    between atoms: C_11  and  C_15
REMARK    7  A    between atoms: C_14  and  C_21
REMARK    8  A    between atoms: C_15  and  C_22
REMARK    9  A    between atoms: C_16  and  C_23
REMARK                            x       y       z     vdW  Elec       q    Type
REMARK                         _______ _______ _______ _____ _____    ______ ____
ROOT
ATOM      3  O   UNL     1       0.404   3.100  23.950  0.00  0.00    -0.366 OA
ATOM     11  C   UNL     1      -0.381   3.935  24.819  0.00  0.00    +0.158 C 
ATOM     12  C   UNL     1      -1.077   2.988  25.781  0.00  0.00    +0.175 C 
ATOM     13  C   UNL     1      -0.021   1.918  25.969  0.00  0.00    +0.175 C 
ATOM     14  C   UNL     1       0.568   1.803  24.568  0.00  0.00    +0.165 C 
ENDROOT
BRANCH  12   4
ATOM      4  O   UNL     1      -1.444   3.629  26.984  0.00  0.00    -0.387 OA
ATOM     30  H   UNL     1      -0.807   3.356  27.666  0.00  0.00    +0.210 HD
ENDBRANCH  12   4
BRANCH  13   5
ATOM      5  O   UNL     1       1.005   2.382  26.845  0.00  0.00    -0.387 OA
ATOM     31  H   UNL     1       1.702   1.705  26.861  0.00  0.00    +0.210 HD
ENDBRANCH  13   5
BRANCH  11  15
ATOM     15  C   UNL     1      -1.344   4.770  23.993  0.00  0.00    +0.130 C 
BRANCH  15  22
ATOM      6  O   UNL     1      -2.520   5.975  25.660  0.00  0.00    -0.276 OA
ATOM      9  N   UNL     1      -3.717   4.338  24.527  0.00  0.00    -0.301 N 
ATOM     16  C   UNL     1      -5.659   2.213  24.880  0.00  0.00    -0.011 C 
ATOM     17  C   UNL     1      -4.334   1.983  24.138  0.00  0.00    +0.022 C 
ATOM     18  C   UNL     1      -5.505   3.349  25.902  0.00  0.00    +0.022 C 
ATOM     19  C   UNL     1      -3.813   3.278  23.517  0.00  0.00    +0.108 C 
ATOM     20  C   UNL     1      -4.963   4.615  25.244  0.00  0.00    +0.108 C 
ATOM     22  C   UNL     1      -2.575   5.088  24.804  0.00  0.00    +0.218 C 
ATOM     23  C   UNL     1      -6.131   0.930  25.559  0.00  0.00    +0.007 C 
ENDBRANCH  15  22
ENDBRANCH  11  15
BRANCH  14  21
ATOM     21  C   UNL     1      -0.151   0.779  23.701  0.00  0.00    +0.140 C 
BRANCH  21  10
ATOM     10  N   UNL     1       0.243  -0.556  24.041  0.00  0.00    -0.187 NA
ATOM     32  H   UNL     1       1.169  -0.864  23.718  0.00  0.00    +0.148 HD
BRANCH  10   2
ATOM      2  S   UNL     1      -0.429  -1.368  25.404  0.00  0.00    +0.058 S 
ATOM      7  O   UNL     1      -0.697  -0.388  26.440  0.00  0.00    -0.153 OA
ATOM      8  O   UNL     1       0.342  -2.558  25.709  0.00  0.00    -0.153 OA
BRANCH   2  24
ATOM      1 CL   UNL     1      -5.937  -3.295  23.089  0.00  0.00    -0.084 Cl
ATOM     24  C   UNL     1      -1.980  -1.911  24.753  0.00  0.00    +0.105 A 
ATOM     25  C   UNL     1      -2.156  -3.247  24.394  0.00  0.00    +0.030 A 
ATOM     26  C   UNL     1      -3.027  -1.002  24.599  0.00  0.00    +0.030 A 
ATOM     27  C   UNL     1      -3.379  -3.676  23.879  0.00  0.00    +0.022 A 
ATOM     28  C   UNL     1      -4.251  -1.431  24.084  0.00  0.00    +0.022 A 
ATOM     29  C   UNL     1      -4.427  -2.767  23.724  0.00  0.00    +0.041 A 
ENDBRANCH   2  24
ENDBRANCH  10   2
ENDBRANCH  21  10
ENDBRANCH  14  21
TORSDOF 8
ENDMDL
MODEL 8
REMARK VINA RESULT:       0.0      3.697      7.162
REMARK  Name = 40781555
REMARK  9 active torsions:
REMARK  status: ('A' for Active; 'I' for Inactive)
REMARK    1  A    between atoms: S_2  and  N_10
REMARK    2  A    between atoms: S_2  and  C_24
REMARK    3  A    between atoms: O_4  and  C_12
REMARK    4  A    between atoms: O_5  and  C_13
REMARK    5  A    between atoms: N_10  and  C_21
REMARK    6  A    between atoms: C_11  and  C_15
REMARK    7  A    between atoms: C_14  and  C_21
REMARK    8  A    between atoms: C_15  and  C_22
REMARK    9  A    between atoms: C_16  and  C_23
REMARK                            x       y       z     vdW  Elec       q    Type
REMARK                         _______ _______ _______ _____ _____    ______ ____
ROOT
ATOM      3  O   UNL     1      -2.580  -1.238  23.211  0.00  0.00    -0.366 OA
ATOM     11  C   UNL     1      -2.127  -2.349  24.006  0.00  0.00    +0.158 C 
ATOM     12  C   UNL     1      -3.126  -2.475  25.144  0.00  0.00    +0.175 C 
ATOM     13  C   UNL     1      -4.419  -2.092  24.454  0.00  0.00    +0.175 C 
ATOM     14  C   UNL     1      -3.965  -0.971  23.527  0.00  0.00    +0.165 C 
ENDROOT
BRANCH  12   4
ATOM      4  O   UNL     1      -3.147  -3.776  25.689  0.00  0.00    -0.387 OA
ATOM     30  H   UNL     1      -3.855  -4.269  25.242  0.00  0.00    +0.210 HD
ENDBRANCH  12   4
BRANCH  13   5
ATOM      5  O   UNL     1      -4.889  -3.171  23.648  0.00  0.00    -0.387 OA
ATOM     31  H   UNL     1      -4.986  -3.946  24.227  0.00  0.00    +0.210 HD
ENDBRANCH  13   5
BRANCH  11  15
ATOM     15  C   UNL     1      -0.706  -2.093  24.478  0.00  0.00    +0.130 C 
BRANCH  15  22
ATOM      6  O   UNL     1       0.419  -0.773  22.864  0.00  0.00    -0.276 OA
ATOM      9  N   UNL     1      -0.494   0.360  24.675  0.00  0.00    -0.301 N 
ATOM     16  C   UNL     1       0.003   2.494  26.575  0.00  0.00    -0.011 C 
ATOM     17  C   UNL     1      -0.432   1.093  27.027  0.00  0.00    +0.022 C 
ATOM     18  C   UNL     1       0.750   2.411  25.236  0.00  0.00    +0.022 C 
ATOM     19  C   UNL     1      -1.237   0.383  25.940  0.00  0.00    +0.108 C 
ATOM     20  C   UNL     1      -0.079   1.676  24.185  0.00  0.00    +0.108 C 
ATOM     22  C   UNL     1      -0.208  -0.781  23.927  0.00  0.00    +0.218 C 
ATOM     23  C   UNL     1       0.869   3.165  27.639  0.00  0.00    +0.007 C 
ENDBRANCH  15  22
ENDBRANCH  11  15
BRANCH  14  21
ATOM     21  C   UNL     1      -4.038   0.405  24.175  0.00  0.00    +0.140 C 
BRANCH  21  10
ATOM     10  N   UNL     1      -5.154   0.498  25.070  0.00  0.00    -0.187 NA
ATOM     32  H   UNL     1      -5.290  -0.281  25.726  0.00  0.00    +0.148 HD
BRANCH  10   2
ATOM      2  S   UNL     1      -5.829   2.023  25.504  0.00  0.00    +0.058 S 
ATOM      7  O   UNL     1      -6.187   1.987  26.909  0.00  0.00    -0.153 OA
ATOM      8  O   UNL     1      -6.804   2.439  24.514  0.00  0.00    -0.153 OA
BRANCH   2  24
ATOM      1 CL   UNL     1      -0.850   5.794  24.872  0.00  0.00    -0.084 Cl
ATOM     24  C   UNL     1      -4.427   3.084  25.325  0.00  0.00    +0.105 A 
ATOM     25  C   UNL     1      -3.805   3.613  26.456  0.00  0.00    +0.030 A 
ATOM     26  C   UNL     1      -3.943   3.392  24.054  0.00  0.00    +0.030 A 
ATOM     27  C   UNL     1      -2.699   4.452  26.317  0.00  0.00    +0.022 A 
ATOM     28  C   UNL     1      -2.836   4.230  23.914  0.00  0.00    +0.022 A 
ATOM     29  C   UNL     1      -2.215   4.760  25.045  0.00  0.00    +0.041 A 
ENDBRANCH   2  24
ENDBRANCH  10   2
ENDBRANCH  21  10
ENDBRANCH  14  21
TORSDOF 8
ENDMDL
MODEL 9
REMARK VINA RESULT:       0.1      3.441      7.286
REMARK  Name = 40781555
REMARK  9 active torsions:
REMARK  status: ('A' for Active; 'I' for Inactive)
REMARK    1  A    between atoms: S_2  and  N_10
REMARK    2  A    between atoms: S_2  and  C_24
REMARK    3  A    between atoms: O_4  and  C_12
REMARK    4  A    between atoms: O_5  and  C_13
REMARK    5  A    between atoms: N_10  and  C_21
REMARK    6  A    between atoms: C_11  and  C_15
REMARK    7  A    between atoms: C_14  and  C_21
REMARK    8  A    between atoms: C_15  and  C_22
REMARK    9  A    between atoms: C_16  and  C_23
REMARK                            x       y       z     vdW  Elec       q    Type
REMARK                         _______ _______ _______ _____ _____    ______ ____
ROOT
ATOM      3  O   UNL     1       0.093   0.869  25.278  0.00  0.00    -0.366 OA
ATOM     11  C   UNL     1       0.306   1.864  24.261  0.00  0.00    +0.158 C 
ATOM     12  C   UNL     1      -0.880   2.808  24.354  0.00  0.00    +0.175 C 
ATOM     13  C   UNL     1      -1.139   2.821  25.847  0.00  0.00    +0.175 C 
ATOM     14  C   UNL     1      -0.874   1.370  26.229  0.00  0.00    +0.165 C 
ENDROOT
BRANCH  12   4
ATOM      4  O   UNL     1      -0.586   4.084  23.826  0.00  0.00    -0.387 OA
ATOM     30  H   UNL     1      -1.407   4.603  23.845  0.00  0.00    +0.210 HD
ENDBRANCH  12   4
BRANCH  13   5
ATOM      5  O   UNL     1      -0.175   3.638  26.510  0.00  0.00    -0.387 OA
ATOM     31  H   UNL     1       0.593   3.076  26.711  0.00  0.00    +0.210 HD
ENDBRANCH  13   5
BRANCH  11  15
ATOM     15  C   UNL     1       0.435   1.191  22.906  0.00  0.00    +0.130 C 
BRANCH  15  22
ATOM      6  O   UNL     1       0.392  -1.118  23.432  0.00  0.00    -0.276 OA
ATOM      9  N   UNL     1       2.442  -0.243  22.776  0.00  0.00    -0.301 N 
ATOM     16  C   UNL     1       5.286  -0.300  23.345  0.00  0.00    -0.011 C 
ATOM     17  C   UNL     1       4.507   1.020  23.240  0.00  0.00    +0.022 C 
ATOM     18  C   UNL     1       4.348  -1.435  23.784  0.00  0.00    +0.022 C 
ATOM     19  C   UNL     1       3.285   0.874  22.335  0.00  0.00    +0.108 C 
ATOM     20  C   UNL     1       3.131  -1.532  22.867  0.00  0.00    +0.108 C 
ATOM     22  C   UNL     1       1.080  -0.163  23.063  0.00  0.00    +0.218 C 
ATOM     23  C   UNL     1       6.461  -0.162  24.310  0.00  0.00    +0.007 C 
ENDBRANCH  15  22
ENDBRANCH  11  15
BRANCH  14  21
ATOM     21  C   UNL     1      -2.115   0.493  26.137  0.00  0.00    +0.140 C 
BRANCH  21  10
ATOM     10  N   UNL     1      -2.152  -0.225  24.897  0.00  0.00    -0.187 NA
ATOM     32  H   UNL     1      -1.546  -1.052  24.820  0.00  0.00    +0.148 HD
BRANCH  10   2
ATOM      2  S   UNL     1      -3.527  -0.155  23.862  0.00  0.00    +0.058 S 
ATOM      7  O   UNL     1      -4.417  -1.250  24.200  0.00  0.00    -0.153 OA
ATOM      8  O   UNL     1      -3.111   0.048  22.488  0.00  0.00    -0.153 OA
BRANCH   2  24
ATOM      1 CL   UNL     1      -6.224   5.185  25.769  0.00  0.00    -0.084 Cl
ATOM     24  C   UNL     1      -4.286   1.349  24.400  0.00  0.00    +0.105 A 
ATOM     25  C   UNL     1      -5.262   1.320  25.396  0.00  0.00    +0.030 A 
ATOM     26  C   UNL     1      -3.909   2.563  23.827  0.00  0.00    +0.030 A 
ATOM     27  C   UNL     1      -5.861   2.506  25.820  0.00  0.00    +0.022 A 
ATOM     28  C   UNL     1      -4.509   3.750  24.250  0.00  0.00    +0.022 A 
ATOM     29  C   UNL     1      -5.484   3.721  25.247  0.00  0.00    +0.041 A 
ENDBRANCH   2  24
ENDBRANCH  10   2
ENDBRANCH  21  10
ENDBRANCH  14  21
TORSDOF 8
ENDMDL
MODEL 10
REMARK VINA RESULT:       0.4      3.062      7.016
REMARK  Name = 40781555
REMARK  9 active torsions:
REMARK  status: ('A' for Active; 'I' for Inactive)
REMARK    1  A    between atoms: S_2  and  N_10
REMARK    2  A    between atoms: S_2  and  C_24
REMARK    3  A    between atoms: O_4  and  C_12
REMARK    4  A    between atoms: O_5  and  C_13
REMARK    5  A    between atoms: N_10  and  C_21
REMARK    6  A    between atoms: C_11  and  C_15
REMARK    7  A    between atoms: C_14  and  C_21
REMARK    8  A    between atoms: C_15  and  C_22
REMARK    9  A    between atoms: C_16  and  C_23
REMARK                            x       y       z     vdW  Elec       q    Type
REMARK                         _______ _______ _______ _____ _____    ______ ____
ROOT
ATOM      3  O   UNL     1      -3.205  -0.457  23.256  0.00  0.00    -0.366 OA
ATOM     11  C   UNL     1      -2.003  -0.031  23.923  0.00  0.00    +0.158 C 
ATOM     12  C   UNL     1      -2.267  -0.219  25.406  0.00  0.00    +0.175 C 
ATOM     13  C   UNL     1      -3.120  -1.471  25.406  0.00  0.00    +0.175 C 
ATOM     14  C   UNL     1      -3.983  -1.266  24.167  0.00  0.00    +0.165 C 
ENDROOT
BRANCH  12   4
ATOM      4  O   UNL     1      -1.072  -0.357  26.144  0.00  0.00    -0.387 OA
ATOM     30  H   UNL     1      -0.333  -0.178  25.539  0.00  0.00    +0.210 HD
ENDBRANCH  12   4
BRANCH  13   5
ATOM      5  O   UNL     1      -2.307  -2.624  25.195  0.00  0.00    -0.387 OA
ATOM     31  H   UNL     1      -2.883  -3.404  25.269  0.00  0.00    +0.210 HD
ENDBRANCH  13   5
BRANCH  11  15
ATOM     15  C   UNL     1      -1.691   1.406  23.543  0.00  0.00    +0.130 C 
BRANCH  15  22
ATOM      6  O   UNL     1      -0.255   2.825  24.783  0.00  0.00    -0.276 OA
ATOM      9  N   UNL     1       0.729   0.974  23.782  0.00  0.00    -0.301 N 
ATOM     16  C   UNL     1       3.075   0.088  22.325  0.00  0.00    -0.011 C 
ATOM     17  C   UNL     1       1.653  -0.192  21.817  0.00  0.00    +0.022 C 
ATOM     18  C   UNL     1       3.089   1.358  23.190  0.00  0.00    +0.022 C 
ATOM     19  C   UNL     1       0.652  -0.246  22.969  0.00  0.00    +0.108 C 
ATOM     20  C   UNL     1       2.060   1.272  24.315  0.00  0.00    +0.108 C 
ATOM     22  C   UNL     1      -0.346   1.804  24.096  0.00  0.00    +0.218 C 
ATOM     23  C   UNL     1       4.054   0.214  21.160  0.00  0.00    +0.007 C 
ENDBRANCH  15  22
ENDBRANCH  11  15
BRANCH  14  21
ATOM     21  C   UNL     1      -5.279  -0.522  24.460  0.00  0.00    +0.140 C 
BRANCH  21  10
ATOM     10  N   UNL     1      -5.130   0.357  25.582  0.00  0.00    -0.187 NA
ATOM     32  H   UNL     1      -4.268   0.263  26.134  0.00  0.00    +0.148 HD
BRANCH  10   2
ATOM      2  S   UNL     1      -5.952   1.870  25.650  0.00  0.00    +0.058 S 
ATOM      7  O   UNL     1      -6.464   2.058  26.994  0.00  0.00    -0.153 OA
ATOM      8  O   UNL     1      -6.834   2.013  24.508  0.00  0.00    -0.153 OA
BRANCH   2  24
ATOM      1 CL   UNL     1      -1.196   5.881  24.809  0.00  0.00    -0.084 Cl
ATOM     24  C   UNL     1      -4.613   3.000  25.414  0.00  0.00    +0.105 A 
ATOM     25  C   UNL     1      -4.339   3.499  24.140  0.00  0.00    +0.030 A 
ATOM     26  C   UNL     1      -3.832   3.392  26.500  0.00  0.00    +0.030 A 
ATOM     27  C   UNL     1      -3.282   4.390  23.953  0.00  0.00    +0.022 A 
ATOM     28  C   UNL     1      -2.774   4.283  26.313  0.00  0.00    +0.022 A 
ATOM     29  C   UNL     1      -2.500   4.782  25.040  0.00  0.00    +0.041 A 
ENDBRANCH   2  24
ENDBRANCH  10   2
ENDBRANCH  21  10
ENDBRANCH  14  21
TORSDOF 8
ENDMDL
