MODEL 1
REMARK VINA RESULT:      -5.4      0.000      0.000
REMARK  Name = 40779924
REMARK  10 active torsions:
REMARK  status: ('A' for Active; 'I' for Inactive)
REMARK    1  A    between atoms: O_1  and  C_20
REMARK    2  A    between atoms: O_1  and  C_22
REMARK    3  A    between atoms: N_4  and  C_14
REMARK    4  A    between atoms: N_5  and  C_15
REMARK    5  A    between atoms: N_6  and  C_23
REMARK    6  A    between atoms: C_8  and  C_14
REMARK    7  A    between atoms: C_10  and  C_15
REMARK    8  A    between atoms: C_16  and  C_20
REMARK    9  A    between atoms: C_23  and  C_24
REMARK   10  A    between atoms: C_23  and  C_25
REMARK                            x       y       z     vdW  Elec       q    Type
REMARK                         _______ _______ _______ _____ _____    ______ ____
ROOT
ATOM      3  N   UNL     1      -2.705  -1.919  24.044  0.00  0.00    -0.298 NA
ATOM      7  C   UNL     1      -2.963   0.062  25.710  0.00  0.00    -0.003 C 
ATOM      8  C   UNL     1      -3.838   0.279  24.454  0.00  0.00    +0.020 C 
ATOM      9  C   UNL     1      -1.495  -0.116  25.283  0.00  0.00    +0.024 C 
ATOM     10  C   UNL     1      -1.366  -1.386  24.412  0.00  0.00    +0.074 C 
ATOM     11  C   UNL     1      -3.536  -0.849  23.442  0.00  0.00    +0.089 C 
ATOM     12  C   UNL     1      -3.417  -1.266  26.347  0.00  0.00    +0.019 C 
ATOM     13  C   UNL     1      -3.372  -2.379  25.286  0.00  0.00    +0.085 C 
ENDROOT
BRANCH   8  14
ATOM     14  C   UNL     1      -3.661   1.661  23.828  0.00  0.00    +0.089 C 
BRANCH  14   4
ATOM      4  N   UNL     1      -2.732   2.441  24.636  0.00  0.00    -0.297 NA
ATOM     16  C   UNL     1      -3.264   3.752  25.033  0.00  0.00    +0.082 C 
ATOM     17  C   UNL     1      -1.501   2.739  23.901  0.00  0.00    +0.085 C 
ATOM     18  C   UNL     1      -2.007   4.505  25.475  0.00  0.00    +0.022 C 
ATOM     19  C   UNL     1      -0.856   3.840  24.728  0.00  0.00    +0.017 C 
BRANCH  16  20
ATOM     20  C   UNL     1      -4.297   3.673  26.149  0.00  0.00    +0.178 C 
BRANCH  20   1
ATOM      1  O   UNL     1      -5.578   3.499  25.569  0.00  0.00    -0.381 OA
ATOM     22  C   UNL     1      -6.219   2.325  26.053  0.00  0.00    +0.194 C 
ENDBRANCH  20   1
ENDBRANCH  16  20
ENDBRANCH  14   4
ENDBRANCH   8  14
BRANCH  10  15
ATOM     15  C   UNL     1      -0.474  -1.150  23.192  0.00  0.00    +0.124 C 
BRANCH  15   5
ATOM      2  O   UNL     1       1.743  -0.298  21.554  0.00  0.00    -0.253 OA
ATOM      5  N   UNL     1       0.887  -0.816  23.644  0.00  0.00    -0.298 N 
ATOM      6  N   UNL     1       3.058  -0.166  23.460  0.00  0.00    -0.297 N 
ATOM     21  C   UNL     1       1.875  -0.418  22.770  0.00  0.00    +0.300 C 
ATOM     26  H   UNL     1       1.096  -0.887  24.634  0.00  0.00    +0.150 HD
ATOM     27  H   UNL     1       3.046  -0.221  24.475  0.00  0.00    +0.150 HD
BRANCH   6  23
ATOM     23  C   UNL     1       4.269   0.267  22.805  0.00  0.00    +0.068 C 
ATOM     24  C   UNL     1       5.483  -0.069  23.661  0.00  0.00    +0.027 C 
ATOM     25  C   UNL     1       4.206   1.758  22.498  0.00  0.00    +0.027 C 
ENDBRANCH   6  23
ENDBRANCH  15   5
ENDBRANCH  10  15
TORSDOF 7
ENDMDL
MODEL 2
REMARK VINA RESULT:      -5.0      1.025      2.181
REMARK  Name = 40779924
REMARK  10 active torsions:
REMARK  status: ('A' for Active; 'I' for Inactive)
REMARK    1  A    between atoms: O_1  and  C_20
REMARK    2  A    between atoms: O_1  and  C_22
REMARK    3  A    between atoms: N_4  and  C_14
REMARK    4  A    between atoms: N_5  and  C_15
REMARK    5  A    between atoms: N_6  and  C_23
REMARK    6  A    between atoms: C_8  and  C_14
REMARK    7  A    between atoms: C_10  and  C_15
REMARK    8  A    between atoms: C_16  and  C_20
REMARK    9  A    between atoms: C_23  and  C_24
REMARK   10  A    between atoms: C_23  and  C_25
REMARK                            x       y       z     vdW  Elec       q    Type
REMARK                         _______ _______ _______ _____ _____    ______ ____
ROOT
ATOM      3  N   UNL     1      -2.644  -2.011  24.108  0.00  0.00    -0.298 NA
ATOM      7  C   UNL     1      -2.965   0.111  25.578  0.00  0.00    -0.003 C 
ATOM      8  C   UNL     1      -3.821   0.194  24.295  0.00  0.00    +0.020 C 
ATOM      9  C   UNL     1      -1.486  -0.079  25.194  0.00  0.00    +0.024 C 
ATOM     10  C   UNL     1      -1.320  -1.422  24.447  0.00  0.00    +0.074 C 
ATOM     11  C   UNL     1      -3.483  -1.017  23.397  0.00  0.00    +0.089 C 
ATOM     12  C   UNL     1      -3.407  -1.161  26.330  0.00  0.00    +0.019 C 
ATOM     13  C   UNL     1      -3.324  -2.367  25.377  0.00  0.00    +0.085 C 
ENDROOT
BRANCH   8  14
ATOM     14  C   UNL     1      -3.657   1.515  23.546  0.00  0.00    +0.089 C 
BRANCH  14   4
ATOM      4  N   UNL     1      -4.394   2.560  24.245  0.00  0.00    -0.297 NA
ATOM     16  C   UNL     1      -3.636   3.172  25.344  0.00  0.00    +0.082 C 
ATOM     17  C   UNL     1      -5.609   2.032  24.872  0.00  0.00    +0.085 C 
ATOM     18  C   UNL     1      -4.724   3.888  26.146  0.00  0.00    +0.022 C 
ATOM     19  C   UNL     1      -6.013   3.135  25.836  0.00  0.00    +0.017 C 
BRANCH  16  20
ATOM     20  C   UNL     1      -2.556   4.137  24.871  0.00  0.00    +0.178 C 
BRANCH  20   1
ATOM      1  O   UNL     1      -1.309   3.712  25.394  0.00  0.00    -0.381 OA
ATOM     22  C   UNL     1      -0.439   3.248  24.368  0.00  0.00    +0.194 C 
ENDBRANCH  20   1
ENDBRANCH  16  20
ENDBRANCH  14   4
ENDBRANCH   8  14
BRANCH  10  15
ATOM     15  C   UNL     1      -0.412  -1.283  23.224  0.00  0.00    +0.124 C 
BRANCH  15   5
ATOM      2  O   UNL     1       1.758  -0.303  21.594  0.00  0.00    -0.253 OA
ATOM      5  N   UNL     1       0.951  -0.950  23.669  0.00  0.00    -0.298 N 
ATOM      6  N   UNL     1       3.106  -0.250  23.481  0.00  0.00    -0.297 N 
ATOM     21  C   UNL     1       1.915  -0.487  22.800  0.00  0.00    +0.300 C 
ATOM     26  H   UNL     1       1.181  -1.070  24.650  0.00  0.00    +0.150 HD
ATOM     27  H   UNL     1       3.115  -0.360  24.492  0.00  0.00    +0.150 HD
BRANCH   6  23
ATOM     23  C   UNL     1       4.297   0.241  22.829  0.00  0.00    +0.068 C 
ATOM     24  C   UNL     1       5.517   0.007  23.710  0.00  0.00    +0.027 C 
ATOM     25  C   UNL     1       4.144   1.715  22.477  0.00  0.00    +0.027 C 
ENDBRANCH   6  23
ENDBRANCH  15   5
ENDBRANCH  10  15
TORSDOF 7
ENDMDL
MODEL 3
REMARK VINA RESULT:      -3.8      2.256      5.144
REMARK  Name = 40779924
REMARK  10 active torsions:
REMARK  status: ('A' for Active; 'I' for Inactive)
REMARK    1  A    between atoms: O_1  and  C_20
REMARK    2  A    between atoms: O_1  and  C_22
REMARK    3  A    between atoms: N_4  and  C_14
REMARK    4  A    between atoms: N_5  and  C_15
REMARK    5  A    between atoms: N_6  and  C_23
REMARK    6  A    between atoms: C_8  and  C_14
REMARK    7  A    between atoms: C_10  and  C_15
REMARK    8  A    between atoms: C_16  and  C_20
REMARK    9  A    between atoms: C_23  and  C_24
REMARK   10  A    between atoms: C_23  and  C_25
REMARK                            x       y       z     vdW  Elec       q    Type
REMARK                         _______ _______ _______ _____ _____    ______ ____
ROOT
ATOM      3  N   UNL     1      -3.035   3.814  26.241  0.00  0.00    -0.298 NA
ATOM      7  C   UNL     1      -4.278   3.044  24.090  0.00  0.00    -0.003 C 
ATOM      8  C   UNL     1      -3.799   1.828  24.915  0.00  0.00    +0.020 C 
ATOM      9  C   UNL     1      -3.070   3.934  23.745  0.00  0.00    +0.024 C 
ATOM     10  C   UNL     1      -2.451   4.484  25.049  0.00  0.00    +0.074 C 
ATOM     11  C   UNL     1      -2.948   2.340  26.099  0.00  0.00    +0.089 C 
ATOM     12  C   UNL     1      -5.205   3.869  25.004  0.00  0.00    +0.019 C 
ATOM     13  C   UNL     1      -4.469   4.186  26.318  0.00  0.00    +0.085 C 
ENDROOT
BRANCH   8  14
ATOM     14  C   UNL     1      -3.044   0.794  24.082  0.00  0.00    +0.089 C 
BRANCH  14   4
ATOM      4  N   UNL     1      -3.452  -0.544  24.490  0.00  0.00    -0.297 NA
ATOM     16  C   UNL     1      -2.323  -1.465  24.679  0.00  0.00    +0.082 C 
ATOM     17  C   UNL     1      -4.294  -1.181  23.474  0.00  0.00    +0.085 C 
ATOM     18  C   UNL     1      -3.004  -2.835  24.677  0.00  0.00    +0.022 C 
ATOM     19  C   UNL     1      -4.292  -2.644  23.884  0.00  0.00    +0.017 C 
BRANCH  16  20
ATOM     20  C   UNL     1      -1.550  -1.219  25.968  0.00  0.00    +0.178 C 
BRANCH  20   1
ATOM      1  O   UNL     1      -0.164  -1.239  25.676  0.00  0.00    -0.381 OA
ATOM     22  C   UNL     1       0.297  -2.556  25.402  0.00  0.00    +0.194 C 
ENDBRANCH  20   1
ENDBRANCH  16  20
ENDBRANCH  14   4
ENDBRANCH   8  14
BRANCH  10  15
ATOM     15  C   UNL     1      -0.923   4.410  25.027  0.00  0.00    +0.124 C 
BRANCH  15   5
ATOM      2  O   UNL     1       0.682   2.050  25.451  0.00  0.00    -0.253 OA
ATOM      5  N   UNL     1      -0.500   3.431  24.013  0.00  0.00    -0.298 N 
ATOM      6  N   UNL     1       0.525   1.577  23.186  0.00  0.00    -0.297 N 
ATOM     21  C   UNL     1       0.272   2.333  24.327  0.00  0.00    +0.300 C 
ATOM     26  H   UNL     1      -0.788   3.579  23.051  0.00  0.00    +0.150 HD
ATOM     27  H   UNL     1       0.078   1.852  22.315  0.00  0.00    +0.150 HD
BRANCH   6  23
ATOM     23  C   UNL     1       1.309   0.366  23.207  0.00  0.00    +0.068 C 
ATOM     24  C   UNL     1       2.767   0.674  22.890  0.00  0.00    +0.027 C 
ATOM     25  C   UNL     1       0.737  -0.658  22.236  0.00  0.00    +0.027 C 
ENDBRANCH   6  23
ENDBRANCH  15   5
ENDBRANCH  10  15
TORSDOF 7
ENDMDL
MODEL 4
REMARK VINA RESULT:      -3.7      2.745      5.613
REMARK  Name = 40779924
REMARK  10 active torsions:
REMARK  status: ('A' for Active; 'I' for Inactive)
REMARK    1  A    between atoms: O_1  and  C_20
REMARK    2  A    between atoms: O_1  and  C_22
REMARK    3  A    between atoms: N_4  and  C_14
REMARK    4  A    between atoms: N_5  and  C_15
REMARK    5  A    between atoms: N_6  and  C_23
REMARK    6  A    between atoms: C_8  and  C_14
REMARK    7  A    between atoms: C_10  and  C_15
REMARK    8  A    between atoms: C_16  and  C_20
REMARK    9  A    between atoms: C_23  and  C_24
REMARK   10  A    between atoms: C_23  and  C_25
REMARK                            x       y       z     vdW  Elec       q    Type
REMARK                         _______ _______ _______ _____ _____    ______ ____
ROOT
ATOM      3  N   UNL     1      -2.864   3.024  25.880  0.00  0.00    -0.298 NA
ATOM      7  C   UNL     1      -4.543   2.741  23.913  0.00  0.00    -0.003 C 
ATOM      8  C   UNL     1      -4.260   1.384  24.597  0.00  0.00    +0.020 C 
ATOM      9  C   UNL     1      -3.216   3.353  23.427  0.00  0.00    +0.024 C 
ATOM     10  C   UNL     1      -2.307   3.636  24.644  0.00  0.00    +0.074 C 
ATOM     11  C   UNL     1      -3.154   1.587  25.657  0.00  0.00    +0.089 C 
ATOM     12  C   UNL     1      -5.107   3.680  24.998  0.00  0.00    +0.019 C 
ATOM     13  C   UNL     1      -4.141   3.710  26.195  0.00  0.00    +0.085 C 
ENDROOT
BRANCH   8  14
ATOM     14  C   UNL     1      -3.899   0.276  23.610  0.00  0.00    +0.089 C 
BRANCH  14   4
ATOM      4  N   UNL     1      -3.427  -0.890  24.347  0.00  0.00    -0.297 NA
ATOM     16  C   UNL     1      -2.101  -1.353  23.916  0.00  0.00    +0.082 C 
ATOM     17  C   UNL     1      -4.311  -2.042  24.152  0.00  0.00    +0.085 C 
ATOM     18  C   UNL     1      -2.030  -2.763  24.505  0.00  0.00    +0.022 C 
ATOM     19  C   UNL     1      -3.479  -3.211  24.654  0.00  0.00    +0.017 C 
BRANCH  16  20
ATOM     20  C   UNL     1      -0.961  -0.474  24.415  0.00  0.00    +0.178 C 
BRANCH  20   1
ATOM      1  O   UNL     1       0.246  -0.916  23.821  0.00  0.00    -0.381 OA
ATOM     22  C   UNL     1       0.876   0.120  23.077  0.00  0.00    +0.194 C 
ENDBRANCH  20   1
ENDBRANCH  16  20
ENDBRANCH  14   4
ENDBRANCH   8  14
BRANCH  10  15
ATOM     15  C   UNL     1      -0.860   3.214  24.383  0.00  0.00    +0.124 C 
BRANCH  15   5
ATOM      2  O   UNL     1      -0.005   1.388  26.447  0.00  0.00    -0.253 OA
ATOM      5  N   UNL     1      -0.042   3.532  25.565  0.00  0.00    -0.298 N 
ATOM      6  N   UNL     1       1.081   3.145  27.503  0.00  0.00    -0.297 N 
ATOM     21  C   UNL     1       0.310   2.576  26.493  0.00  0.00    +0.300 C 
ATOM     26  H   UNL     1       0.266   4.490  25.694  0.00  0.00    +0.150 HD
ATOM     27  H   UNL     1       1.352   4.121  27.413  0.00  0.00    +0.150 HD
BRANCH   6  23
ATOM     23  C   UNL     1       1.596   2.385  28.617  0.00  0.00    +0.068 C 
ATOM     24  C   UNL     1       0.741   2.615  29.856  0.00  0.00    +0.027 C 
ATOM     25  C   UNL     1       3.054   2.742  28.879  0.00  0.00    +0.027 C 
ENDBRANCH   6  23
ENDBRANCH  15   5
ENDBRANCH  10  15
TORSDOF 7
ENDMDL
MODEL 5
REMARK VINA RESULT:      -2.8      2.544      6.958
REMARK  Name = 40779924
REMARK  10 active torsions:
REMARK  status: ('A' for Active; 'I' for Inactive)
REMARK    1  A    between atoms: O_1  and  C_20
REMARK    2  A    between atoms: O_1  and  C_22
REMARK    3  A    between atoms: N_4  and  C_14
REMARK    4  A    between atoms: N_5  and  C_15
REMARK    5  A    between atoms: N_6  and  C_23
REMARK    6  A    between atoms: C_8  and  C_14
REMARK    7  A    between atoms: C_10  and  C_15
REMARK    8  A    between atoms: C_16  and  C_20
REMARK    9  A    between atoms: C_23  and  C_24
REMARK   10  A    between atoms: C_23  and  C_25
REMARK                            x       y       z     vdW  Elec       q    Type
REMARK                         _______ _______ _______ _____ _____    ______ ____
ROOT
ATOM      3  N   UNL     1      -0.887   3.284  23.829  0.00  0.00    -0.298 NA
ATOM      7  C   UNL     1      -0.556   1.624  25.804  0.00  0.00    -0.003 C 
ATOM      8  C   UNL     1      -1.656   1.123  24.841  0.00  0.00    +0.020 C 
ATOM      9  C   UNL     1      -0.926   3.028  26.316  0.00  0.00    +0.024 C 
ATOM     10  C   UNL     1      -0.971   4.011  25.124  0.00  0.00    +0.074 C 
ATOM     11  C   UNL     1      -1.910   2.211  23.774  0.00  0.00    +0.089 C 
ATOM     12  C   UNL     1       0.735   1.767  24.974  0.00  0.00    +0.019 C 
ATOM     13  C   UNL     1       0.452   2.650  23.746  0.00  0.00    +0.085 C 
ENDROOT
BRANCH   8  14
ATOM     14  C   UNL     1      -2.945   0.722  25.556  0.00  0.00    +0.089 C 
BRANCH  14   4
ATOM      4  N   UNL     1      -3.239  -0.676  25.270  0.00  0.00    -0.297 NA
ATOM     16  C   UNL     1      -2.103  -1.403  24.689  0.00  0.00    +0.082 C 
ATOM     17  C   UNL     1      -4.316  -0.809  24.286  0.00  0.00    +0.085 C 
ATOM     18  C   UNL     1      -2.765  -2.656  24.112  0.00  0.00    +0.022 C 
ATOM     19  C   UNL     1      -4.212  -2.260  23.846  0.00  0.00    +0.017 C 
BRANCH  16  20
ATOM     20  C   UNL     1      -1.023  -1.752  25.706  0.00  0.00    +0.178 C 
BRANCH  20   1
ATOM      1  O   UNL     1       0.231  -1.766  25.049  0.00  0.00    -0.381 OA
ATOM     22  C   UNL     1       0.149  -1.199  23.747  0.00  0.00    +0.194 C 
ENDBRANCH  20   1
ENDBRANCH  16  20
ENDBRANCH  14   4
ENDBRANCH   8  14
BRANCH  10  15
ATOM     15  C   UNL     1      -2.187   4.937  25.197  0.00  0.00    +0.124 C 
BRANCH  15   5
ATOM      2  O   UNL     1      -4.574   3.649  24.214  0.00  0.00    -0.253 OA
ATOM      5  N   UNL     1      -3.239   4.291  25.997  0.00  0.00    -0.298 N 
ATOM      6  N   UNL     1      -5.176   3.171  26.403  0.00  0.00    -0.297 N 
ATOM     21  C   UNL     1      -4.345   3.703  25.421  0.00  0.00    +0.300 C 
ATOM     26  H   UNL     1      -3.142   4.285  27.007  0.00  0.00    +0.150 HD
ATOM     27  H   UNL     1      -4.862   3.199  27.369  0.00  0.00    +0.150 HD
BRANCH   6  23
ATOM     23  C   UNL     1      -6.412   2.491  26.097  0.00  0.00    +0.068 C 
ATOM     24  C   UNL     1      -6.733   1.465  27.176  0.00  0.00    +0.027 C 
ATOM     25  C   UNL     1      -6.339   1.842  24.721  0.00  0.00    +0.027 C 
ENDBRANCH   6  23
ENDBRANCH  15   5
ENDBRANCH  10  15
TORSDOF 7
ENDMDL
MODEL 6
REMARK VINA RESULT:      -2.5      1.824      3.839
REMARK  Name = 40779924
REMARK  10 active torsions:
REMARK  status: ('A' for Active; 'I' for Inactive)
REMARK    1  A    between atoms: O_1  and  C_20
REMARK    2  A    between atoms: O_1  and  C_22
REMARK    3  A    between atoms: N_4  and  C_14
REMARK    4  A    between atoms: N_5  and  C_15
REMARK    5  A    between atoms: N_6  and  C_23
REMARK    6  A    between atoms: C_8  and  C_14
REMARK    7  A    between atoms: C_10  and  C_15
REMARK    8  A    between atoms: C_16  and  C_20
REMARK    9  A    between atoms: C_23  and  C_24
REMARK   10  A    between atoms: C_23  and  C_25
REMARK                            x       y       z     vdW  Elec       q    Type
REMARK                         _______ _______ _______ _____ _____    ______ ____
ROOT
ATOM      3  N   UNL     1      -0.072   1.700  25.629  0.00  0.00    -0.298 NA
ATOM      7  C   UNL     1      -0.925   4.018  24.813  0.00  0.00    -0.003 C 
ATOM      8  C   UNL     1      -2.075   3.195  25.434  0.00  0.00    +0.020 C 
ATOM      9  C   UNL     1      -0.293   3.221  23.657  0.00  0.00    +0.024 C 
ATOM     10  C   UNL     1       0.326   1.918  24.213  0.00  0.00    +0.074 C 
ATOM     11  C   UNL     1      -1.547   1.781  25.767  0.00  0.00    +0.089 C 
ATOM     12  C   UNL     1       0.154   4.173  25.903  0.00  0.00    +0.019 C 
ATOM     13  C   UNL     1       0.528   2.782  26.446  0.00  0.00    +0.085 C 
ENDROOT
BRANCH   8  14
ATOM     14  C   UNL     1      -3.320   3.138  24.550  0.00  0.00    +0.089 C 
BRANCH  14   4
ATOM      4  N   UNL     1      -4.366   2.393  25.239  0.00  0.00    -0.297 NA
ATOM     16  C   UNL     1      -4.997   1.364  24.401  0.00  0.00    +0.082 C 
ATOM     17  C   UNL     1      -5.465   3.269  25.654  0.00  0.00    +0.085 C 
ATOM     18  C   UNL     1      -6.280   1.043  25.171  0.00  0.00    +0.022 C 
ATOM     19  C   UNL     1      -6.583   2.295  25.987  0.00  0.00    +0.017 C 
BRANCH  16  20
ATOM     20  C   UNL     1      -4.131   0.127  24.206  0.00  0.00    +0.178 C 
BRANCH  20   1
ATOM      1  O   UNL     1      -4.150  -0.633  25.402  0.00  0.00    -0.381 OA
ATOM     22  C   UNL     1      -3.480  -1.878  25.245  0.00  0.00    +0.194 C 
ENDBRANCH  20   1
ENDBRANCH  16  20
ENDBRANCH  14   4
ENDBRANCH   8  14
BRANCH  10  15
ATOM     15  C   UNL     1       0.010   0.715  23.323  0.00  0.00    +0.124 C 
BRANCH  15   5
ATOM      2  O   UNL     1       2.797   1.438  23.139  0.00  0.00    -0.253 OA
ATOM      5  N   UNL     1       1.165  -0.198  23.316  0.00  0.00    -0.298 N 
ATOM      6  N   UNL     1       3.353  -0.812  23.238  0.00  0.00    -0.297 N 
ATOM     21  C   UNL     1       2.462   0.258  23.223  0.00  0.00    +0.300 C 
ATOM     26  H   UNL     1       0.991  -1.196  23.379  0.00  0.00    +0.150 HD
ATOM     27  H   UNL     1       2.983  -1.747  23.387  0.00  0.00    +0.150 HD
BRANCH   6  23
ATOM     23  C   UNL     1       4.783  -0.640  23.154  0.00  0.00    +0.068 C 
ATOM     24  C   UNL     1       5.491  -1.653  24.045  0.00  0.00    +0.027 C 
ATOM     25  C   UNL     1       5.173   0.786  23.522  0.00  0.00    +0.027 C 
ENDBRANCH   6  23
ENDBRANCH  15   5
ENDBRANCH  10  15
TORSDOF 7
ENDMDL
MODEL 7
REMARK VINA RESULT:      -2.2     15.461     17.475
REMARK  Name = 40779924
REMARK  10 active torsions:
REMARK  status: ('A' for Active; 'I' for Inactive)
REMARK    1  A    between atoms: O_1  and  C_20
REMARK    2  A    between atoms: O_1  and  C_22
REMARK    3  A    between atoms: N_4  and  C_14
REMARK    4  A    between atoms: N_5  and  C_15
REMARK    5  A    between atoms: N_6  and  C_23
REMARK    6  A    between atoms: C_8  and  C_14
REMARK    7  A    between atoms: C_10  and  C_15
REMARK    8  A    between atoms: C_16  and  C_20
REMARK    9  A    between atoms: C_23  and  C_24
REMARK   10  A    between atoms: C_23  and  C_25
REMARK                            x       y       z     vdW  Elec       q    Type
REMARK                         _______ _______ _______ _____ _____    ______ ____
ROOT
ATOM      3  N   UNL     1      -5.179  -8.318  10.345  0.00  0.00    -0.298 NA
ATOM      7  C   UNL     1      -7.287  -9.705   9.713  0.00  0.00    -0.003 C 
ATOM      8  C   UNL     1      -7.236  -9.440  11.234  0.00  0.00    +0.020 C 
ATOM      9  C   UNL     1      -5.997 -10.425   9.278  0.00  0.00    +0.024 C 
ATOM     10  C   UNL     1      -4.784  -9.505   9.541  0.00  0.00    +0.074 C 
ATOM     11  C   UNL     1      -5.899  -8.742  11.570  0.00  0.00    +0.089 C 
ATOM     12  C   UNL     1      -7.296  -8.329   9.019  0.00  0.00    +0.019 C 
ATOM     13  C   UNL     1      -6.104  -7.497   9.526  0.00  0.00    +0.085 C 
ENDROOT
BRANCH   8  14
ATOM     14  C   UNL     1      -7.441 -10.700  12.073  0.00  0.00    +0.089 C 
BRANCH  14   4
ATOM      4  N   UNL     1      -8.588 -10.514  12.952  0.00  0.00    -0.297 NA
ATOM     16  C   UNL     1      -9.726  -9.859  12.292  0.00  0.00    +0.082 C 
ATOM     17  C   UNL     1      -8.259  -9.647  14.087  0.00  0.00    +0.085 C 
ATOM     18  C   UNL     1     -10.587  -9.411  13.475  0.00  0.00    +0.022 C 
ATOM     19  C   UNL     1      -9.621  -9.271  14.646  0.00  0.00    +0.017 C 
BRANCH  16  20
ATOM     20  C   UNL     1     -10.493 -10.781  11.352  0.00  0.00    +0.178 C 
BRANCH  20   1
ATOM      1  O   UNL     1     -10.720 -10.096  10.133  0.00  0.00    -0.381 OA
ATOM     22  C   UNL     1     -10.717  -8.685  10.313  0.00  0.00    +0.194 C 
ENDBRANCH  20   1
ENDBRANCH  16  20
ENDBRANCH  14   4
ENDBRANCH   8  14
BRANCH  10  15
ATOM     15  C   UNL     1      -3.615 -10.270  10.164  0.00  0.00    +0.124 C 
BRANCH  15   5
ATOM      2  O   UNL     1      -1.626 -10.091  12.247  0.00  0.00    -0.253 OA
ATOM      5  N   UNL     1      -2.424  -9.405  10.181  0.00  0.00    -0.298 N 
ATOM      6  N   UNL     1      -0.505  -8.494  10.992  0.00  0.00    -0.297 N 
ATOM     21  C   UNL     1      -1.535  -9.400  11.234  0.00  0.00    +0.300 C 
ATOM     26  H   UNL     1      -2.261  -8.794   9.388  0.00  0.00    +0.150 HD
ATOM     27  H   UNL     1      -0.476  -8.024  10.091  0.00  0.00    +0.150 HD
BRANCH   6  23
ATOM     23  C   UNL     1       0.576  -8.271  11.923  0.00  0.00    +0.068 C 
ATOM     24  C   UNL     1       0.301  -7.034  12.766  0.00  0.00    +0.027 C 
ATOM     25  C   UNL     1       1.902  -8.152  11.182  0.00  0.00    +0.027 C 
ENDBRANCH   6  23
ENDBRANCH  15   5
ENDBRANCH  10  15
TORSDOF 7
ENDMDL
MODEL 8
REMARK VINA RESULT:      -2.2      2.429      3.857
REMARK  Name = 40779924
REMARK  10 active torsions:
REMARK  status: ('A' for Active; 'I' for Inactive)
REMARK    1  A    between atoms: O_1  and  C_20
REMARK    2  A    between atoms: O_1  and  C_22
REMARK    3  A    between atoms: N_4  and  C_14
REMARK    4  A    between atoms: N_5  and  C_15
REMARK    5  A    between atoms: N_6  and  C_23
REMARK    6  A    between atoms: C_8  and  C_14
REMARK    7  A    between atoms: C_10  and  C_15
REMARK    8  A    between atoms: C_16  and  C_20
REMARK    9  A    between atoms: C_23  and  C_24
REMARK   10  A    between atoms: C_23  and  C_25
REMARK                            x       y       z     vdW  Elec       q    Type
REMARK                         _______ _______ _______ _____ _____    ______ ____
ROOT
ATOM      3  N   UNL     1      -1.984  -1.679  23.714  0.00  0.00    -0.298 NA
ATOM      7  C   UNL     1      -2.900  -1.139  26.088  0.00  0.00    -0.003 C 
ATOM      8  C   UNL     1      -3.520  -0.198  25.031  0.00  0.00    +0.020 C 
ATOM      9  C   UNL     1      -1.366  -1.016  26.044  0.00  0.00    +0.024 C 
ATOM     10  C   UNL     1      -0.855  -1.483  24.662  0.00  0.00    +0.074 C 
ATOM     11  C   UNL     1      -2.837  -0.466  23.671  0.00  0.00    +0.089 C 
ATOM     12  C   UNL     1      -3.253  -2.579  25.668  0.00  0.00    +0.019 C 
ATOM     13  C   UNL     1      -2.810  -2.806  24.212  0.00  0.00    +0.085 C 
ENDROOT
BRANCH   8  14
ATOM     14  C   UNL     1      -3.445   1.277  25.419  0.00  0.00    +0.089 C 
BRANCH  14   4
ATOM      4  N   UNL     1      -4.735   1.908  25.169  0.00  0.00    -0.297 NA
ATOM     16  C   UNL     1      -4.662   3.373  25.096  0.00  0.00    +0.082 C 
ATOM     17  C   UNL     1      -5.686   1.630  26.248  0.00  0.00    +0.085 C 
ATOM     18  C   UNL     1      -6.126   3.790  25.254  0.00  0.00    +0.022 C 
ATOM     19  C   UNL     1      -6.790   2.647  26.012  0.00  0.00    +0.017 C 
BRANCH  16  20
ATOM     20  C   UNL     1      -4.067   3.885  23.790  0.00  0.00    +0.178 C 
BRANCH  20   1
ATOM      1  O   UNL     1      -4.130   2.849  22.826  0.00  0.00    -0.381 OA
ATOM     22  C   UNL     1      -2.897   2.699  22.133  0.00  0.00    +0.194 C 
ENDBRANCH  20   1
ENDBRANCH  16  20
ENDBRANCH  14   4
ENDBRANCH   8  14
BRANCH  10  15
ATOM     15  C   UNL     1       0.219  -0.545  24.107  0.00  0.00    +0.124 C 
BRANCH  15   5
ATOM      2  O   UNL     1       0.648   1.772  25.772  0.00  0.00    -0.253 OA
ATOM      5  N   UNL     1      -0.357   0.797  23.924  0.00  0.00    -0.298 N 
ATOM      6  N   UNL     1      -0.755   2.988  24.381  0.00  0.00    -0.297 N 
ATOM     21  C   UNL     1      -0.084   1.837  24.785  0.00  0.00    +0.300 C 
ATOM     26  H   UNL     1      -0.978   0.952  23.137  0.00  0.00    +0.150 HD
ATOM     27  H   UNL     1      -1.276   2.963  23.509  0.00  0.00    +0.150 HD
BRANCH   6  23
ATOM     23  C   UNL     1      -0.659   4.240  25.093  0.00  0.00    +0.068 C 
ATOM     24  C   UNL     1      -1.813   4.379  26.078  0.00  0.00    +0.027 C 
ATOM     25  C   UNL     1      -0.624   5.409  24.116  0.00  0.00    +0.027 C 
ENDBRANCH   6  23
ENDBRANCH  15   5
ENDBRANCH  10  15
TORSDOF 7
ENDMDL
MODEL 9
REMARK VINA RESULT:      -2.0      2.510      3.460
REMARK  Name = 40779924
REMARK  10 active torsions:
REMARK  status: ('A' for Active; 'I' for Inactive)
REMARK    1  A    between atoms: O_1  and  C_20
REMARK    2  A    between atoms: O_1  and  C_22
REMARK    3  A    between atoms: N_4  and  C_14
REMARK    4  A    between atoms: N_5  and  C_15
REMARK    5  A    between atoms: N_6  and  C_23
REMARK    6  A    between atoms: C_8  and  C_14
REMARK    7  A    between atoms: C_10  and  C_15
REMARK    8  A    between atoms: C_16  and  C_20
REMARK    9  A    between atoms: C_23  and  C_24
REMARK   10  A    between atoms: C_23  and  C_25
REMARK                            x       y       z     vdW  Elec       q    Type
REMARK                         _______ _______ _______ _____ _____    ______ ____
ROOT
ATOM      3  N   UNL     1      -1.933  -1.928  23.927  0.00  0.00    -0.298 NA
ATOM      7  C   UNL     1      -3.435  -1.606  26.026  0.00  0.00    -0.003 C 
ATOM      8  C   UNL     1      -3.984  -0.802  24.827  0.00  0.00    +0.020 C 
ATOM      9  C   UNL     1      -1.985  -1.173  26.310  0.00  0.00    +0.024 C 
ATOM     10  C   UNL     1      -1.101  -1.514  25.089  0.00  0.00    +0.074 C 
ATOM     11  C   UNL     1      -2.980  -0.913  23.657  0.00  0.00    +0.089 C 
ATOM     12  C   UNL     1      -3.392  -3.085  25.592  0.00  0.00    +0.019 C 
ATOM     13  C   UNL     1      -2.604  -3.204  24.276  0.00  0.00    +0.085 C 
ENDROOT
BRANCH   8  14
ATOM     14  C   UNL     1      -4.293   0.654  25.168  0.00  0.00    +0.089 C 
BRANCH  14   4
ATOM      4  N   UNL     1      -3.533   1.528  24.284  0.00  0.00    -0.297 NA
ATOM     16  C   UNL     1      -4.252   2.757  23.921  0.00  0.00    +0.082 C 
ATOM     17  C   UNL     1      -3.235   0.873  23.008  0.00  0.00    +0.085 C 
ATOM     18  C   UNL     1      -3.463   3.263  22.711  0.00  0.00    +0.022 C 
ATOM     19  C   UNL     1      -2.802   2.025  22.116  0.00  0.00    +0.017 C 
BRANCH  16  20
ATOM     20  C   UNL     1      -4.292   3.789  25.041  0.00  0.00    +0.178 C 
BRANCH  20   1
ATOM      1  O   UNL     1      -5.590   3.792  25.607  0.00  0.00    -0.381 OA
ATOM     22  C   UNL     1      -6.178   5.087  25.568  0.00  0.00    +0.194 C 
ENDBRANCH  20   1
ENDBRANCH  16  20
ENDBRANCH  14   4
ENDBRANCH   8  14
BRANCH  10  15
ATOM     15  C   UNL     1      -0.142  -0.373  24.746  0.00  0.00    +0.124 C 
BRANCH  15   5
ATOM      2  O   UNL     1       0.863   2.271  24.179  0.00  0.00    -0.253 OA
ATOM      5  N   UNL     1      -0.767   0.909  25.107  0.00  0.00    -0.298 N 
ATOM      6  N   UNL     1      -0.993   3.168  25.242  0.00  0.00    -0.297 N 
ATOM     21  C   UNL     1      -0.197   2.122  24.784  0.00  0.00    +0.300 C 
ATOM     26  H   UNL     1      -1.647   0.892  25.612  0.00  0.00    +0.150 HD
ATOM     27  H   UNL     1      -1.890   2.944  25.665  0.00  0.00    +0.150 HD
BRANCH   6  23
ATOM     23  C   UNL     1      -0.649   4.556  25.049  0.00  0.00    +0.068 C 
ATOM     24  C   UNL     1      -1.831   5.449  25.402  0.00  0.00    +0.027 C 
ATOM     25  C   UNL     1      -0.182   4.798  23.619  0.00  0.00    +0.027 C 
ENDBRANCH   6  23
ENDBRANCH  15   5
ENDBRANCH  10  15
TORSDOF 7
ENDMDL
MODEL 10
REMARK VINA RESULT:      -1.8      2.156      4.572
REMARK  Name = 40779924
REMARK  10 active torsions:
REMARK  status: ('A' for Active; 'I' for Inactive)
REMARK    1  A    between atoms: O_1  and  C_20
REMARK    2  A    between atoms: O_1  and  C_22
REMARK    3  A    between atoms: N_4  and  C_14
REMARK    4  A    between atoms: N_5  and  C_15
REMARK    5  A    between atoms: N_6  and  C_23
REMARK    6  A    between atoms: C_8  and  C_14
REMARK    7  A    between atoms: C_10  and  C_15
REMARK    8  A    between atoms: C_16  and  C_20
REMARK    9  A    between atoms: C_23  and  C_24
REMARK   10  A    between atoms: C_23  and  C_25
REMARK                            x       y       z     vdW  Elec       q    Type
REMARK                         _______ _______ _______ _____ _____    ______ ____
ROOT
ATOM      3  N   UNL     1      -0.413   2.070  25.507  0.00  0.00    -0.298 NA
ATOM      7  C   UNL     1      -2.710   2.982  24.696  0.00  0.00    -0.003 C 
ATOM      8  C   UNL     1      -2.831   1.512  25.156  0.00  0.00    +0.020 C 
ATOM      9  C   UNL     1      -1.649   3.083  23.584  0.00  0.00    +0.024 C 
ATOM     10  C   UNL     1      -0.273   2.667  24.152  0.00  0.00    +0.074 C 
ATOM     11  C   UNL     1      -1.419   0.981  25.488  0.00  0.00    +0.089 C 
ATOM     12  C   UNL     1      -2.185   3.787  25.901  0.00  0.00    +0.019 C 
ATOM     13  C   UNL     1      -0.896   3.130  26.426  0.00  0.00    +0.085 C 
ENDROOT
BRANCH   8  14
ATOM     14  C   UNL     1      -3.546   0.621  24.142  0.00  0.00    +0.089 C 
BRANCH  14   4
ATOM      4  N   UNL     1      -3.417  -0.773  24.551  0.00  0.00    -0.297 NA
ATOM     16  C   UNL     1      -2.337  -1.486  23.856  0.00  0.00    +0.082 C 
ATOM     17  C   UNL     1      -4.630  -1.535  24.247  0.00  0.00    +0.085 C 
ATOM     18  C   UNL     1      -2.675  -2.953  24.127  0.00  0.00    +0.022 C 
ATOM     19  C   UNL     1      -4.178  -2.980  24.378  0.00  0.00    +0.017 C 
BRANCH  16  20
ATOM     20  C   UNL     1      -0.947  -1.123  24.365  0.00  0.00    +0.178 C 
BRANCH  20   1
ATOM      1  O   UNL     1      -0.683  -1.876  25.535  0.00  0.00    -0.381 OA
ATOM     22  C   UNL     1       0.536  -2.602  25.429  0.00  0.00    +0.194 C 
ENDBRANCH  20   1
ENDBRANCH  16  20
ENDBRANCH  14   4
ENDBRANCH   8  14
BRANCH  10  15
ATOM     15  C   UNL     1       0.487   1.756  23.187  0.00  0.00    +0.124 C 
BRANCH  15   5
ATOM      2  O   UNL     1       2.480  -0.063  22.164  0.00  0.00    -0.253 OA
ATOM      5  N   UNL     1       1.874   1.604  23.656  0.00  0.00    -0.298 N 
ATOM      6  N   UNL     1       3.986   0.763  23.723  0.00  0.00    -0.297 N 
ATOM     21  C   UNL     1       2.746   0.698  23.092  0.00  0.00    +0.300 C 
ATOM     26  H   UNL     1       2.191   2.188  24.423  0.00  0.00    +0.150 HD
ATOM     27  H   UNL     1       4.132   1.478  24.430  0.00  0.00    +0.150 HD
BRANCH   6  23
ATOM     23  C   UNL     1       5.101  -0.072  23.345  0.00  0.00    +0.068 C 
ATOM     24  C   UNL     1       4.907  -1.487  23.875  0.00  0.00    +0.027 C 
ATOM     25  C   UNL     1       6.410   0.529  23.840  0.00  0.00    +0.027 C 
ENDBRANCH   6  23
ENDBRANCH  15   5
ENDBRANCH  10  15
TORSDOF 7
ENDMDL
