MODEL 1
REMARK VINA RESULT:      12.7      0.000      0.000
REMARK  Name = 11941402
REMARK  5 active torsions:
REMARK  status: ('A' for Active; 'I' for Inactive)
REMARK    1  A    between atoms: O_4  and  C_33
REMARK    2  A    between atoms: O_4  and  C_34
REMARK    3  A    between atoms: N_6  and  C_9
REMARK    4  A    between atoms: N_7  and  C_13
REMARK    5  A    between atoms: C_26  and  C_28
REMARK                            x       y       z     vdW  Elec       q    Type
REMARK                         _______ _______ _______ _____ _____    ______ ____
ROOT
ATOM      1  O   UNL     1      -5.447  -1.376  24.637  0.00  0.00    -0.273 OA
ATOM      2  O   UNL     1      -2.046   1.432  21.755  0.00  0.00    -0.270 OA
ATOM      5  N   UNL     1      -3.648   1.074  23.366  0.00  0.00    -0.284 N 
ATOM      8  N   UNL     1      -3.217  -1.685  24.291  0.00  0.00    -0.283 N 
ATOM      9  C   UNL     1      -5.315   1.415  25.009  0.00  0.00    +0.105 C 
ATOM     10  C   UNL     1      -4.061   0.597  24.672  0.00  0.00    +0.183 C 
ATOM     11  C   UNL     1      -5.882   1.780  23.635  0.00  0.00    +0.043 C 
ATOM     12  C   UNL     1      -4.638   1.968  22.781  0.00  0.00    +0.111 C 
ATOM     16  C   UNL     1      -4.324  -0.888  24.499  0.00  0.00    +0.240 C 
ATOM     20  C   UNL     1      -2.413   0.875  22.789  0.00  0.00    +0.249 C 
ATOM     22  C   UNL     1      -1.484  -0.086  23.440  0.00  0.00    +0.059 A 
ATOM     23  C   UNL     1      -1.884  -1.291  24.042  0.00  0.00    +0.046 A 
ATOM     24  C   UNL     1      -0.112   0.183  23.277  0.00  0.00    +0.023 A 
ATOM     25  C   UNL     1      -0.900  -2.227  24.404  0.00  0.00    +0.024 A 
ATOM     26  C   UNL     1       0.851  -0.738  23.685  0.00  0.00    -0.017 A 
ATOM     27  C   UNL     1       0.456  -1.950  24.238  0.00  0.00    +0.010 A 
ATOM     37  H   UNL     1      -3.369  -2.683  24.415  0.00  0.00    +0.155 HD
ENDROOT
BRANCH   9   6
ATOM      3  O   UNL     1      -2.714   2.619  25.232  0.00  0.00    -0.253 OA
ATOM      6  N   UNL     1      -4.973   2.598  25.764  0.00  0.00    -0.294 N 
ATOM      7  N   UNL     1      -3.622   4.254  26.609  0.00  0.00    -0.297 N 
ATOM     21  C   UNL     1      -3.680   3.112  25.815  0.00  0.00    +0.300 C 
ATOM     35  H   UNL     1      -5.689   3.035  26.337  0.00  0.00    +0.151 HD
ATOM     36  H   UNL     1      -4.464   4.532  27.102  0.00  0.00    +0.151 HD
BRANCH   7  13
ATOM     13  C   UNL     1      -2.404   4.996  26.839  0.00  0.00    +0.074 C 
ATOM     14  C   UNL     1      -2.144   5.993  25.706  0.00  0.00    +0.022 C 
ATOM     15  C   UNL     1      -1.211   4.052  27.033  0.00  0.00    +0.022 C 
ATOM     17  C   UNL     1      -1.721   5.307  24.408  0.00  0.00    +0.002 C 
ATOM     18  C   UNL     1      -0.790   3.368  25.732  0.00  0.00    +0.002 C 
ATOM     19  C   UNL     1      -0.527   4.382  24.622  0.00  0.00    +0.000 C 
ENDBRANCH   7  13
ENDBRANCH   9   6
BRANCH  26  28
ATOM     28  C   UNL     1       2.257  -0.443  23.514  0.00  0.00    -0.018 A 
ATOM     29  C   UNL     1       2.654   0.794  23.008  0.00  0.00    +0.012 A 
ATOM     30  C   UNL     1       3.215  -1.398  23.855  0.00  0.00    +0.012 A 
ATOM     31  C   UNL     1       4.009   1.077  22.843  0.00  0.00    +0.046 A 
ATOM     32  C   UNL     1       4.571  -1.114  23.691  0.00  0.00    +0.046 A 
ATOM     33  C   UNL     1       4.968   0.124  23.184  0.00  0.00    +0.120 A 
BRANCH  33   4
ATOM      4  O   UNL     1       6.291   0.400  23.023  0.00  0.00    -0.495 OA
ATOM     34  C   UNL     1       7.192  -0.706  23.036  0.00  0.00    +0.277 C 
ENDBRANCH  33   4
ENDBRANCH  26  28
TORSDOF 4
ENDMDL
MODEL 2
REMARK VINA RESULT:      16.0      1.706      4.721
REMARK  Name = 11941402
REMARK  5 active torsions:
REMARK  status: ('A' for Active; 'I' for Inactive)
REMARK    1  A    between atoms: O_4  and  C_33
REMARK    2  A    between atoms: O_4  and  C_34
REMARK    3  A    between atoms: N_6  and  C_9
REMARK    4  A    between atoms: N_7  and  C_13
REMARK    5  A    between atoms: C_26  and  C_28
REMARK                            x       y       z     vdW  Elec       q    Type
REMARK                         _______ _______ _______ _____ _____    ______ ____
ROOT
ATOM      1  O   UNL     1      -3.499   5.588  24.177  0.00  0.00    -0.273 OA
ATOM      2  O   UNL     1      -0.418   2.429  27.056  0.00  0.00    -0.270 OA
ATOM      5  N   UNL     1      -2.335   3.074  25.961  0.00  0.00    -0.284 N 
ATOM      8  N   UNL     1      -1.426   4.760  23.728  0.00  0.00    -0.283 N 
ATOM      9  C   UNL     1      -4.571   3.190  25.199  0.00  0.00    +0.105 C 
ATOM     10  C   UNL     1      -3.107   3.279  24.750  0.00  0.00    +0.183 C 
ATOM     11  C   UNL     1      -4.519   3.612  26.669  0.00  0.00    +0.043 C 
ATOM     12  C   UNL     1      -3.183   3.063  27.145  0.00  0.00    +0.111 C 
ATOM     16  C   UNL     1      -2.704   4.648  24.236  0.00  0.00    +0.240 C 
ATOM     20  C   UNL     1      -0.997   2.754  26.019  0.00  0.00    +0.249 C 
ATOM     22  C   UNL     1      -0.204   2.831  24.764  0.00  0.00    +0.059 A 
ATOM     23  C   UNL     1      -0.374   3.819  23.779  0.00  0.00    +0.046 A 
ATOM     24  C   UNL     1       0.884   1.943  24.671  0.00  0.00    +0.023 A 
ATOM     25  C   UNL     1       0.589   3.934  22.761  0.00  0.00    +0.024 A 
ATOM     26  C   UNL     1       1.802   2.043  23.628  0.00  0.00    -0.017 A 
ATOM     27  C   UNL     1       1.662   3.048  22.679  0.00  0.00    +0.010 A 
ATOM     37  H   UNL     1      -1.247   5.596  23.177  0.00  0.00    +0.155 HD
ENDROOT
BRANCH   9   6
ATOM      3  O   UNL     1      -3.272   1.000  23.864  0.00  0.00    -0.253 OA
ATOM      6  N   UNL     1      -5.073   1.842  25.060  0.00  0.00    -0.294 N 
ATOM      7  N   UNL     1      -5.075  -0.360  24.404  0.00  0.00    -0.297 N 
ATOM     21  C   UNL     1      -4.372   0.841  24.394  0.00  0.00    +0.300 C 
ATOM     35  H   UNL     1      -6.007   1.632  25.403  0.00  0.00    +0.151 HD
ATOM     36  H   UNL     1      -6.007  -0.362  24.807  0.00  0.00    +0.151 HD
BRANCH   7  13
ATOM     13  C   UNL     1      -4.583  -1.570  23.786  0.00  0.00    +0.074 C 
ATOM     14  C   UNL     1      -4.404  -2.685  24.821  0.00  0.00    +0.022 C 
ATOM     15  C   UNL     1      -3.280  -1.308  23.022  0.00  0.00    +0.022 C 
ATOM     17  C   UNL     1      -3.217  -2.436  25.751  0.00  0.00    +0.002 C 
ATOM     18  C   UNL     1      -2.094  -1.060  23.955  0.00  0.00    +0.002 C 
ATOM     19  C   UNL     1      -1.931  -2.188  24.970  0.00  0.00    +0.000 C 
ENDBRANCH   7  13
ENDBRANCH   9   6
BRANCH  26  28
ATOM     28  C   UNL     1       2.912   1.118  23.546  0.00  0.00    -0.018 A 
ATOM     29  C   UNL     1       2.676  -0.255  23.527  0.00  0.00    +0.012 A 
ATOM     30  C   UNL     1       4.219   1.603  23.485  0.00  0.00    +0.012 A 
ATOM     31  C   UNL     1       3.746  -1.146  23.448  0.00  0.00    +0.046 A 
ATOM     32  C   UNL     1       5.289   0.712  23.405  0.00  0.00    +0.046 A 
ATOM     33  C   UNL     1       5.053  -0.663  23.387  0.00  0.00    +0.120 A 
BRANCH  33   4
ATOM      4  O   UNL     1       6.097  -1.532  23.310  0.00  0.00    -0.495 OA
ATOM     34  C   UNL     1       7.309  -1.041  22.739  0.00  0.00    +0.277 C 
ENDBRANCH  33   4
ENDBRANCH  26  28
TORSDOF 4
ENDMDL
