MODEL 1
REMARK VINA RESULT:       3.8      0.000      0.000
REMARK  Name = 7143796
REMARK  5 active torsions:
REMARK  status: ('A' for Active; 'I' for Inactive)
REMARK    1  A    between atoms: S_1  and  N_7
REMARK    2  A    between atoms: S_1  and  C_20
REMARK    3  A    between atoms: O_6  and  C_27
REMARK    4  A    between atoms: O_6  and  C_30
REMARK    5  A    between atoms: C_18  and  C_21
REMARK                            x       y       z     vdW  Elec       q    Type
REMARK                         _______ _______ _______ _____ _____    ______ ____
ROOT
ATOM      5  O   UNL     1       0.340   1.931  25.880  0.00  0.00    -0.267 OA
ATOM      7  N   UNL     1      -4.555   2.695  25.334  0.00  0.00    -0.176 NA
ATOM      8  N   UNL     1      -1.448   3.039  24.875  0.00  0.00    -0.311 N 
ATOM      9  C   UNL     1      -3.075   4.513  26.194  0.00  0.00    +0.025 C 
ATOM     10  C   UNL     1      -3.375   4.230  23.773  0.00  0.00    +0.052 C 
ATOM     11  C   UNL     1      -3.233   5.270  24.881  0.00  0.00    +0.017 C 
ATOM     12  C   UNL     1      -4.308   3.636  26.464  0.00  0.00    +0.114 C 
ATOM     13  C   UNL     1      -4.642   3.389  24.014  0.00  0.00    +0.119 C 
ATOM     14  C   UNL     1      -1.777   3.699  26.146  0.00  0.00    +0.130 C 
ATOM     15  C   UNL     1      -2.153   3.333  23.705  0.00  0.00    +0.026 A 
ATOM     16  C   UNL     1      -1.762   2.809  22.533  0.00  0.00    +0.022 A 
ATOM     17  C   UNL     1      -0.328   2.186  24.876  0.00  0.00    +0.260 A 
ATOM     18  C   UNL     1       0.065   1.583  23.554  0.00  0.00    +0.053 A 
ATOM     19  C   UNL     1      -0.639   1.916  22.461  0.00  0.00    +0.016 A 
ENDROOT
BRANCH  18  21
ATOM      2  S   UNL     1       2.747   1.222  23.014  0.00  0.00    -0.096 S 
ATOM     21  C   UNL     1       1.192   0.640  23.448  0.00  0.00    +0.024 A 
ATOM     26  C   UNL     1       1.202  -0.727  23.654  0.00  0.00    +0.016 A 
ATOM     28  C   UNL     1       2.492  -1.295  23.453  0.00  0.00    +0.008 A 
ATOM     29  C   UNL     1       3.427  -0.346  23.102  0.00  0.00    +0.046 A 
ENDBRANCH  18  21
BRANCH   7   1
ATOM      1  S   UNL     1      -5.738   1.493  25.616  0.00  0.00    +0.061 S 
ATOM      3  O   UNL     1      -6.773   1.598  24.609  0.00  0.00    -0.153 OA
ATOM      4  O   UNL     1      -6.071   1.482  27.026  0.00  0.00    -0.153 OA
BRANCH   1  20
ATOM     20  C   UNL     1      -4.795   0.041  25.270  0.00  0.00    +0.106 A 
ATOM     22  C   UNL     1      -3.884  -0.414  26.209  0.00  0.00    +0.032 A 
ATOM     23  C   UNL     1      -4.980  -0.615  24.065  0.00  0.00    +0.032 A 
ATOM     24  C   UNL     1      -3.138  -1.561  25.935  0.00  0.00    +0.047 A 
ATOM     25  C   UNL     1      -4.234  -1.762  23.791  0.00  0.00    +0.047 A 
ATOM     27  C   UNL     1      -3.313  -2.235  24.726  0.00  0.00    +0.120 A 
BRANCH  27   6
ATOM      6  O   UNL     1      -2.585  -3.353  24.459  0.00  0.00    -0.495 OA
ATOM     30  C   UNL     1      -1.249  -3.163  23.995  0.00  0.00    +0.277 C 
ENDBRANCH  27   6
ENDBRANCH   1  20
ENDBRANCH   7   1
TORSDOF 4
ENDMDL
MODEL 2
REMARK VINA RESULT:       5.8      1.874      4.915
REMARK  Name = 7143796
REMARK  5 active torsions:
REMARK  status: ('A' for Active; 'I' for Inactive)
REMARK    1  A    between atoms: S_1  and  N_7
REMARK    2  A    between atoms: S_1  and  C_20
REMARK    3  A    between atoms: O_6  and  C_27
REMARK    4  A    between atoms: O_6  and  C_30
REMARK    5  A    between atoms: C_18  and  C_21
REMARK                            x       y       z     vdW  Elec       q    Type
REMARK                         _______ _______ _______ _____ _____    ______ ____
ROOT
ATOM      5  O   UNL     1      -0.573  -0.565  22.030  0.00  0.00    -0.267 OA
ATOM      7  N   UNL     1      -4.475   0.076  25.065  0.00  0.00    -0.176 NA
ATOM      8  N   UNL     1      -1.831  -1.194  23.889  0.00  0.00    -0.311 N 
ATOM      9  C   UNL     1      -4.253  -2.007  23.705  0.00  0.00    +0.025 C 
ATOM     10  C   UNL     1      -3.176  -1.871  25.908  0.00  0.00    +0.052 C 
ATOM     11  C   UNL     1      -3.934  -2.801  24.965  0.00  0.00    +0.017 C 
ATOM     12  C   UNL     1      -5.128  -0.789  24.041  0.00  0.00    +0.114 C 
ATOM     13  C   UNL     1      -4.076  -0.681  26.290  0.00  0.00    +0.119 C 
ATOM     14  C   UNL     1      -2.939  -1.612  23.019  0.00  0.00    +0.130 C 
ATOM     15  C   UNL     1      -1.890  -1.377  25.272  0.00  0.00    +0.026 A 
ATOM     16  C   UNL     1      -0.822  -1.097  26.035  0.00  0.00    +0.022 A 
ATOM     17  C   UNL     1      -0.675  -0.706  23.250  0.00  0.00    +0.260 A 
ATOM     18  C   UNL     1       0.494  -0.366  24.134  0.00  0.00    +0.053 A 
ATOM     19  C   UNL     1       0.385  -0.579  25.454  0.00  0.00    +0.016 A 
ENDROOT
BRANCH  18  21
ATOM      2  S   UNL     1       3.037  -0.850  23.176  0.00  0.00    -0.096 S 
ATOM     21  C   UNL     1       1.736   0.196  23.576  0.00  0.00    +0.024 A 
ATOM     26  C   UNL     1       2.047   1.516  23.306  0.00  0.00    +0.016 A 
ATOM     28  C   UNL     1       3.358   1.665  22.769  0.00  0.00    +0.008 A 
ATOM     29  C   UNL     1       4.007   0.456  22.645  0.00  0.00    +0.046 A 
ENDBRANCH  18  21
BRANCH   7   1
ATOM      1  S   UNL     1      -5.220   1.590  25.341  0.00  0.00    +0.061 S 
ATOM      3  O   UNL     1      -5.692   1.645  26.709  0.00  0.00    -0.153 OA
ATOM      4  O   UNL     1      -6.108   1.886  24.235  0.00  0.00    -0.153 OA
BRANCH   1  20
ATOM     20  C   UNL     1      -3.818   2.655  25.211  0.00  0.00    +0.106 A 
ATOM     22  C   UNL     1      -2.712   2.234  24.492  0.00  0.00    +0.032 A 
ATOM     23  C   UNL     1      -3.848   3.892  25.833  0.00  0.00    +0.032 A 
ATOM     24  C   UNL     1      -1.604   3.075  24.390  0.00  0.00    +0.047 A 
ATOM     25  C   UNL     1      -2.739   4.733  25.731  0.00  0.00    +0.047 A 
ATOM     27  C   UNL     1      -1.617   4.325  25.010  0.00  0.00    +0.120 A 
BRANCH  27   6
ATOM      6  O   UNL     1      -0.536   5.145  24.910  0.00  0.00    -0.495 OA
ATOM     30  C   UNL     1       0.212   5.089  23.697  0.00  0.00    +0.277 C 
ENDBRANCH  27   6
ENDBRANCH   1  20
ENDBRANCH   7   1
TORSDOF 4
ENDMDL
