MODEL 1
REMARK VINA RESULT:      -5.5      0.000      0.000
REMARK  Name = 56774669
REMARK  7 active torsions:
REMARK  status: ('A' for Active; 'I' for Inactive)
REMARK    1  A    between atoms: O_3  and  C_9
REMARK    2  A    between atoms: N_6  and  C_11
REMARK    3  A    between atoms: N_7  and  C_22
REMARK    4  A    between atoms: C_8  and  C_9
REMARK    5  A    between atoms: C_9  and  C_13
REMARK    6  A    between atoms: C_11  and  C_15
REMARK    7  A    between atoms: C_26  and  C_27
REMARK                            x       y       z     vdW  Elec       q    Type
REMARK                         _______ _______ _______ _____ _____    ______ ____
ROOT
ATOM      2  O   UNL     1      -4.460   4.108  25.360  0.00  0.00    -0.369 OA
ATOM      4  O   UNL     1      -7.047   1.660  24.767  0.00  0.00    -0.273 OA
ATOM      6  N   UNL     1      -4.762   1.337  25.069  0.00  0.00    -0.287 N 
ATOM      8  C   UNL     1      -3.435   1.957  25.173  0.00  0.00    +0.135 C 
ATOM     10  C   UNL     1      -3.523   3.241  25.989  0.00  0.00    +0.185 C 
ATOM     12  C   UNL     1      -5.926   2.101  25.024  0.00  0.00    +0.242 C 
ATOM     14  C   UNL     1      -5.761   3.567  25.408  0.00  0.00    +0.255 C 
ENDROOT
BRANCH   8   9
ATOM      9  C   UNL     1      -2.855   2.226  23.782  0.00  0.00    +0.167 C 
BRANCH   9  13
ATOM     13  C   UNL     1      -1.380   1.919  23.722  0.00  0.00    -0.017 A 
ATOM     16  C   UNL     1      -0.933   0.770  23.070  0.00  0.00    +0.008 A 
ATOM     17  C   UNL     1      -0.462   2.783  24.317  0.00  0.00    +0.008 A 
ATOM     20  C   UNL     1       0.431   0.485  23.014  0.00  0.00    +0.023 A 
ATOM     21  C   UNL     1       0.902   2.499  24.263  0.00  0.00    +0.023 A 
ATOM     22  C   UNL     1       1.349   1.350  23.611  0.00  0.00    +0.033 A 
BRANCH  22   7
ATOM      5  O   UNL     1       3.008   0.150  21.403  0.00  0.00    -0.276 OA
ATOM      7  N   UNL     1       2.713   1.066  23.556  0.00  0.00    -0.286 N 
ATOM     26  C   UNL     1       3.437   0.502  22.497  0.00  0.00    +0.214 C 
ATOM     27  C   UNL     1       4.900   0.355  22.835  0.00  0.00    +0.109 C 
ATOM     29  H   UNL     1       3.240   1.300  24.394  0.00  0.00    +0.155 HD
ENDBRANCH  22   7
ENDBRANCH   9  13
BRANCH   9   3
ATOM      3  O   UNL     1      -3.545   1.431  22.823  0.00  0.00    -0.385 OA
ATOM     28  H   UNL     1      -4.105   0.785  23.286  0.00  0.00    +0.210 HD
ENDBRANCH   9   3
ENDBRANCH   8   9
BRANCH   6  11
ATOM     11  C   UNL     1      -4.817  -0.099  24.830  0.00  0.00    +0.143 C 
BRANCH  11  15
ATOM      1  F   UNL     1       0.176  -2.569  25.650  0.00  0.00    -0.205 F 
ATOM     15  C   UNL     1      -3.486  -0.758  25.049  0.00  0.00    -0.030 A 
ATOM     18  C   UNL     1      -3.084  -1.807  24.223  0.00  0.00    +0.008 A 
ATOM     19  C   UNL     1      -2.652  -0.320  26.077  0.00  0.00    +0.008 A 
ATOM     23  C   UNL     1      -1.847  -2.419  24.426  0.00  0.00    +0.038 A 
ATOM     24  C   UNL     1      -1.415  -0.932  26.281  0.00  0.00    +0.038 A 
ATOM     25  C   UNL     1      -1.012  -1.982  25.455  0.00  0.00    +0.123 A 
ENDBRANCH  11  15
ENDBRANCH   6  11
TORSDOF 6
ENDMDL
MODEL 2
REMARK VINA RESULT:      -4.9      1.616      2.327
REMARK  Name = 56774669
REMARK  7 active torsions:
REMARK  status: ('A' for Active; 'I' for Inactive)
REMARK    1  A    between atoms: O_3  and  C_9
REMARK    2  A    between atoms: N_6  and  C_11
REMARK    3  A    between atoms: N_7  and  C_22
REMARK    4  A    between atoms: C_8  and  C_9
REMARK    5  A    between atoms: C_9  and  C_13
REMARK    6  A    between atoms: C_11  and  C_15
REMARK    7  A    between atoms: C_26  and  C_27
REMARK                            x       y       z     vdW  Elec       q    Type
REMARK                         _______ _______ _______ _____ _____    ______ ____
ROOT
ATOM      2  O   UNL     1      -1.711   4.178  25.846  0.00  0.00    -0.369 OA
ATOM      4  O   UNL     1      -5.281   4.180  25.299  0.00  0.00    -0.273 OA
ATOM      6  N   UNL     1      -3.767   2.424  25.100  0.00  0.00    -0.287 N 
ATOM      8  C   UNL     1      -2.358   2.012  25.068  0.00  0.00    +0.135 C 
ATOM     10  C   UNL     1      -1.565   2.788  26.113  0.00  0.00    +0.185 C 
ATOM     12  C   UNL     1      -4.141   3.727  25.419  0.00  0.00    +0.242 C 
ATOM     14  C   UNL     1      -3.046   4.591  26.035  0.00  0.00    +0.255 C 
ENDROOT
BRANCH   8   9
ATOM      9  C   UNL     1      -1.769   2.211  23.669  0.00  0.00    +0.167 C 
BRANCH   9  13
ATOM     13  C   UNL     1      -0.435   1.526  23.520  0.00  0.00    -0.017 A 
ATOM     16  C   UNL     1       0.744   2.264  23.624  0.00  0.00    +0.008 A 
ATOM     17  C   UNL     1      -0.378   0.153  23.278  0.00  0.00    +0.008 A 
ATOM     20  C   UNL     1       1.978   1.631  23.486  0.00  0.00    +0.023 A 
ATOM     21  C   UNL     1       0.856  -0.480  23.138  0.00  0.00    +0.023 A 
ATOM     22  C   UNL     1       2.035   0.258  23.243  0.00  0.00    +0.033 A 
BRANCH  22   7
ATOM      5  O   UNL     1       4.818   1.248  23.827  0.00  0.00    -0.276 OA
ATOM      7  N   UNL     1       3.269  -0.376  23.104  0.00  0.00    -0.286 N 
ATOM     26  C   UNL     1       4.542   0.135  23.391  0.00  0.00    +0.214 C 
ATOM     27  C   UNL     1       5.627  -0.872  23.103  0.00  0.00    +0.109 C 
ATOM     29  H   UNL     1       3.230  -1.329  22.749  0.00  0.00    +0.155 HD
ENDBRANCH  22   7
ENDBRANCH   9  13
BRANCH   9   3
ATOM      3  O   UNL     1      -2.678   1.700  22.700  0.00  0.00    -0.385 OA
ATOM     28  H   UNL     1      -3.566   1.647  23.090  0.00  0.00    +0.210 HD
ENDBRANCH   9   3
ENDBRANCH   8   9
BRANCH   6  11
ATOM     11  C   UNL     1      -4.757   1.474  24.609  0.00  0.00    +0.143 C 
BRANCH  11  15
ATOM      1  F   UNL     1      -3.038  -3.856  25.184  0.00  0.00    -0.205 F 
ATOM     15  C   UNL     1      -4.299   0.054  24.762  0.00  0.00    -0.030 A 
ATOM     18  C   UNL     1      -3.712  -0.365  25.957  0.00  0.00    +0.008 A 
ATOM     19  C   UNL     1      -4.459  -0.848  23.710  0.00  0.00    +0.008 A 
ATOM     23  C   UNL     1      -3.286  -1.686  26.099  0.00  0.00    +0.038 A 
ATOM     24  C   UNL     1      -4.033  -2.169  23.853  0.00  0.00    +0.038 A 
ATOM     25  C   UNL     1      -3.447  -2.588  25.047  0.00  0.00    +0.123 A 
ENDBRANCH  11  15
ENDBRANCH   6  11
TORSDOF 6
ENDMDL
MODEL 3
REMARK VINA RESULT:      -3.2      1.674      2.586
REMARK  Name = 56774669
REMARK  7 active torsions:
REMARK  status: ('A' for Active; 'I' for Inactive)
REMARK    1  A    between atoms: O_3  and  C_9
REMARK    2  A    between atoms: N_6  and  C_11
REMARK    3  A    between atoms: N_7  and  C_22
REMARK    4  A    between atoms: C_8  and  C_9
REMARK    5  A    between atoms: C_9  and  C_13
REMARK    6  A    between atoms: C_11  and  C_15
REMARK    7  A    between atoms: C_26  and  C_27
REMARK                            x       y       z     vdW  Elec       q    Type
REMARK                         _______ _______ _______ _____ _____    ______ ____
ROOT
ATOM      2  O   UNL     1      -3.651   4.233  23.534  0.00  0.00    -0.369 OA
ATOM      4  O   UNL     1      -3.381   0.654  23.135  0.00  0.00    -0.273 OA
ATOM      6  N   UNL     1      -4.217   1.872  24.934  0.00  0.00    -0.287 N 
ATOM      8  C   UNL     1      -4.375   3.191  25.559  0.00  0.00    +0.135 C 
ATOM     10  C   UNL     1      -4.698   4.235  24.497  0.00  0.00    +0.185 C 
ATOM     12  C   UNL     1      -3.699   1.728  23.649  0.00  0.00    +0.242 C 
ATOM     14  C   UNL     1      -3.613   3.012  22.830  0.00  0.00    +0.255 C 
ENDROOT
BRANCH   8   9
ATOM      9  C   UNL     1      -3.115   3.571  26.342  0.00  0.00    +0.167 C 
BRANCH   9  13
ATOM     13  C   UNL     1      -1.863   3.072  25.666  0.00  0.00    -0.017 A 
ATOM     16  C   UNL     1      -1.204   3.877  24.737  0.00  0.00    +0.008 A 
ATOM     17  C   UNL     1      -1.364   1.805  25.968  0.00  0.00    +0.008 A 
ATOM     20  C   UNL     1      -0.047   3.416  24.111  0.00  0.00    +0.023 A 
ATOM     21  C   UNL     1      -0.208   1.343  25.341  0.00  0.00    +0.023 A 
ATOM     22  C   UNL     1       0.452   2.148  24.413  0.00  0.00    +0.033 A 
BRANCH  22   7
ATOM      5  O   UNL     1       0.924  -0.318  22.751  0.00  0.00    -0.276 OA
ATOM      7  N   UNL     1       1.609   1.686  23.787  0.00  0.00    -0.286 N 
ATOM     26  C   UNL     1       1.775   0.524  23.023  0.00  0.00    +0.214 C 
ATOM     27  C   UNL     1       3.190   0.382  22.519  0.00  0.00    +0.109 C 
ATOM     29  H   UNL     1       2.432   2.274  23.907  0.00  0.00    +0.155 HD
ENDBRANCH  22   7
ENDBRANCH   9  13
BRANCH   9   3
ATOM      3  O   UNL     1      -3.052   4.987  26.472  0.00  0.00    -0.385 OA
ATOM     28  H   UNL     1      -2.352   5.332  25.892  0.00  0.00    +0.210 HD
ENDBRANCH   9   3
ENDBRANCH   8   9
BRANCH   6  11
ATOM     11  C   UNL     1      -4.448   0.700  25.768  0.00  0.00    +0.143 C 
BRANCH  11  15
ATOM      1  F   UNL     1      -2.190  -3.954  23.544  0.00  0.00    -0.205 F 
ATOM     15  C   UNL     1      -3.846  -0.541  25.175  0.00  0.00    -0.030 A 
ATOM     18  C   UNL     1      -2.556  -0.931  25.536  0.00  0.00    +0.008 A 
ATOM     19  C   UNL     1      -4.576  -1.303  24.263  0.00  0.00    +0.008 A 
ATOM     23  C   UNL     1      -1.997  -2.084  24.985  0.00  0.00    +0.038 A 
ATOM     24  C   UNL     1      -4.016  -2.456  23.712  0.00  0.00    +0.038 A 
ATOM     25  C   UNL     1      -2.726  -2.846  24.073  0.00  0.00    +0.123 A 
ENDBRANCH  11  15
ENDBRANCH   6  11
TORSDOF 6
ENDMDL
MODEL 4
REMARK VINA RESULT:      -2.5      1.689      2.273
REMARK  Name = 56774669
REMARK  7 active torsions:
REMARK  status: ('A' for Active; 'I' for Inactive)
REMARK    1  A    between atoms: O_3  and  C_9
REMARK    2  A    between atoms: N_6  and  C_11
REMARK    3  A    between atoms: N_7  and  C_22
REMARK    4  A    between atoms: C_8  and  C_9
REMARK    5  A    between atoms: C_9  and  C_13
REMARK    6  A    between atoms: C_11  and  C_15
REMARK    7  A    between atoms: C_26  and  C_27
REMARK                            x       y       z     vdW  Elec       q    Type
REMARK                         _______ _______ _______ _____ _____    ______ ____
ROOT
ATOM      2  O   UNL     1      -5.154   4.229  25.666  0.00  0.00    -0.369 OA
ATOM      4  O   UNL     1      -4.226   3.666  22.222  0.00  0.00    -0.273 OA
ATOM      6  N   UNL     1      -3.714   2.399  24.106  0.00  0.00    -0.287 N 
ATOM      8  C   UNL     1      -3.728   2.313  25.572  0.00  0.00    +0.135 C 
ATOM     10  C   UNL     1      -5.033   2.884  26.114  0.00  0.00    +0.185 C 
ATOM     12  C   UNL     1      -4.343   3.440  23.428  0.00  0.00    +0.242 C 
ATOM     14  C   UNL     1      -5.298   4.284  24.265  0.00  0.00    +0.255 C 
ENDROOT
BRANCH   8   9
ATOM      9  C   UNL     1      -2.518   3.039  26.167  0.00  0.00    +0.167 C 
BRANCH   9  13
ATOM     13  C   UNL     1      -1.237   2.656  25.471  0.00  0.00    -0.017 A 
ATOM     16  C   UNL     1      -0.615   1.445  25.773  0.00  0.00    +0.008 A 
ATOM     17  C   UNL     1      -0.674   3.512  24.524  0.00  0.00    +0.008 A 
ATOM     20  C   UNL     1       0.570   1.090  25.130  0.00  0.00    +0.023 A 
ATOM     21  C   UNL     1       0.512   3.158  23.882  0.00  0.00    +0.023 A 
ATOM     22  C   UNL     1       1.134   1.946  24.184  0.00  0.00    +0.033 A 
BRANCH  22   7
ATOM      5  O   UNL     1       1.719  -0.294  22.258  0.00  0.00    -0.276 OA
ATOM      7  N   UNL     1       2.320   1.592  23.541  0.00  0.00    -0.286 N 
ATOM     26  C   UNL     1       2.538   0.532  22.650  0.00  0.00    +0.214 C 
ATOM     27  C   UNL     1       3.968   0.487  22.173  0.00  0.00    +0.109 C 
ATOM     29  H   UNL     1       3.121   2.182  23.751  0.00  0.00    +0.155 HD
ENDBRANCH  22   7
ENDBRANCH   9  13
BRANCH   9   3
ATOM      3  O   UNL     1      -2.715   4.445  26.060  0.00  0.00    -0.385 OA
ATOM     28  H   UNL     1      -3.396   4.723  26.696  0.00  0.00    +0.210 HD
ENDBRANCH   9   3
ENDBRANCH   8   9
BRANCH   6  11
ATOM     11  C   UNL     1      -2.866   1.459  23.385  0.00  0.00    +0.143 C 
BRANCH  11  15
ATOM      1  F   UNL     1      -3.725  -3.856  25.031  0.00  0.00    -0.205 F 
ATOM     15  C   UNL     1      -3.095   0.043  23.824  0.00  0.00    -0.030 A 
ATOM     18  C   UNL     1      -4.383  -0.492  23.811  0.00  0.00    +0.008 A 
ATOM     19  C   UNL     1      -2.020  -0.740  24.245  0.00  0.00    +0.008 A 
ATOM     23  C   UNL     1      -4.596  -1.809  24.219  0.00  0.00    +0.038 A 
ATOM     24  C   UNL     1      -2.233  -2.057  24.653  0.00  0.00    +0.038 A 
ATOM     25  C   UNL     1      -3.521  -2.591  24.640  0.00  0.00    +0.123 A 
ENDBRANCH  11  15
ENDBRANCH   6  11
TORSDOF 6
ENDMDL
MODEL 5
REMARK VINA RESULT:      -1.5      2.615      4.262
REMARK  Name = 56774669
REMARK  7 active torsions:
REMARK  status: ('A' for Active; 'I' for Inactive)
REMARK    1  A    between atoms: O_3  and  C_9
REMARK    2  A    between atoms: N_6  and  C_11
REMARK    3  A    between atoms: N_7  and  C_22
REMARK    4  A    between atoms: C_8  and  C_9
REMARK    5  A    between atoms: C_9  and  C_13
REMARK    6  A    between atoms: C_11  and  C_15
REMARK    7  A    between atoms: C_26  and  C_27
REMARK                            x       y       z     vdW  Elec       q    Type
REMARK                         _______ _______ _______ _____ _____    ______ ____
ROOT
ATOM      2  O   UNL     1      -0.491  -1.338  25.415  0.00  0.00    -0.369 OA
ATOM      4  O   UNL     1      -3.790  -0.799  26.781  0.00  0.00    -0.273 OA
ATOM      6  N   UNL     1      -3.089  -0.716  24.563  0.00  0.00    -0.287 N 
ATOM      8  C   UNL     1      -1.954  -0.710  23.632  0.00  0.00    +0.135 C 
ATOM     10  C   UNL     1      -0.891  -1.698  24.098  0.00  0.00    +0.185 C 
ATOM     12  C   UNL     1      -2.915  -0.947  25.926  0.00  0.00    +0.242 C 
ATOM     14  C   UNL     1      -1.553  -1.501  26.328  0.00  0.00    +0.255 C 
ENDROOT
BRANCH   8   9
ATOM      9  C   UNL     1      -1.374   0.702  23.498  0.00  0.00    +0.167 C 
BRANCH   9  13
ATOM     13  C   UNL     1       0.125   0.678  23.340  0.00  0.00    -0.017 A 
ATOM     16  C   UNL     1       0.721  -0.238  22.474  0.00  0.00    +0.008 A 
ATOM     17  C   UNL     1       0.917   1.573  24.059  0.00  0.00    +0.008 A 
ATOM     20  C   UNL     1       2.107  -0.261  22.328  0.00  0.00    +0.023 A 
ATOM     21  C   UNL     1       2.304   1.551  23.914  0.00  0.00    +0.023 A 
ATOM     22  C   UNL     1       2.899   0.634  23.048  0.00  0.00    +0.033 A 
BRANCH  22   7
ATOM      5  O   UNL     1       4.951  -1.274  24.151  0.00  0.00    -0.276 OA
ATOM      7  N   UNL     1       4.286   0.612  22.902  0.00  0.00    -0.286 N 
ATOM     26  C   UNL     1       5.199  -0.303  23.442  0.00  0.00    +0.214 C 
ATOM     27  C   UNL     1       6.618   0.022  23.048  0.00  0.00    +0.109 C 
ATOM     29  H   UNL     1       4.674   1.360  22.330  0.00  0.00    +0.155 HD
ENDBRANCH  22   7
ENDBRANCH   9  13
BRANCH   9   3
ATOM      3  O   UNL     1      -1.961   1.346  22.373  0.00  0.00    -0.385 OA
ATOM     28  H   UNL     1      -1.401   1.200  21.592  0.00  0.00    +0.210 HD
ENDBRANCH   9   3
ENDBRANCH   8   9
BRANCH   6  11
ATOM     11  C   UNL     1      -4.384  -0.293  24.049  0.00  0.00    +0.143 C 
BRANCH  11  15
ATOM      1  F   UNL     1      -5.813   4.832  25.889  0.00  0.00    -0.205 F 
ATOM     15  C   UNL     1      -4.765   1.073  24.539  0.00  0.00    -0.030 A 
ATOM     18  C   UNL     1      -5.900   1.238  25.334  0.00  0.00    +0.008 A 
ATOM     19  C   UNL     1      -3.985   2.179  24.200  0.00  0.00    +0.008 A 
ATOM     23  C   UNL     1      -6.254   2.507  25.790  0.00  0.00    +0.038 A 
ATOM     24  C   UNL     1      -4.340   3.449  24.656  0.00  0.00    +0.038 A 
ATOM     25  C   UNL     1      -5.474   3.613  25.451  0.00  0.00    +0.123 A 
ENDBRANCH  11  15
ENDBRANCH   6  11
TORSDOF 6
ENDMDL
