MODEL 1
REMARK VINA RESULT:      -0.2      0.000      0.000
REMARK  Name = 38028822
REMARK  10 active torsions:
REMARK  status: ('A' for Active; 'I' for Inactive)
REMARK    1  A    between atoms: N_4  and  C_14
REMARK    2  A    between atoms: C_6  and  C_10
REMARK    3  A    between atoms: C_7  and  C_14
REMARK    4  A    between atoms: C_9  and  C_13
REMARK    5  A    between atoms: C_10  and  C_15
REMARK    6  A    between atoms: C_10  and  C_16
REMARK    7  A    between atoms: C_11  and  C_18
REMARK    8  A    between atoms: C_13  and  C_17
REMARK    9  A    between atoms: C_23  and  C_24
REMARK   10  A    between atoms: C_29  and  C_30
REMARK                            x       y       z     vdW  Elec       q    Type
REMARK                         _______ _______ _______ _____ _____    ______ ____
ROOT
ATOM      6  C   UNL     1      -2.091   1.339  25.264  0.00  0.00    +0.000 C 
ATOM      7  C   UNL     1      -1.118   0.307  24.642  0.00  0.00    +0.032 C 
ATOM      8  C   UNL     1      -3.059   0.645  26.234  0.00  0.00    +0.012 C 
ATOM      9  C   UNL     1      -3.890  -0.452  25.544  0.00  0.00    +0.023 C 
ATOM     11  C   UNL     1      -3.027  -1.357  24.688  0.00  0.00    -0.073 C 
ATOM     12  C   UNL     1      -1.785  -1.007  24.306  0.00  0.00    -0.022 C 
ATOM     18  C   UNL     1      -3.606  -2.694  24.319  0.00  0.00    +0.039 C 
ENDROOT
BRANCH   6  10
ATOM     10  C   UNL     1      -1.341   2.459  25.993  0.00  0.00    -0.013 C 
ATOM     15  C   UNL     1      -0.064   1.919  26.627  0.00  0.00    +0.007 C 
ATOM     16  C   UNL     1      -1.028   3.602  25.032  0.00  0.00    +0.007 C 
ENDBRANCH   6  10
BRANCH   9  13
ATOM     13  C   UNL     1      -5.032   0.155  24.721  0.00  0.00    +0.103 C 
BRANCH  13  17
ATOM      1  O   UNL     1      -6.265   1.422  26.318  0.00  0.00    -0.276 OA
ATOM      3  N   UNL     1      -5.001   2.600  24.784  0.00  0.00    -0.301 N 
ATOM     17  C   UNL     1      -5.494   1.442  25.357  0.00  0.00    +0.216 C 
ATOM     19  C   UNL     1      -5.356   3.923  25.277  0.00  0.00    +0.108 C 
ATOM     20  C   UNL     1      -4.085   2.692  23.651  0.00  0.00    +0.108 C 
ATOM     21  C   UNL     1      -4.367   4.859  24.600  0.00  0.00    +0.020 C 
ATOM     22  C   UNL     1      -4.099   4.166  23.271  0.00  0.00    +0.020 C 
ENDBRANCH  13  17
ENDBRANCH   9  13
BRANCH   7  14
ATOM     14  C   UNL     1      -0.440   0.870  23.387  0.00  0.00    +0.112 C 
BRANCH  14   4
ATOM      2  O   UNL     1       1.268  -0.703  21.699  0.00  0.00    -0.270 OA
ATOM      4  N   UNL     1       0.981   0.752  23.483  0.00  0.00    -0.311 N 
ATOM     23  C   UNL     1       1.737  -0.037  22.618  0.00  0.00    +0.244 C 
ATOM     31  H   UNL     1       1.449   1.346  24.159  0.00  0.00    +0.149 HD
BRANCH  23  24
ATOM     24  C   UNL     1       3.201  -0.073  22.867  0.00  0.00    +0.037 A 
ATOM     25  C   UNL     1       4.001   1.002  22.479  0.00  0.00    +0.014 A 
ATOM     26  C   UNL     1       3.776  -1.180  23.490  0.00  0.00    +0.014 A 
ATOM     27  C   UNL     1       5.376   0.968  22.714  0.00  0.00    +0.019 A 
ATOM     28  C   UNL     1       5.150  -1.214  23.725  0.00  0.00    +0.019 A 
ATOM     29  C   UNL     1       5.950  -0.139  23.338  0.00  0.00    +0.052 A 
BRANCH  29  30
ATOM      5  N   UNL     1       8.502  -0.201  23.773  0.00  0.00    -0.191 NA
ATOM     30  C   UNL     1       7.358  -0.173  23.578  0.00  0.00    +0.099 C 
ENDBRANCH  29  30
ENDBRANCH  23  24
ENDBRANCH  14   4
ENDBRANCH   7  14
TORSDOF 7
ENDMDL
MODEL 2
REMARK VINA RESULT:       1.1      1.193      1.727
REMARK  Name = 38028822
REMARK  10 active torsions:
REMARK  status: ('A' for Active; 'I' for Inactive)
REMARK    1  A    between atoms: N_4  and  C_14
REMARK    2  A    between atoms: C_6  and  C_10
REMARK    3  A    between atoms: C_7  and  C_14
REMARK    4  A    between atoms: C_9  and  C_13
REMARK    5  A    between atoms: C_10  and  C_15
REMARK    6  A    between atoms: C_10  and  C_16
REMARK    7  A    between atoms: C_11  and  C_18
REMARK    8  A    between atoms: C_13  and  C_17
REMARK    9  A    between atoms: C_23  and  C_24
REMARK   10  A    between atoms: C_29  and  C_30
REMARK                            x       y       z     vdW  Elec       q    Type
REMARK                         _______ _______ _______ _____ _____    ______ ____
ROOT
ATOM      6  C   UNL     1      -1.572   0.502  25.031  0.00  0.00    +0.000 C 
ATOM      7  C   UNL     1      -0.800  -0.783  24.642  0.00  0.00    +0.032 C 
ATOM      8  C   UNL     1      -2.609   0.195  26.122  0.00  0.00    +0.012 C 
ATOM      9  C   UNL     1      -3.628  -0.870  25.674  0.00  0.00    +0.023 C 
ATOM     11  C   UNL     1      -2.950  -2.062  25.029  0.00  0.00    -0.073 C 
ATOM     12  C   UNL     1      -1.681  -2.009  24.587  0.00  0.00    -0.022 C 
ATOM     18  C   UNL     1      -3.750  -3.333  24.948  0.00  0.00    +0.039 C 
ENDROOT
BRANCH   6  10
ATOM     10  C   UNL     1      -0.628   1.610  25.510  0.00  0.00    -0.013 C 
ATOM     15  C   UNL     1      -0.104   2.412  24.324  0.00  0.00    +0.007 C 
ATOM     16  C   UNL     1      -1.338   2.519  26.508  0.00  0.00    +0.007 C 
ENDBRANCH   6  10
BRANCH   9  13
ATOM     13  C   UNL     1      -4.682  -0.266  24.738  0.00  0.00    +0.103 C 
BRANCH  13  17
ATOM      1  O   UNL     1      -3.411   0.578  22.909  0.00  0.00    -0.276 OA
ATOM      3  N   UNL     1      -4.291   2.122  24.386  0.00  0.00    -0.301 N 
ATOM     17  C   UNL     1      -4.067   0.840  23.919  0.00  0.00    +0.216 C 
ATOM     19  C   UNL     1      -3.759   3.298  23.712  0.00  0.00    +0.108 C 
ATOM     20  C   UNL     1      -5.059   2.499  25.568  0.00  0.00    +0.108 C 
ATOM     21  C   UNL     1      -4.497   4.466  24.347  0.00  0.00    +0.020 C 
ATOM     22  C   UNL     1      -4.749   3.976  25.767  0.00  0.00    +0.020 C 
ENDBRANCH  13  17
ENDBRANCH   9  13
BRANCH   7  14
ATOM     14  C   UNL     1      -0.080  -0.612  23.300  0.00  0.00    +0.112 C 
BRANCH  14   4
ATOM      2  O   UNL     1       1.899  -0.169  21.267  0.00  0.00    -0.270 OA
ATOM      4  N   UNL     1       1.332  -0.502  23.492  0.00  0.00    -0.311 N 
ATOM     23  C   UNL     1       2.227  -0.285  22.446  0.00  0.00    +0.244 C 
ATOM     31  H   UNL     1       1.669  -0.495  24.449  0.00  0.00    +0.149 HD
BRANCH  23  24
ATOM     24  C   UNL     1       3.666  -0.221  22.809  0.00  0.00    +0.037 A 
ATOM     25  C   UNL     1       4.277  -1.309  23.434  0.00  0.00    +0.014 A 
ATOM     26  C   UNL     1       4.407   0.925  22.523  0.00  0.00    +0.014 A 
ATOM     27  C   UNL     1       5.628  -1.249  23.772  0.00  0.00    +0.019 A 
ATOM     28  C   UNL     1       5.758   0.985  22.863  0.00  0.00    +0.019 A 
ATOM     29  C   UNL     1       6.369  -0.103  23.487  0.00  0.00    +0.052 A 
BRANCH  29  30
ATOM      5  N   UNL     1       8.878   0.008  24.117  0.00  0.00    -0.191 NA
ATOM     30  C   UNL     1       7.754  -0.042  23.835  0.00  0.00    +0.099 C 
ENDBRANCH  29  30
ENDBRANCH  23  24
ENDBRANCH  14   4
ENDBRANCH   7  14
TORSDOF 7
ENDMDL
MODEL 3
REMARK VINA RESULT:       1.9      1.288      3.520
REMARK  Name = 38028822
REMARK  10 active torsions:
REMARK  status: ('A' for Active; 'I' for Inactive)
REMARK    1  A    between atoms: N_4  and  C_14
REMARK    2  A    between atoms: C_6  and  C_10
REMARK    3  A    between atoms: C_7  and  C_14
REMARK    4  A    between atoms: C_9  and  C_13
REMARK    5  A    between atoms: C_10  and  C_15
REMARK    6  A    between atoms: C_10  and  C_16
REMARK    7  A    between atoms: C_11  and  C_18
REMARK    8  A    between atoms: C_13  and  C_17
REMARK    9  A    between atoms: C_23  and  C_24
REMARK   10  A    between atoms: C_29  and  C_30
REMARK                            x       y       z     vdW  Elec       q    Type
REMARK                         _______ _______ _______ _____ _____    ______ ____
ROOT
ATOM      6  C   UNL     1      -3.052   2.169  23.452  0.00  0.00    +0.000 C 
ATOM      7  C   UNL     1      -1.575   2.045  23.902  0.00  0.00    +0.032 C 
ATOM      8  C   UNL     1      -3.654   3.491  23.952  0.00  0.00    +0.012 C 
ATOM      9  C   UNL     1      -3.600   3.612  25.487  0.00  0.00    +0.023 C 
ATOM     11  C   UNL     1      -2.237   3.241  26.033  0.00  0.00    -0.073 C 
ATOM     12  C   UNL     1      -1.340   2.552  25.305  0.00  0.00    -0.022 C 
ATOM     18  C   UNL     1      -1.910   3.720  27.420  0.00  0.00    +0.039 C 
ENDROOT
BRANCH   6  10
ATOM     10  C   UNL     1      -3.192   2.080  21.929  0.00  0.00    -0.013 C 
ATOM     15  C   UNL     1      -3.934   3.298  21.390  0.00  0.00    +0.007 C 
ATOM     16  C   UNL     1      -1.820   1.948  21.276  0.00  0.00    +0.007 C 
ENDBRANCH   6  10
BRANCH   9  13
ATOM     13  C   UNL     1      -4.703   2.775  26.146  0.00  0.00    +0.103 C 
BRANCH  13  17
ATOM      1  O   UNL     1      -6.176   2.080  24.408  0.00  0.00    -0.276 OA
ATOM      3  N   UNL     1      -4.641   0.531  25.173  0.00  0.00    -0.301 N 
ATOM     17  C   UNL     1      -5.247   1.774  25.158  0.00  0.00    +0.216 C 
ATOM     19  C   UNL     1      -5.055  -0.545  24.285  0.00  0.00    +0.108 C 
ATOM     20  C   UNL     1      -3.538   0.109  26.031  0.00  0.00    +0.108 C 
ATOM     21  C   UNL     1      -3.946  -1.580  24.400  0.00  0.00    +0.020 C 
ATOM     22  C   UNL     1      -3.460  -1.399  25.831  0.00  0.00    +0.020 C 
ENDBRANCH  13  17
ENDBRANCH   9  13
BRANCH   7  14
ATOM     14  C   UNL     1      -1.083   0.596  23.794  0.00  0.00    +0.112 C 
BRANCH  14   4
ATOM      2  O   UNL     1       0.602  -0.686  21.856  0.00  0.00    -0.270 OA
ATOM      4  N   UNL     1       0.345   0.544  23.807  0.00  0.00    -0.311 N 
ATOM     23  C   UNL     1       1.089  -0.102  22.821  0.00  0.00    +0.244 C 
ATOM     31  H   UNL     1       0.821   1.082  24.523  0.00  0.00    +0.149 HD
BRANCH  23  24
ATOM     24  C   UNL     1       2.565  -0.089  22.993  0.00  0.00    +0.037 A 
ATOM     25  C   UNL     1       3.217  -1.208  23.513  0.00  0.00    +0.014 A 
ATOM     26  C   UNL     1       3.298   1.041  22.632  0.00  0.00    +0.014 A 
ATOM     27  C   UNL     1       4.603  -1.195  23.671  0.00  0.00    +0.019 A 
ATOM     28  C   UNL     1       4.684   1.053  22.792  0.00  0.00    +0.019 A 
ATOM     29  C   UNL     1       5.336  -0.065  23.310  0.00  0.00    +0.052 A 
BRANCH  29  30
ATOM      5  N   UNL     1       7.908  -0.042  23.608  0.00  0.00    -0.191 NA
ATOM     30  C   UNL     1       6.755  -0.053  23.474  0.00  0.00    +0.099 C 
ENDBRANCH  29  30
ENDBRANCH  23  24
ENDBRANCH  14   4
ENDBRANCH   7  14
TORSDOF 7
ENDMDL
MODEL 4
REMARK VINA RESULT:       2.1      2.271      4.694
REMARK  Name = 38028822
REMARK  10 active torsions:
REMARK  status: ('A' for Active; 'I' for Inactive)
REMARK    1  A    between atoms: N_4  and  C_14
REMARK    2  A    between atoms: C_6  and  C_10
REMARK    3  A    between atoms: C_7  and  C_14
REMARK    4  A    between atoms: C_9  and  C_13
REMARK    5  A    between atoms: C_10  and  C_15
REMARK    6  A    between atoms: C_10  and  C_16
REMARK    7  A    between atoms: C_11  and  C_18
REMARK    8  A    between atoms: C_13  and  C_17
REMARK    9  A    between atoms: C_23  and  C_24
REMARK   10  A    between atoms: C_29  and  C_30
REMARK                            x       y       z     vdW  Elec       q    Type
REMARK                         _______ _______ _______ _____ _____    ______ ____
ROOT
ATOM      6  C   UNL     1      -3.508   2.347  23.722  0.00  0.00    +0.000 C 
ATOM      7  C   UNL     1      -3.819   3.666  24.472  0.00  0.00    +0.032 C 
ATOM      8  C   UNL     1      -4.778   1.492  23.594  0.00  0.00    +0.012 C 
ATOM      9  C   UNL     1      -5.386   1.142  24.965  0.00  0.00    +0.023 C 
ATOM     11  C   UNL     1      -5.476   2.356  25.867  0.00  0.00    -0.073 C 
ATOM     12  C   UNL     1      -4.779   3.481  25.623  0.00  0.00    -0.022 C 
ATOM     18  C   UNL     1      -6.422   2.265  27.032  0.00  0.00    +0.039 C 
ENDROOT
BRANCH   6  10
ATOM     10  C   UNL     1      -2.917   2.608  22.333  0.00  0.00    -0.013 C 
ATOM     15  C   UNL     1      -2.454   1.301  21.698  0.00  0.00    +0.007 C 
ATOM     16  C   UNL     1      -3.937   3.311  21.444  0.00  0.00    +0.007 C 
ENDBRANCH   6  10
BRANCH   9  13
ATOM     13  C   UNL     1      -4.603   0.012  25.644  0.00  0.00    +0.103 C 
BRANCH  13  17
ATOM      1  O   UNL     1      -5.070  -1.397  23.781  0.00  0.00    -0.276 OA
ATOM      3  N   UNL     1      -2.975  -1.574  24.739  0.00  0.00    -0.301 N 
ATOM     17  C   UNL     1      -4.249  -1.047  24.630  0.00  0.00    +0.216 C 
ATOM     19  C   UNL     1      -2.483  -2.608  23.841  0.00  0.00    +0.108 C 
ATOM     20  C   UNL     1      -1.957  -1.201  25.717  0.00  0.00    +0.108 C 
ATOM     21  C   UNL     1      -0.984  -2.650  24.096  0.00  0.00    +0.020 C 
ATOM     22  C   UNL     1      -0.879  -2.264  25.565  0.00  0.00    +0.020 C 
ENDBRANCH  13  17
ENDBRANCH   9  13
BRANCH   7  14
ATOM     14  C   UNL     1      -2.534   4.330  24.981  0.00  0.00    +0.112 C 
BRANCH  14   4
ATOM      2  O   UNL     1      -1.533   1.757  25.767  0.00  0.00    -0.270 OA
ATOM      4  N   UNL     1      -1.380   3.668  24.460  0.00  0.00    -0.311 N 
ATOM     23  C   UNL     1      -0.962   2.413  24.899  0.00  0.00    +0.244 C 
ATOM     31  H   UNL     1      -0.910   4.106  23.674  0.00  0.00    +0.149 HD
BRANCH  23  24
ATOM     24  C   UNL     1       0.273   1.871  24.275  0.00  0.00    +0.037 A 
ATOM     25  C   UNL     1       0.351   0.519  23.943  0.00  0.00    +0.014 A 
ATOM     26  C   UNL     1       1.353   2.716  24.019  0.00  0.00    +0.014 A 
ATOM     27  C   UNL     1       1.510   0.012  23.355  0.00  0.00    +0.019 A 
ATOM     28  C   UNL     1       2.511   2.208  23.432  0.00  0.00    +0.019 A 
ATOM     29  C   UNL     1       2.590   0.856  23.099  0.00  0.00    +0.052 A 
BRANCH  29  30
ATOM      5  N   UNL     1       4.742  -0.087  22.010  0.00  0.00    -0.191 NA
ATOM     30  C   UNL     1       3.777   0.336  22.498  0.00  0.00    +0.099 C 
ENDBRANCH  29  30
ENDBRANCH  23  24
ENDBRANCH  14   4
ENDBRANCH   7  14
TORSDOF 7
ENDMDL
MODEL 5
REMARK VINA RESULT:       2.7      3.561      5.722
REMARK  Name = 38028822
REMARK  10 active torsions:
REMARK  status: ('A' for Active; 'I' for Inactive)
REMARK    1  A    between atoms: N_4  and  C_14
REMARK    2  A    between atoms: C_6  and  C_10
REMARK    3  A    between atoms: C_7  and  C_14
REMARK    4  A    between atoms: C_9  and  C_13
REMARK    5  A    between atoms: C_10  and  C_15
REMARK    6  A    between atoms: C_10  and  C_16
REMARK    7  A    between atoms: C_11  and  C_18
REMARK    8  A    between atoms: C_13  and  C_17
REMARK    9  A    between atoms: C_23  and  C_24
REMARK   10  A    between atoms: C_29  and  C_30
REMARK                            x       y       z     vdW  Elec       q    Type
REMARK                         _______ _______ _______ _____ _____    ______ ____
ROOT
ATOM      6  C   UNL     1      -3.470   2.199  23.705  0.00  0.00    +0.000 C 
ATOM      7  C   UNL     1      -4.307   3.417  24.169  0.00  0.00    +0.032 C 
ATOM      8  C   UNL     1      -4.348   0.940  23.638  0.00  0.00    +0.012 C 
ATOM      9  C   UNL     1      -4.989   0.602  24.997  0.00  0.00    +0.023 C 
ATOM     11  C   UNL     1      -5.606   1.824  25.647  0.00  0.00    -0.073 C 
ATOM     12  C   UNL     1      -5.300   3.073  25.254  0.00  0.00    -0.022 C 
ATOM     18  C   UNL     1      -6.620   1.575  26.729  0.00  0.00    +0.039 C 
ENDROOT
BRANCH   6  10
ATOM     10  C   UNL     1      -2.812   2.446  22.343  0.00  0.00    -0.013 C 
ATOM     15  C   UNL     1      -2.341   1.130  21.735  0.00  0.00    +0.007 C 
ATOM     16  C   UNL     1      -3.781   3.160  21.407  0.00  0.00    +0.007 C 
ENDBRANCH   6  10
BRANCH   9  13
ATOM     13  C   UNL     1      -3.976  -0.065  25.935  0.00  0.00    +0.103 C 
BRANCH  13  17
ATOM      1  O   UNL     1      -3.835  -2.259  25.019  0.00  0.00    -0.276 OA
ATOM      3  N   UNL     1      -1.974  -0.906  24.809  0.00  0.00    -0.301 N 
ATOM     17  C   UNL     1      -3.267  -1.183  25.212  0.00  0.00    +0.216 C 
ATOM     19  C   UNL     1      -1.154  -1.882  24.106  0.00  0.00    +0.108 C 
ATOM     20  C   UNL     1      -1.248   0.345  25.003  0.00  0.00    +0.108 C 
ATOM     21  C   UNL     1       0.024  -1.079  23.578  0.00  0.00    +0.020 C 
ATOM     22  C   UNL     1       0.189   0.011  24.628  0.00  0.00    +0.020 C 
ENDBRANCH  13  17
ENDBRANCH   9  13
BRANCH   7  14
ATOM     14  C   UNL     1      -3.404   4.560  24.647  0.00  0.00    +0.112 C 
BRANCH  14   4
ATOM      2  O   UNL     1      -0.651   3.810  24.333  0.00  0.00    -0.270 OA
ATOM      4  N   UNL     1      -2.520   4.111  25.675  0.00  0.00    -0.311 N 
ATOM     23  C   UNL     1      -1.191   3.766  25.436  0.00  0.00    +0.244 C 
ATOM     31  H   UNL     1      -2.867   4.137  26.628  0.00  0.00    +0.149 HD
BRANCH  23  24
ATOM     24  C   UNL     1      -0.410   3.293  26.608  0.00  0.00    +0.037 A 
ATOM     25  C   UNL     1       0.960   3.055  26.484  0.00  0.00    +0.014 A 
ATOM     26  C   UNL     1      -1.045   3.088  27.833  0.00  0.00    +0.014 A 
ATOM     27  C   UNL     1       1.692   2.613  27.585  0.00  0.00    +0.019 A 
ATOM     28  C   UNL     1      -0.311   2.646  28.933  0.00  0.00    +0.019 A 
ATOM     29  C   UNL     1       1.058   2.409  28.810  0.00  0.00    +0.052 A 
BRANCH  29  30
ATOM      5  N   UNL     1       2.419   1.586  30.853  0.00  0.00    -0.191 NA
ATOM     30  C   UNL     1       1.809   1.955  29.937  0.00  0.00    +0.099 C 
ENDBRANCH  29  30
ENDBRANCH  23  24
ENDBRANCH  14   4
ENDBRANCH   7  14
TORSDOF 7
ENDMDL
MODEL 6
REMARK VINA RESULT:       2.8      2.278      4.992
REMARK  Name = 38028822
REMARK  10 active torsions:
REMARK  status: ('A' for Active; 'I' for Inactive)
REMARK    1  A    between atoms: N_4  and  C_14
REMARK    2  A    between atoms: C_6  and  C_10
REMARK    3  A    between atoms: C_7  and  C_14
REMARK    4  A    between atoms: C_9  and  C_13
REMARK    5  A    between atoms: C_10  and  C_15
REMARK    6  A    between atoms: C_10  and  C_16
REMARK    7  A    between atoms: C_11  and  C_18
REMARK    8  A    between atoms: C_13  and  C_17
REMARK    9  A    between atoms: C_23  and  C_24
REMARK   10  A    between atoms: C_29  and  C_30
REMARK                            x       y       z     vdW  Elec       q    Type
REMARK                         _______ _______ _______ _____ _____    ______ ____
ROOT
ATOM      6  C   UNL     1      -3.594   2.077  24.744  0.00  0.00    +0.000 C 
ATOM      7  C   UNL     1      -3.011   2.715  23.459  0.00  0.00    +0.032 C 
ATOM      8  C   UNL     1      -3.590   3.095  25.896  0.00  0.00    +0.012 C 
ATOM      9  C   UNL     1      -2.176   3.616  26.209  0.00  0.00    +0.023 C 
ATOM     11  C   UNL     1      -1.432   4.016  24.951  0.00  0.00    -0.073 C 
ATOM     12  C   UNL     1      -1.828   3.616  23.729  0.00  0.00    -0.022 C 
ATOM     18  C   UNL     1      -0.249   4.927  25.125  0.00  0.00    +0.039 C 
ENDROOT
BRANCH   6  10
ATOM     10  C   UNL     1      -5.015   1.550  24.523  0.00  0.00    -0.013 C 
ATOM     15  C   UNL     1      -5.035   0.027  24.605  0.00  0.00    +0.007 C 
ATOM     16  C   UNL     1      -5.973   2.160  25.540  0.00  0.00    +0.007 C 
ENDBRANCH   6  10
BRANCH   9  13
ATOM     13  C   UNL     1      -1.374   2.588  27.016  0.00  0.00    +0.103 C 
BRANCH  13  17
ATOM      1  O   UNL     1       0.514   2.925  25.603  0.00  0.00    -0.276 OA
ATOM      3  N   UNL     1       0.914   2.729  27.870  0.00  0.00    -0.301 N 
ATOM     17  C   UNL     1       0.100   2.766  26.752  0.00  0.00    +0.216 C 
ATOM     19  C   UNL     1       2.359   2.878  27.783  0.00  0.00    +0.108 C 
ATOM     20  C   UNL     1       0.488   2.548  29.254  0.00  0.00    +0.108 C 
ATOM     21  C   UNL     1       2.805   3.103  29.220  0.00  0.00    +0.020 C 
ATOM     22  C   UNL     1       1.782   2.308  30.020  0.00  0.00    +0.020 C 
ENDBRANCH  13  17
ENDBRANCH   9  13
BRANCH   7  14
ATOM     14  C   UNL     1      -2.612   1.642  22.439  0.00  0.00    +0.112 C 
BRANCH  14   4
ATOM      2  O   UNL     1      -1.243  -0.208  24.156  0.00  0.00    -0.270 OA
ATOM      4  N   UNL     1      -1.204   1.399  22.483  0.00  0.00    -0.311 N 
ATOM     23  C   UNL     1      -0.619   0.479  23.351  0.00  0.00    +0.244 C 
ATOM     31  H   UNL     1      -0.633   1.862  21.784  0.00  0.00    +0.149 HD
BRANCH  23  24
ATOM     24  C   UNL     1       0.861   0.363  23.292  0.00  0.00    +0.037 A 
ATOM     25  C   UNL     1       1.647   1.511  23.184  0.00  0.00    +0.014 A 
ATOM     26  C   UNL     1       1.464  -0.893  23.347  0.00  0.00    +0.014 A 
ATOM     27  C   UNL     1       3.036   1.401  23.131  0.00  0.00    +0.019 A 
ATOM     28  C   UNL     1       2.854  -1.002  23.293  0.00  0.00    +0.019 A 
ATOM     29  C   UNL     1       3.640   0.145  23.186  0.00  0.00    +0.052 A 
BRANCH  29  30
ATOM      5  N   UNL     1       6.219  -0.057  23.086  0.00  0.00    -0.191 NA
ATOM     30  C   UNL     1       5.063   0.033  23.130  0.00  0.00    +0.099 C 
ENDBRANCH  29  30
ENDBRANCH  23  24
ENDBRANCH  14   4
ENDBRANCH   7  14
TORSDOF 7
ENDMDL
MODEL 7
REMARK VINA RESULT:       3.4      3.000      6.450
REMARK  Name = 38028822
REMARK  10 active torsions:
REMARK  status: ('A' for Active; 'I' for Inactive)
REMARK    1  A    between atoms: N_4  and  C_14
REMARK    2  A    between atoms: C_6  and  C_10
REMARK    3  A    between atoms: C_7  and  C_14
REMARK    4  A    between atoms: C_9  and  C_13
REMARK    5  A    between atoms: C_10  and  C_15
REMARK    6  A    between atoms: C_10  and  C_16
REMARK    7  A    between atoms: C_11  and  C_18
REMARK    8  A    between atoms: C_13  and  C_17
REMARK    9  A    between atoms: C_23  and  C_24
REMARK   10  A    between atoms: C_29  and  C_30
REMARK                            x       y       z     vdW  Elec       q    Type
REMARK                         _______ _______ _______ _____ _____    ______ ____
ROOT
ATOM      6  C   UNL     1       0.116   1.792  24.195  0.00  0.00    +0.000 C 
ATOM      7  C   UNL     1       0.172   2.242  25.676  0.00  0.00    +0.032 C 
ATOM      8  C   UNL     1       0.218   3.008  23.262  0.00  0.00    +0.012 C 
ATOM      9  C   UNL     1      -0.912   4.026  23.506  0.00  0.00    +0.023 C 
ATOM     11  C   UNL     1      -1.098   4.319  24.981  0.00  0.00    -0.073 C 
ATOM     12  C   UNL     1      -0.594   3.518  25.937  0.00  0.00    -0.022 C 
ATOM     18  C   UNL     1      -1.836   5.580  25.333  0.00  0.00    +0.039 C 
ENDROOT
BRANCH   6  10
ATOM     10  C   UNL     1       1.226   0.789  23.863  0.00  0.00    -0.013 C 
ATOM     15  C   UNL     1       0.701  -0.294  22.927  0.00  0.00    +0.007 C 
ATOM     16  C   UNL     1       2.422   1.506  23.245  0.00  0.00    +0.007 C 
ENDBRANCH   6  10
BRANCH   9  13
ATOM     13  C   UNL     1      -2.226   3.555  22.871  0.00  0.00    +0.103 C 
BRANCH  13  17
ATOM      1  O   UNL     1      -2.317   1.280  23.570  0.00  0.00    -0.276 OA
ATOM      3  N   UNL     1      -3.874   2.726  24.477  0.00  0.00    -0.301 N 
ATOM     17  C   UNL     1      -2.799   2.410  23.667  0.00  0.00    +0.216 C 
ATOM     19  C   UNL     1      -4.543   1.732  25.303  0.00  0.00    +0.108 C 
ATOM     20  C   UNL     1      -4.487   4.041  24.639  0.00  0.00    +0.108 C 
ATOM     21  C   UNL     1      -5.415   2.546  26.246  0.00  0.00    +0.020 C 
ATOM     22  C   UNL     1      -5.772   3.767  25.409  0.00  0.00    +0.020 C 
ENDBRANCH  13  17
ENDBRANCH   9  13
BRANCH   7  14
ATOM     14  C   UNL     1      -0.341   1.139  26.610  0.00  0.00    +0.112 C 
BRANCH  14   4
ATOM      2  O   UNL     1      -0.142  -1.666  26.031  0.00  0.00    -0.270 OA
ATOM      4  N   UNL     1      -1.319   0.332  25.951  0.00  0.00    -0.311 N 
ATOM     23  C   UNL     1      -1.142  -1.029  25.709  0.00  0.00    +0.244 C 
ATOM     31  H   UNL     1      -2.211   0.767  25.739  0.00  0.00    +0.149 HD
BRANCH  23  24
ATOM     24  C   UNL     1      -2.243  -1.721  24.990  0.00  0.00    +0.037 A 
ATOM     25  C   UNL     1      -3.506  -1.133  24.916  0.00  0.00    +0.014 A 
ATOM     26  C   UNL     1      -2.013  -2.957  24.387  0.00  0.00    +0.014 A 
ATOM     27  C   UNL     1      -4.538  -1.782  24.239  0.00  0.00    +0.019 A 
ATOM     28  C   UNL     1      -3.046  -3.606  23.711  0.00  0.00    +0.019 A 
ATOM     29  C   UNL     1      -4.308  -3.018  23.636  0.00  0.00    +0.052 A 
BRANCH  29  30
ATOM      5  N   UNL     1      -6.226  -4.223  22.380  0.00  0.00    -0.191 NA
ATOM     30  C   UNL     1      -5.366  -3.683  22.943  0.00  0.00    +0.099 C 
ENDBRANCH  29  30
ENDBRANCH  23  24
ENDBRANCH  14   4
ENDBRANCH   7  14
TORSDOF 7
ENDMDL
