MODEL 1
REMARK VINA RESULT:      -3.7      0.000      0.000
REMARK  Name = 26743084
REMARK  8 active torsions:
REMARK  status: ('A' for Active; 'I' for Inactive)
REMARK    1  A    between atoms: S_1  and  C_19
REMARK    2  A    between atoms: S_1  and  C_25
REMARK    3  A    between atoms: N_5  and  C_18
REMARK    4  A    between atoms: C_7  and  C_13
REMARK    5  A    between atoms: C_8  and  C_12
REMARK    6  A    between atoms: C_12  and  C_14
REMARK    7  A    between atoms: C_13  and  C_15
REMARK    8  A    between atoms: C_17  and  C_19
REMARK                            x       y       z     vdW  Elec       q    Type
REMARK                         _______ _______ _______ _____ _____    ______ ____
ROOT
ATOM      4  N   UNL     1      -1.635  -3.260  25.251  0.00  0.00    -0.316 NA
ATOM      7  C   UNL     1      -1.482  -0.368  24.690  0.00  0.00    +0.004 C 
ATOM      8  C   UNL     1      -2.796  -1.176  24.562  0.00  0.00    +0.012 C 
ATOM      9  C   UNL     1      -0.546  -1.085  25.677  0.00  0.00    +0.019 C 
ATOM     10  C   UNL     1      -2.523  -2.658  24.255  0.00  0.00    +0.085 C 
ATOM     11  C   UNL     1      -0.355  -2.562  25.331  0.00  0.00    +0.081 C 
ATOM     31  H   UNL     1      -1.473  -4.238  25.010  0.00  0.00    +0.122 HD
ENDROOT
BRANCH   8  12
ATOM     12  C   UNL     1      -3.765  -0.584  23.538  0.00  0.00    +0.064 C 
BRANCH  12  14
ATOM      3  O   UNL     1      -4.050   3.005  23.575  0.00  0.00    -0.359 OA
ATOM      6  N   UNL     1      -3.602   1.812  23.020  0.00  0.00    -0.083 NA
ATOM     14  C   UNL     1      -4.060   0.858  23.835  0.00  0.00    +0.084 A 
ATOM     16  C   UNL     1      -4.795   1.383  24.912  0.00  0.00    +0.071 A 
ATOM     17  C   UNL     1      -4.758   2.736  24.701  0.00  0.00    +0.148 A 
BRANCH  17  19
ATOM     19  C   UNL     1      -5.309   3.892  25.420  0.00  0.00    +0.151 C 
BRANCH  19   1
ATOM      1  S   UNL     1      -4.259   4.441  26.812  0.00  0.00    -0.117 S 
BRANCH   1  25
ATOM     25  C   UNL     1      -2.632   4.317  26.084  0.00  0.00    +0.008 A 
ATOM     26  C   UNL     1      -2.145   5.352  25.284  0.00  0.00    +0.015 A 
ATOM     27  C   UNL     1      -1.850   3.186  26.313  0.00  0.00    +0.015 A 
ATOM     28  C   UNL     1      -0.875   5.254  24.715  0.00  0.00    +0.001 A 
ATOM     29  C   UNL     1      -0.581   3.089  25.745  0.00  0.00    +0.001 A 
ATOM     30  C   UNL     1      -0.094   4.123  24.946  0.00  0.00    +0.000 A 
ENDBRANCH   1  25
ENDBRANCH  19   1
ENDBRANCH  17  19
ENDBRANCH  12  14
ENDBRANCH   8  12
BRANCH   7  13
ATOM     13  C   UNL     1      -0.775  -0.112  23.354  0.00  0.00    +0.100 C 
BRANCH  13  15
ATOM      2  O   UNL     1       0.805   1.618  23.914  0.00  0.00    -0.275 OA
ATOM      5  N   UNL     1       1.578  -0.490  23.224  0.00  0.00    -0.285 N 
ATOM     15  C   UNL     1       0.617   0.465  23.539  0.00  0.00    +0.217 C 
ATOM     32  H   UNL     1       1.256  -1.405  22.919  0.00  0.00    +0.155 HD
BRANCH   5  18
ATOM     18  C   UNL     1       2.986  -0.345  23.268  0.00  0.00    +0.033 A 
ATOM     20  C   UNL     1       3.582   0.817  22.776  0.00  0.00    +0.023 A 
ATOM     21  C   UNL     1       3.775  -1.361  23.804  0.00  0.00    +0.023 A 
ATOM     22  C   UNL     1       4.968   0.961  22.819  0.00  0.00    +0.002 A 
ATOM     23  C   UNL     1       5.163  -1.217  23.847  0.00  0.00    +0.002 A 
ATOM     24  C   UNL     1       5.760  -0.056  23.355  0.00  0.00    +0.000 A 
ENDBRANCH   5  18
ENDBRANCH  13  15
ENDBRANCH   7  13
TORSDOF 8
ENDMDL
MODEL 2
REMARK VINA RESULT:      -3.0      1.643      3.094
REMARK  Name = 26743084
REMARK  8 active torsions:
REMARK  status: ('A' for Active; 'I' for Inactive)
REMARK    1  A    between atoms: S_1  and  C_19
REMARK    2  A    between atoms: S_1  and  C_25
REMARK    3  A    between atoms: N_5  and  C_18
REMARK    4  A    between atoms: C_7  and  C_13
REMARK    5  A    between atoms: C_8  and  C_12
REMARK    6  A    between atoms: C_12  and  C_14
REMARK    7  A    between atoms: C_13  and  C_15
REMARK    8  A    between atoms: C_17  and  C_19
REMARK                            x       y       z     vdW  Elec       q    Type
REMARK                         _______ _______ _______ _____ _____    ______ ____
ROOT
ATOM      4  N   UNL     1      -4.416  -0.673  24.730  0.00  0.00    -0.316 NA
ATOM      7  C   UNL     1      -1.860  -2.127  24.957  0.00  0.00    +0.004 C 
ATOM      8  C   UNL     1      -2.195  -0.886  25.820  0.00  0.00    +0.012 C 
ATOM      9  C   UNL     1      -3.169  -2.793  24.505  0.00  0.00    +0.019 C 
ATOM     10  C   UNL     1      -3.198   0.041  25.113  0.00  0.00    +0.085 C 
ATOM     11  C   UNL     1      -4.131  -1.802  23.849  0.00  0.00    +0.081 C 
ATOM     31  H   UNL     1      -5.051  -0.029  24.260  0.00  0.00    +0.122 HD
ENDROOT
BRANCH   8  12
ATOM     12  C   UNL     1      -0.954  -0.106  26.254  0.00  0.00    +0.064 C 
BRANCH  12  14
ATOM      3  O   UNL     1      -0.626   2.535  23.829  0.00  0.00    -0.359 OA
ATOM      6  N   UNL     1      -0.695   1.193  24.184  0.00  0.00    -0.083 NA
ATOM     14  C   UNL     1      -0.841   1.196  25.513  0.00  0.00    +0.084 A 
ATOM     16  C   UNL     1      -0.868   2.496  26.045  0.00  0.00    +0.071 A 
ATOM     17  C   UNL     1      -0.729   3.301  24.945  0.00  0.00    +0.148 A 
BRANCH  17  19
ATOM     19  C   UNL     1      -0.674   4.755  24.750  0.00  0.00    +0.151 C 
BRANCH  19   1
ATOM      1  S   UNL     1      -2.183   5.615  25.319  0.00  0.00    -0.117 S 
BRANCH   1  25
ATOM     25  C   UNL     1      -3.420   4.354  25.046  0.00  0.00    +0.008 A 
ATOM     26  C   UNL     1      -3.578   3.795  23.778  0.00  0.00    +0.015 A 
ATOM     27  C   UNL     1      -4.227   3.930  26.102  0.00  0.00    +0.015 A 
ATOM     28  C   UNL     1      -4.544   2.811  23.566  0.00  0.00    +0.001 A 
ATOM     29  C   UNL     1      -5.191   2.946  25.889  0.00  0.00    +0.001 A 
ATOM     30  C   UNL     1      -5.350   2.387  24.622  0.00  0.00    +0.000 A 
ENDBRANCH   1  25
ENDBRANCH  19   1
ENDBRANCH  17  19
ENDBRANCH  12  14
ENDBRANCH   8  12
BRANCH   7  13
ATOM     13  C   UNL     1      -0.957  -1.826  23.756  0.00  0.00    +0.100 C 
BRANCH  13  15
ATOM      2  O   UNL     1       0.973  -2.257  25.132  0.00  0.00    -0.275 OA
ATOM      5  N   UNL     1       1.169  -0.864  23.251  0.00  0.00    -0.285 N 
ATOM     15  C   UNL     1       0.503  -1.692  24.150  0.00  0.00    +0.217 C 
ATOM     32  H   UNL     1       0.631  -0.464  22.486  0.00  0.00    +0.155 HD
BRANCH   5  18
ATOM     18  C   UNL     1       2.534  -0.491  23.270  0.00  0.00    +0.033 A 
ATOM     20  C   UNL     1       2.922   0.761  22.789  0.00  0.00    +0.023 A 
ATOM     21  C   UNL     1       3.491  -1.373  23.769  0.00  0.00    +0.023 A 
ATOM     22  C   UNL     1       4.266   1.128  22.807  0.00  0.00    +0.002 A 
ATOM     23  C   UNL     1       4.836  -1.006  23.787  0.00  0.00    +0.002 A 
ATOM     24  C   UNL     1       5.225   0.245  23.307  0.00  0.00    +0.000 A 
ENDBRANCH   5  18
ENDBRANCH  13  15
ENDBRANCH   7  13
TORSDOF 8
ENDMDL
MODEL 3
REMARK VINA RESULT:      -2.6      2.368      6.999
REMARK  Name = 26743084
REMARK  8 active torsions:
REMARK  status: ('A' for Active; 'I' for Inactive)
REMARK    1  A    between atoms: S_1  and  C_19
REMARK    2  A    between atoms: S_1  and  C_25
REMARK    3  A    between atoms: N_5  and  C_18
REMARK    4  A    between atoms: C_7  and  C_13
REMARK    5  A    between atoms: C_8  and  C_12
REMARK    6  A    between atoms: C_12  and  C_14
REMARK    7  A    between atoms: C_13  and  C_15
REMARK    8  A    between atoms: C_17  and  C_19
REMARK                            x       y       z     vdW  Elec       q    Type
REMARK                         _______ _______ _______ _____ _____    ______ ____
ROOT
ATOM      4  N   UNL     1      -4.078   5.744  26.205  0.00  0.00    -0.316 NA
ATOM      7  C   UNL     1      -3.251   3.036  25.377  0.00  0.00    +0.004 C 
ATOM      8  C   UNL     1      -2.243   4.109  25.855  0.00  0.00    +0.012 C 
ATOM      9  C   UNL     1      -4.635   3.350  25.967  0.00  0.00    +0.019 C 
ATOM     10  C   UNL     1      -2.764   5.533  25.597  0.00  0.00    +0.085 C 
ATOM     11  C   UNL     1      -5.068   4.793  25.706  0.00  0.00    +0.081 C 
ATOM     31  H   UNL     1      -4.392   6.694  26.006  0.00  0.00    +0.122 HD
ENDROOT
BRANCH   8  12
ATOM     12  C   UNL     1      -0.848   3.930  25.255  0.00  0.00    +0.064 C 
BRANCH  12  14
ATOM      3  O   UNL     1      -0.392   0.363  25.445  0.00  0.00    -0.359 OA
ATOM      6  N   UNL     1      -0.790   1.583  25.981  0.00  0.00    -0.083 NA
ATOM     14  C   UNL     1      -0.535   2.479  25.023  0.00  0.00    +0.084 A 
ATOM     16  C   UNL     1       0.019   1.890  23.874  0.00  0.00    +0.071 A 
ATOM     17  C   UNL     1       0.088   0.559  24.191  0.00  0.00    +0.148 A 
BRANCH  17  19
ATOM     19  C   UNL     1       0.556  -0.634  23.475  0.00  0.00    +0.151 C 
BRANCH  19   1
ATOM      1  S   UNL     1       1.632  -0.243  22.051  0.00  0.00    -0.117 S 
BRANCH   1  25
ATOM     25  C   UNL     1       3.240  -0.225  22.831  0.00  0.00    +0.008 A 
ATOM     26  C   UNL     1       4.028   0.925  22.778  0.00  0.00    +0.015 A 
ATOM     27  C   UNL     1       3.705  -1.361  23.493  0.00  0.00    +0.015 A 
ATOM     28  C   UNL     1       5.283   0.937  23.387  0.00  0.00    +0.001 A 
ATOM     29  C   UNL     1       4.960  -1.347  24.102  0.00  0.00    +0.001 A 
ATOM     30  C   UNL     1       5.748  -0.198  24.049  0.00  0.00    +0.000 A 
ENDBRANCH   1  25
ENDBRANCH  19   1
ENDBRANCH  17  19
ENDBRANCH  12  14
ENDBRANCH   8  12
BRANCH   7  13
ATOM     13  C   UNL     1      -3.328   2.889  23.853  0.00  0.00    +0.100 C 
BRANCH  13  15
ATOM      2  O   UNL     1      -2.999   1.118  22.253  0.00  0.00    -0.275 OA
ATOM      5  N   UNL     1      -3.528   0.595  24.482  0.00  0.00    -0.285 N 
ATOM     15  C   UNL     1      -3.259   1.439  23.409  0.00  0.00    +0.217 C 
ATOM     32  H   UNL     1      -3.734   1.022  25.382  0.00  0.00    +0.155 HD
BRANCH   5  18
ATOM     18  C   UNL     1      -3.560  -0.820  24.479  0.00  0.00    +0.033 A 
ATOM     20  C   UNL     1      -2.803  -1.536  25.408  0.00  0.00    +0.023 A 
ATOM     21  C   UNL     1      -4.346  -1.498  23.550  0.00  0.00    +0.023 A 
ATOM     22  C   UNL     1      -2.834  -2.930  25.406  0.00  0.00    +0.002 A 
ATOM     23  C   UNL     1      -4.377  -2.893  23.547  0.00  0.00    +0.002 A 
ATOM     24  C   UNL     1      -3.621  -3.609  24.475  0.00  0.00    +0.000 A 
ENDBRANCH   5  18
ENDBRANCH  13  15
ENDBRANCH   7  13
TORSDOF 8
ENDMDL
MODEL 4
REMARK VINA RESULT:      -2.1      2.402      7.009
REMARK  Name = 26743084
REMARK  8 active torsions:
REMARK  status: ('A' for Active; 'I' for Inactive)
REMARK    1  A    between atoms: S_1  and  C_19
REMARK    2  A    between atoms: S_1  and  C_25
REMARK    3  A    between atoms: N_5  and  C_18
REMARK    4  A    between atoms: C_7  and  C_13
REMARK    5  A    between atoms: C_8  and  C_12
REMARK    6  A    between atoms: C_12  and  C_14
REMARK    7  A    between atoms: C_13  and  C_15
REMARK    8  A    between atoms: C_17  and  C_19
REMARK                            x       y       z     vdW  Elec       q    Type
REMARK                         _______ _______ _______ _____ _____    ______ ____
ROOT
ATOM      4  N   UNL     1      -3.892   3.288  22.760  0.00  0.00    -0.316 NA
ATOM      7  C   UNL     1      -3.547   4.386  25.477  0.00  0.00    +0.004 C 
ATOM      8  C   UNL     1      -2.360   4.159  24.509  0.00  0.00    +0.012 C 
ATOM      9  C   UNL     1      -4.836   4.556  24.657  0.00  0.00    +0.019 C 
ATOM     10  C   UNL     1      -2.656   3.036  23.501  0.00  0.00    +0.085 C 
ATOM     11  C   UNL     1      -5.042   3.425  23.650  0.00  0.00    +0.081 C 
ATOM     31  H   UNL     1      -4.057   2.521  22.109  0.00  0.00    +0.122 HD
ENDROOT
BRANCH   8  12
ATOM     12  C   UNL     1      -1.039   3.898  25.234  0.00  0.00    +0.064 C 
BRANCH  12  14
ATOM      3  O   UNL     1      -0.136   0.440  25.669  0.00  0.00    -0.359 OA
ATOM      6  N   UNL     1      -0.564   1.669  26.155  0.00  0.00    -0.083 NA
ATOM     14  C   UNL     1      -0.607   2.467  25.083  0.00  0.00    +0.084 A 
ATOM     16  C   UNL     1      -0.219   1.803  23.907  0.00  0.00    +0.071 A 
ATOM     17  C   UNL     1       0.067   0.532  24.330  0.00  0.00    +0.148 A 
BRANCH  17  19
ATOM     19  C   UNL     1       0.525  -0.686  23.651  0.00  0.00    +0.151 C 
BRANCH  19   1
ATOM      1  S   UNL     1       1.531  -0.347  22.163  0.00  0.00    -0.117 S 
BRANCH   1  25
ATOM     25  C   UNL     1       3.169  -0.260  22.870  0.00  0.00    +0.008 A 
ATOM     26  C   UNL     1       3.922   0.909  22.745  0.00  0.00    +0.015 A 
ATOM     27  C   UNL     1       3.696  -1.360  23.545  0.00  0.00    +0.015 A 
ATOM     28  C   UNL     1       5.201   0.975  23.297  0.00  0.00    +0.001 A 
ATOM     29  C   UNL     1       4.975  -1.293  24.097  0.00  0.00    +0.001 A 
ATOM     30  C   UNL     1       5.727  -0.125  23.972  0.00  0.00    +0.000 A 
ENDBRANCH   1  25
ENDBRANCH  19   1
ENDBRANCH  17  19
ENDBRANCH  12  14
ENDBRANCH   8  12
BRANCH   7  13
ATOM     13  C   UNL     1      -3.711   3.285  26.530  0.00  0.00    +0.100 C 
BRANCH  13  15
ATOM      2  O   UNL     1      -5.549   1.935  25.752  0.00  0.00    -0.275 OA
ATOM      5  N   UNL     1      -3.368   1.063  25.728  0.00  0.00    -0.285 N 
ATOM     15  C   UNL     1      -4.343   2.028  25.959  0.00  0.00    +0.217 C 
ATOM     32  H   UNL     1      -2.405   1.295  25.962  0.00  0.00    +0.155 HD
BRANCH   5  18
ATOM     18  C   UNL     1      -3.550  -0.239  25.203  0.00  0.00    +0.033 A 
ATOM     20  C   UNL     1      -3.116  -1.350  25.927  0.00  0.00    +0.023 A 
ATOM     21  C   UNL     1      -4.163  -0.411  23.963  0.00  0.00    +0.023 A 
ATOM     22  C   UNL     1      -3.295  -2.632  25.410  0.00  0.00    +0.002 A 
ATOM     23  C   UNL     1      -4.342  -1.694  23.445  0.00  0.00    +0.002 A 
ATOM     24  C   UNL     1      -3.908  -2.805  24.169  0.00  0.00    +0.000 A 
ENDBRANCH   5  18
ENDBRANCH  13  15
ENDBRANCH   7  13
TORSDOF 8
ENDMDL
MODEL 5
REMARK VINA RESULT:      -1.8      2.237      6.498
REMARK  Name = 26743084
REMARK  8 active torsions:
REMARK  status: ('A' for Active; 'I' for Inactive)
REMARK    1  A    between atoms: S_1  and  C_19
REMARK    2  A    between atoms: S_1  and  C_25
REMARK    3  A    between atoms: N_5  and  C_18
REMARK    4  A    between atoms: C_7  and  C_13
REMARK    5  A    between atoms: C_8  and  C_12
REMARK    6  A    between atoms: C_12  and  C_14
REMARK    7  A    between atoms: C_13  and  C_15
REMARK    8  A    between atoms: C_17  and  C_19
REMARK                            x       y       z     vdW  Elec       q    Type
REMARK                         _______ _______ _______ _____ _____    ______ ____
ROOT
ATOM      4  N   UNL     1      -3.791  -3.644  24.498  0.00  0.00    -0.316 NA
ATOM      7  C   UNL     1      -3.680  -0.717  24.148  0.00  0.00    +0.004 C 
ATOM      8  C   UNL     1      -2.622  -1.502  24.961  0.00  0.00    +0.012 C 
ATOM      9  C   UNL     1      -4.332  -1.663  23.127  0.00  0.00    +0.019 C 
ATOM     10  C   UNL     1      -3.204  -2.802  25.542  0.00  0.00    +0.085 C 
ATOM     11  C   UNL     1      -4.849  -2.949  23.770  0.00  0.00    +0.081 C 
ATOM     31  H   UNL     1      -4.171  -4.490  24.922  0.00  0.00    +0.122 HD
ENDROOT
BRANCH   8  12
ATOM     12  C   UNL     1      -1.971  -0.665  26.063  0.00  0.00    +0.064 C 
BRANCH  12  14
ATOM      3  O   UNL     1       0.536   1.843  25.441  0.00  0.00    -0.359 OA
ATOM      6  N   UNL     1      -0.441   1.250  26.232  0.00  0.00    -0.083 NA
ATOM     14  C   UNL     1      -0.891   0.220  25.510  0.00  0.00    +0.084 A 
ATOM     16  C   UNL     1      -0.244   0.116  24.266  0.00  0.00    +0.071 A 
ATOM     17  C   UNL     1       0.643   1.160  24.273  0.00  0.00    +0.148 A 
BRANCH  17  19
ATOM     19  C   UNL     1       1.636   1.656  23.313  0.00  0.00    +0.151 C 
BRANCH  19   1
ATOM      1  S   UNL     1       2.268   0.356  22.194  0.00  0.00    -0.117 S 
BRANCH   1  25
ATOM     25  C   UNL     1       3.792  -0.090  23.013  0.00  0.00    +0.008 A 
ATOM     26  C   UNL     1       4.822   0.844  23.126  0.00  0.00    +0.015 A 
ATOM     27  C   UNL     1       3.952  -1.373  23.537  0.00  0.00    +0.015 A 
ATOM     28  C   UNL     1       6.012   0.494  23.765  0.00  0.00    +0.001 A 
ATOM     29  C   UNL     1       5.141  -1.721  24.176  0.00  0.00    +0.001 A 
ATOM     30  C   UNL     1       6.171  -0.788  24.290  0.00  0.00    +0.000 A 
ENDBRANCH   1  25
ENDBRANCH  19   1
ENDBRANCH  17  19
ENDBRANCH  12  14
ENDBRANCH   8  12
BRANCH   7  13
ATOM     13  C   UNL     1      -4.744  -0.027  25.011  0.00  0.00    +0.100 C 
BRANCH  13  15
ATOM      2  O   UNL     1      -5.583   2.230  24.946  0.00  0.00    -0.275 OA
ATOM      5  N   UNL     1      -3.267   1.848  25.042  0.00  0.00    -0.285 N 
ATOM     15  C   UNL     1      -4.610   1.484  24.995  0.00  0.00    +0.217 C 
ATOM     32  H   UNL     1      -2.574   1.103  25.072  0.00  0.00    +0.155 HD
BRANCH   5  18
ATOM     18  C   UNL     1      -2.727   3.156  25.045  0.00  0.00    +0.033 A 
ATOM     20  C   UNL     1      -3.158   4.086  25.993  0.00  0.00    +0.023 A 
ATOM     21  C   UNL     1      -1.766   3.516  24.102  0.00  0.00    +0.023 A 
ATOM     22  C   UNL     1      -2.627   5.375  25.996  0.00  0.00    +0.002 A 
ATOM     23  C   UNL     1      -1.234   4.806  24.105  0.00  0.00    +0.002 A 
ATOM     24  C   UNL     1      -1.664   5.736  25.052  0.00  0.00    +0.000 A 
ENDBRANCH   5  18
ENDBRANCH  13  15
ENDBRANCH   7  13
TORSDOF 8
ENDMDL
MODEL 6
REMARK VINA RESULT:      -0.5     14.956     17.821
REMARK  Name = 26743084
REMARK  8 active torsions:
REMARK  status: ('A' for Active; 'I' for Inactive)
REMARK    1  A    between atoms: S_1  and  C_19
REMARK    2  A    between atoms: S_1  and  C_25
REMARK    3  A    between atoms: N_5  and  C_18
REMARK    4  A    between atoms: C_7  and  C_13
REMARK    5  A    between atoms: C_8  and  C_12
REMARK    6  A    between atoms: C_12  and  C_14
REMARK    7  A    between atoms: C_13  and  C_15
REMARK    8  A    between atoms: C_17  and  C_19
REMARK                            x       y       z     vdW  Elec       q    Type
REMARK                         _______ _______ _______ _____ _____    ______ ____
ROOT
ATOM      4  N   UNL     1      -9.036  -9.954   9.373  0.00  0.00    -0.316 NA
ATOM      7  C   UNL     1      -9.630  -9.468  12.221  0.00  0.00    +0.004 C 
ATOM      8  C   UNL     1      -8.285  -9.069  11.568  0.00  0.00    +0.012 C 
ATOM      9  C   UNL     1     -10.715  -9.535  11.134  0.00  0.00    +0.019 C 
ATOM     10  C   UNL     1      -7.955  -9.961  10.359  0.00  0.00    +0.085 C 
ATOM     11  C   UNL     1     -10.301 -10.405   9.948  0.00  0.00    +0.081 C 
ATOM     31  H   UNL     1      -8.784 -10.560   8.592  0.00  0.00    +0.122 HD
ENDROOT
BRANCH   8  12
ATOM     12  C   UNL     1      -7.120  -9.053  12.558  0.00  0.00    +0.064 C 
BRANCH  12  14
ATOM      3  O   UNL     1      -4.268 -10.649  11.047  0.00  0.00    -0.359 OA
ATOM      6  N   UNL     1      -5.503 -10.684  11.684  0.00  0.00    -0.083 NA
ATOM     14  C   UNL     1      -5.824  -9.403  11.883  0.00  0.00    +0.084 A 
ATOM     16  C   UNL     1      -4.840  -8.523  11.400  0.00  0.00    +0.071 A 
ATOM     17  C   UNL     1      -3.884  -9.358  10.884  0.00  0.00    +0.148 A 
BRANCH  17  19
ATOM     19  C   UNL     1      -2.592  -9.137  10.223  0.00  0.00    +0.151 C 
BRANCH  19   1
ATOM      1  S   UNL     1      -1.232 -10.113  10.957  0.00  0.00    -0.117 S 
BRANCH   1  25
ATOM     25  C   UNL     1      -0.131  -8.814  11.498  0.00  0.00    +0.008 A 
ATOM     26  C   UNL     1       1.122  -8.668  10.902  0.00  0.00    +0.015 A 
ATOM     27  C   UNL     1      -0.525  -7.947  12.517  0.00  0.00    +0.015 A 
ATOM     28  C   UNL     1       1.981  -7.654  11.326  0.00  0.00    +0.001 A 
ATOM     29  C   UNL     1       0.334  -6.933  12.939  0.00  0.00    +0.001 A 
ATOM     30  C   UNL     1       1.586  -6.787  12.344  0.00  0.00    +0.000 A 
ENDBRANCH   1  25
ENDBRANCH  19   1
ENDBRANCH  17  19
ENDBRANCH  12  14
ENDBRANCH   8  12
BRANCH   7  13
ATOM     13  C   UNL     1      -9.574 -10.776  13.017  0.00  0.00    +0.100 C 
BRANCH  13  15
ATOM      2  O   UNL     1     -10.719 -10.248  15.070  0.00  0.00    -0.275 OA
ATOM      5  N   UNL     1      -8.419 -10.723  15.105  0.00  0.00    -0.285 N 
ATOM     15  C   UNL     1      -9.666 -10.546  14.514  0.00  0.00    +0.217 C 
ATOM     32  H   UNL     1      -7.637 -10.963  14.501  0.00  0.00    +0.155 HD
BRANCH   5  18
ATOM     18  C   UNL     1      -8.088 -10.599  16.476  0.00  0.00    +0.033 A 
ATOM     20  C   UNL     1      -6.779 -10.294  16.853  0.00  0.00    +0.023 A 
ATOM     21  C   UNL     1      -9.070 -10.781  17.449  0.00  0.00    +0.023 A 
ATOM     22  C   UNL     1      -6.454 -10.173  18.203  0.00  0.00    +0.002 A 
ATOM     23  C   UNL     1      -8.744 -10.659  18.800  0.00  0.00    +0.002 A 
ATOM     24  C   UNL     1      -7.436 -10.355  19.178  0.00  0.00    +0.000 A 
ENDBRANCH   5  18
ENDBRANCH  13  15
ENDBRANCH   7  13
TORSDOF 8
ENDMDL
MODEL 7
REMARK VINA RESULT:       0.2      2.574      7.154
REMARK  Name = 26743084
REMARK  8 active torsions:
REMARK  status: ('A' for Active; 'I' for Inactive)
REMARK    1  A    between atoms: S_1  and  C_19
REMARK    2  A    between atoms: S_1  and  C_25
REMARK    3  A    between atoms: N_5  and  C_18
REMARK    4  A    between atoms: C_7  and  C_13
REMARK    5  A    between atoms: C_8  and  C_12
REMARK    6  A    between atoms: C_12  and  C_14
REMARK    7  A    between atoms: C_13  and  C_15
REMARK    8  A    between atoms: C_17  and  C_19
REMARK                            x       y       z     vdW  Elec       q    Type
REMARK                         _______ _______ _______ _____ _____    ______ ____
ROOT
ATOM      4  N   UNL     1      -2.798   6.122  26.074  0.00  0.00    -0.316 NA
ATOM      7  C   UNL     1      -3.416   3.247  25.837  0.00  0.00    +0.004 C 
ATOM      8  C   UNL     1      -2.613   4.021  24.764  0.00  0.00    +0.012 C 
ATOM      9  C   UNL     1      -3.276   3.970  27.187  0.00  0.00    +0.019 C 
ATOM     10  C   UNL     1      -2.974   5.517  24.754  0.00  0.00    +0.085 C 
ATOM     11  C   UNL     1      -3.611   5.458  27.090  0.00  0.00    +0.081 C 
ATOM     31  H   UNL     1      -3.053   7.109  26.029  0.00  0.00    +0.122 HD
ENDROOT
BRANCH   8  12
ATOM     12  C   UNL     1      -2.755   3.424  23.363  0.00  0.00    +0.064 C 
BRANCH  12  14
ATOM      3  O   UNL     1      -1.501   0.134  22.609  0.00  0.00    -0.359 OA
ATOM      6  N   UNL     1      -2.472   1.127  22.538  0.00  0.00    -0.083 NA
ATOM     14  C   UNL     1      -1.966   2.153  23.228  0.00  0.00    +0.084 A 
ATOM     16  C   UNL     1      -0.694   1.869  23.754  0.00  0.00    +0.071 A 
ATOM     17  C   UNL     1      -0.448   0.588  23.336  0.00  0.00    +0.148 A 
BRANCH  17  19
ATOM     19  C   UNL     1       0.675  -0.341  23.511  0.00  0.00    +0.151 C 
BRANCH  19   1
ATOM      1  S   UNL     1       1.802  -0.388  22.073  0.00  0.00    -0.117 S 
BRANCH   1  25
ATOM     25  C   UNL     1       3.393  -0.303  22.882  0.00  0.00    +0.008 A 
ATOM     26  C   UNL     1       3.873  -1.402  23.594  0.00  0.00    +0.015 A 
ATOM     27  C   UNL     1       4.153   0.864  22.803  0.00  0.00    +0.015 A 
ATOM     28  C   UNL     1       5.115  -1.335  24.226  0.00  0.00    +0.001 A 
ATOM     29  C   UNL     1       5.395   0.930  23.434  0.00  0.00    +0.001 A 
ATOM     30  C   UNL     1       5.875  -0.169  24.146  0.00  0.00    +0.000 A 
ENDBRANCH   1  25
ENDBRANCH  19   1
ENDBRANCH  17  19
ENDBRANCH  12  14
ENDBRANCH   8  12
BRANCH   7  13
ATOM     13  C   UNL     1      -4.893   3.039  25.481  0.00  0.00    +0.100 C 
BRANCH  13  15
ATOM      2  O   UNL     1      -6.309   1.241  24.730  0.00  0.00    -0.275 OA
ATOM      5  N   UNL     1      -4.062   0.812  25.263  0.00  0.00    -0.285 N 
ATOM     15  C   UNL     1      -5.199   1.600  25.107  0.00  0.00    +0.217 C 
ATOM     32  H   UNL     1      -3.213   1.262  25.595  0.00  0.00    +0.155 HD
BRANCH   5  18
ATOM     18  C   UNL     1      -3.935  -0.577  25.018  0.00  0.00    +0.033 A 
ATOM     20  C   UNL     1      -4.481  -1.134  23.860  0.00  0.00    +0.023 A 
ATOM     21  C   UNL     1      -3.266  -1.388  25.933  0.00  0.00    +0.023 A 
ATOM     22  C   UNL     1      -4.357  -2.501  23.619  0.00  0.00    +0.002 A 
ATOM     23  C   UNL     1      -3.141  -2.756  25.692  0.00  0.00    +0.002 A 
ATOM     24  C   UNL     1      -3.687  -3.313  24.535  0.00  0.00    +0.000 A 
ENDBRANCH   5  18
ENDBRANCH  13  15
ENDBRANCH   7  13
TORSDOF 8
ENDMDL
