MODEL 1
REMARK VINA RESULT:      -1.5      0.000      0.000
REMARK  Name = 75366958
REMARK  11 active torsions:
REMARK  status: ('A' for Active; 'I' for Inactive)
REMARK    1  A    between atoms: O_2  and  C_12
REMARK    2  A    between atoms: O_5  and  C_21
REMARK    3  A    between atoms: O_5  and  C_27
REMARK    4  A    between atoms: O_6  and  C_28
REMARK    5  A    between atoms: O_6  and  C_29
REMARK    6  A    between atoms: N_7  and  C_16
REMARK    7  A    between atoms: N_9  and  C_22
REMARK    8  A    between atoms: C_10  and  C_15
REMARK    9  A    between atoms: C_11  and  C_16
REMARK   10  A    between atoms: C_15  and  C_17
REMARK   11  A    between atoms: C_20  and  C_21
REMARK                            x       y       z     vdW  Elec       q    Type
REMARK                         _______ _______ _______ _____ _____    ______ ____
ROOT
ATOM      1  O   UNL     1      -4.788   2.494  24.085  0.00  0.00    -0.369 OA
ATOM     10  C   UNL     1      -4.877   1.413  25.016  0.00  0.00    +0.125 C 
ATOM     11  C   UNL     1      -4.386   3.751  24.646  0.00  0.00    +0.164 C 
ATOM     12  C   UNL     1      -5.306   4.166  25.802  0.00  0.00    +0.145 C 
ATOM     13  C   UNL     1      -5.876   1.738  26.125  0.00  0.00    +0.034 C 
ATOM     14  C   UNL     1      -5.503   3.045  26.819  0.00  0.00    +0.036 C 
ENDROOT
BRANCH  12   2
ATOM      2  O   UNL     1      -6.590   4.503  25.270  0.00  0.00    -0.389 OA
ATOM     30  H   UNL     1      -7.048   5.050  25.931  0.00  0.00    +0.210 HD
ENDBRANCH  12   2
BRANCH  10  15
ATOM     15  C   UNL     1      -5.311   0.176  24.241  0.00  0.00    +0.090 C 
BRANCH  15  17
ATOM      3  O   UNL     1      -3.383  -2.862  24.026  0.00  0.00    -0.357 OA
ATOM      8  N   UNL     1      -4.561  -2.140  23.879  0.00  0.00    -0.083 NA
ATOM     17  C   UNL     1      -4.256  -0.899  24.268  0.00  0.00    +0.086 A 
ATOM     18  C   UNL     1      -2.914  -0.779  24.668  0.00  0.00    +0.073 A 
ATOM     20  C   UNL     1      -2.410  -2.041  24.496  0.00  0.00    +0.163 A 
BRANCH  20  21
ATOM     21  C   UNL     1      -1.089  -2.646  24.711  0.00  0.00    +0.236 C 
BRANCH  21   5
ATOM      5  O   UNL     1      -0.261  -1.768  25.480  0.00  0.00    -0.375 OA
ATOM     27  C   UNL     1      -1.042  -0.851  26.227  0.00  0.00    +0.194 C 
ENDBRANCH  21   5
ENDBRANCH  20  21
ENDBRANCH  15  17
ENDBRANCH  10  15
BRANCH  11  16
ATOM     16  C   UNL     1      -2.910   3.733  25.036  0.00  0.00    +0.140 C 
BRANCH  16   7
ATOM      4  O   UNL     1      -0.071   3.372  24.926  0.00  0.00    -0.253 OA
ATOM      7  N   UNL     1      -2.204   2.712  24.324  0.00  0.00    -0.297 N 
ATOM      9  N   UNL     1      -0.399   1.509  23.537  0.00  0.00    -0.269 N 
ATOM     19  C   UNL     1      -0.802   2.597  24.316  0.00  0.00    +0.304 C 
ATOM     31  H   UNL     1      -2.743   2.062  23.758  0.00  0.00    +0.150 HD
ATOM     32  H   UNL     1      -1.136   0.964  23.098  0.00  0.00    +0.156 HD
BRANCH   9  22
ATOM     22  C   UNL     1       0.920   1.065  23.282  0.00  0.00    +0.035 A 
ATOM     23  C   UNL     1       1.992   1.946  23.418  0.00  0.00    +0.027 A 
ATOM     24  C   UNL     1       1.148  -0.256  22.896  0.00  0.00    +0.027 A 
ATOM     25  C   UNL     1       3.292   1.508  23.167  0.00  0.00    +0.047 A 
ATOM     26  C   UNL     1       2.447  -0.695  22.643  0.00  0.00    +0.047 A 
ATOM     28  C   UNL     1       3.520   0.187  22.780  0.00  0.00    +0.120 A 
BRANCH  28   6
ATOM      6  O   UNL     1       4.788  -0.240  22.534  0.00  0.00    -0.495 OA
ATOM     29  C   UNL     1       5.765   0.011  23.544  0.00  0.00    +0.277 C 
ENDBRANCH  28   6
ENDBRANCH   9  22
ENDBRANCH  16   7
ENDBRANCH  11  16
TORSDOF 9
ENDMDL
MODEL 2
REMARK VINA RESULT:      -1.5      1.912      3.879
REMARK  Name = 75366958
REMARK  11 active torsions:
REMARK  status: ('A' for Active; 'I' for Inactive)
REMARK    1  A    between atoms: O_2  and  C_12
REMARK    2  A    between atoms: O_5  and  C_21
REMARK    3  A    between atoms: O_5  and  C_27
REMARK    4  A    between atoms: O_6  and  C_28
REMARK    5  A    between atoms: O_6  and  C_29
REMARK    6  A    between atoms: N_7  and  C_16
REMARK    7  A    between atoms: N_9  and  C_22
REMARK    8  A    between atoms: C_10  and  C_15
REMARK    9  A    between atoms: C_11  and  C_16
REMARK   10  A    between atoms: C_15  and  C_17
REMARK   11  A    between atoms: C_20  and  C_21
REMARK                            x       y       z     vdW  Elec       q    Type
REMARK                         _______ _______ _______ _____ _____    ______ ____
ROOT
ATOM      1  O   UNL     1      -3.870   2.102  25.720  0.00  0.00    -0.369 OA
ATOM     10  C   UNL     1      -4.157   2.966  24.617  0.00  0.00    +0.125 C 
ATOM     11  C   UNL     1      -4.654   0.902  25.774  0.00  0.00    +0.164 C 
ATOM     12  C   UNL     1      -6.156   1.215  25.767  0.00  0.00    +0.145 C 
ATOM     13  C   UNL     1      -5.623   3.399  24.638  0.00  0.00    +0.034 C 
ATOM     14  C   UNL     1      -6.542   2.180  24.650  0.00  0.00    +0.036 C 
ENDROOT
BRANCH  12   2
ATOM      2  O   UNL     1      -6.505   1.826  27.012  0.00  0.00    -0.389 OA
ATOM     30  H   UNL     1      -6.863   1.130  27.590  0.00  0.00    +0.210 HD
ENDBRANCH  12   2
BRANCH  10  15
ATOM     15  C   UNL     1      -3.234   4.173  24.728  0.00  0.00    +0.090 C 
BRANCH  15  17
ATOM      3  O   UNL     1       0.254   3.844  25.570  0.00  0.00    -0.357 OA
ATOM      8  N   UNL     1      -0.790   4.423  24.859  0.00  0.00    -0.083 NA
ATOM     17  C   UNL     1      -1.889   3.797  25.290  0.00  0.00    +0.086 A 
ATOM     18  C   UNL     1      -1.602   2.823  26.262  0.00  0.00    +0.073 A 
ATOM     20  C   UNL     1      -0.242   2.893  26.401  0.00  0.00    +0.163 A 
BRANCH  20  21
ATOM     21  C   UNL     1       0.734   2.177  27.234  0.00  0.00    +0.236 C 
BRANCH  21   5
ATOM      5  O   UNL     1       1.716   3.085  27.739  0.00  0.00    -0.375 OA
ATOM     27  C   UNL     1       2.129   2.719  29.045  0.00  0.00    +0.194 C 
ENDBRANCH  21   5
ENDBRANCH  20  21
ENDBRANCH  15  17
ENDBRANCH  10  15
BRANCH  11  16
ATOM     16  C   UNL     1      -4.242  -0.074  24.675  0.00  0.00    +0.140 C 
BRANCH  16   7
ATOM      4  O   UNL     1      -1.471  -0.763  24.897  0.00  0.00    -0.253 OA
ATOM      7  N   UNL     1      -3.164   0.455  23.897  0.00  0.00    -0.297 N 
ATOM      9  N   UNL     1      -0.995   0.750  23.166  0.00  0.00    -0.269 N 
ATOM     19  C   UNL     1      -1.822   0.068  24.063  0.00  0.00    +0.304 C 
ATOM     31  H   UNL     1      -3.374   1.182  23.218  0.00  0.00    +0.150 HD
ATOM     32  H   UNL     1      -1.449   1.407  22.536  0.00  0.00    +0.156 HD
BRANCH   9  22
ATOM     22  C   UNL     1       0.408   0.638  23.022  0.00  0.00    +0.035 A 
ATOM     23  C   UNL     1       0.950  -0.390  22.253  0.00  0.00    +0.027 A 
ATOM     24  C   UNL     1       1.249   1.559  23.648  0.00  0.00    +0.027 A 
ATOM     25  C   UNL     1       2.334  -0.500  22.109  0.00  0.00    +0.047 A 
ATOM     26  C   UNL     1       2.632   1.449  23.507  0.00  0.00    +0.047 A 
ATOM     28  C   UNL     1       3.174   0.420  22.737  0.00  0.00    +0.120 A 
BRANCH  28   6
ATOM      6  O   UNL     1       4.524   0.313  22.598  0.00  0.00    -0.495 OA
ATOM     29  C   UNL     1       5.278   0.038  23.779  0.00  0.00    +0.277 C 
ENDBRANCH  28   6
ENDBRANCH   9  22
ENDBRANCH  16   7
ENDBRANCH  11  16
TORSDOF 9
ENDMDL
MODEL 3
REMARK VINA RESULT:      -0.9      1.948      4.601
REMARK  Name = 75366958
REMARK  11 active torsions:
REMARK  status: ('A' for Active; 'I' for Inactive)
REMARK    1  A    between atoms: O_2  and  C_12
REMARK    2  A    between atoms: O_5  and  C_21
REMARK    3  A    between atoms: O_5  and  C_27
REMARK    4  A    between atoms: O_6  and  C_28
REMARK    5  A    between atoms: O_6  and  C_29
REMARK    6  A    between atoms: N_7  and  C_16
REMARK    7  A    between atoms: N_9  and  C_22
REMARK    8  A    between atoms: C_10  and  C_15
REMARK    9  A    between atoms: C_11  and  C_16
REMARK   10  A    between atoms: C_15  and  C_17
REMARK   11  A    between atoms: C_20  and  C_21
REMARK                            x       y       z     vdW  Elec       q    Type
REMARK                         _______ _______ _______ _____ _____    ______ ____
ROOT
ATOM      1  O   UNL     1      -3.188   0.525  25.073  0.00  0.00    -0.369 OA
ATOM     10  C   UNL     1      -4.441   0.646  24.395  0.00  0.00    +0.125 C 
ATOM     11  C   UNL     1      -2.318  -0.497  24.570  0.00  0.00    +0.164 C 
ATOM     12  C   UNL     1      -3.011  -1.865  24.561  0.00  0.00    +0.145 C 
ATOM     13  C   UNL     1      -5.220  -0.667  24.463  0.00  0.00    +0.034 C 
ATOM     14  C   UNL     1      -4.387  -1.815  23.902  0.00  0.00    +0.036 C 
ENDROOT
BRANCH  12   2
ATOM      2  O   UNL     1      -3.190  -2.301  25.911  0.00  0.00    -0.389 OA
ATOM     30  H   UNL     1      -3.636  -1.584  26.394  0.00  0.00    +0.210 HD
ENDBRANCH  12   2
BRANCH  10  15
ATOM     15  C   UNL     1      -5.217   1.773  25.064  0.00  0.00    +0.090 C 
BRANCH  15  17
ATOM      3  O   UNL     1      -3.571   4.652  26.473  0.00  0.00    -0.357 OA
ATOM      8  N   UNL     1      -4.546   3.662  26.491  0.00  0.00    -0.083 NA
ATOM     17  C   UNL     1      -4.334   2.950  25.380  0.00  0.00    +0.086 A 
ATOM     18  C   UNL     1      -3.250   3.440  24.630  0.00  0.00    +0.073 A 
ATOM     20  C   UNL     1      -2.807   4.510  25.361  0.00  0.00    +0.163 A 
BRANCH  20  21
ATOM     21  C   UNL     1      -1.720   5.482  25.184  0.00  0.00    +0.236 C 
BRANCH  21   5
ATOM      5  O   UNL     1      -0.533   4.822  24.733  0.00  0.00    -0.375 OA
ATOM     27  C   UNL     1      -0.249   3.681  25.526  0.00  0.00    +0.194 C 
ENDBRANCH  21   5
ENDBRANCH  20  21
ENDBRANCH  15  17
ENDBRANCH  10  15
BRANCH  11  16
ATOM     16  C   UNL     1      -1.744  -0.110  23.209  0.00  0.00    +0.140 C 
BRANCH  16   7
ATOM      4  O   UNL     1       0.778   1.103  23.822  0.00  0.00    -0.253 OA
ATOM      7  N   UNL     1      -0.448  -0.685  23.017  0.00  0.00    -0.297 N 
ATOM      9  N   UNL     1       1.855  -0.832  23.045  0.00  0.00    -0.269 N 
ATOM     19  C   UNL     1       0.752  -0.027  23.342  0.00  0.00    +0.304 C 
ATOM     31  H   UNL     1      -0.391  -1.602  22.581  0.00  0.00    +0.150 HD
ATOM     32  H   UNL     1       1.658  -1.749  22.651  0.00  0.00    +0.156 HD
BRANCH   9  22
ATOM     22  C   UNL     1       3.225  -0.530  23.226  0.00  0.00    +0.035 A 
ATOM     23  C   UNL     1       3.740   0.678  22.760  0.00  0.00    +0.027 A 
ATOM     24  C   UNL     1       4.060  -1.441  23.874  0.00  0.00    +0.027 A 
ATOM     25  C   UNL     1       5.091   0.977  22.939  0.00  0.00    +0.047 A 
ATOM     26  C   UNL     1       5.411  -1.144  24.052  0.00  0.00    +0.047 A 
ATOM     28  C   UNL     1       5.927   0.065  23.585  0.00  0.00    +0.120 A 
BRANCH  28   6
ATOM      6  O   UNL     1       7.244   0.355  23.759  0.00  0.00    -0.495 OA
ATOM     29  C   UNL     1       8.181  -0.383  22.974  0.00  0.00    +0.277 C 
ENDBRANCH  28   6
ENDBRANCH   9  22
ENDBRANCH  16   7
ENDBRANCH  11  16
TORSDOF 9
ENDMDL
MODEL 4
REMARK VINA RESULT:       1.6      2.263      4.289
REMARK  Name = 75366958
REMARK  11 active torsions:
REMARK  status: ('A' for Active; 'I' for Inactive)
REMARK    1  A    between atoms: O_2  and  C_12
REMARK    2  A    between atoms: O_5  and  C_21
REMARK    3  A    between atoms: O_5  and  C_27
REMARK    4  A    between atoms: O_6  and  C_28
REMARK    5  A    between atoms: O_6  and  C_29
REMARK    6  A    between atoms: N_7  and  C_16
REMARK    7  A    between atoms: N_9  and  C_22
REMARK    8  A    between atoms: C_10  and  C_15
REMARK    9  A    between atoms: C_11  and  C_16
REMARK   10  A    between atoms: C_15  and  C_17
REMARK   11  A    between atoms: C_20  and  C_21
REMARK                            x       y       z     vdW  Elec       q    Type
REMARK                         _______ _______ _______ _____ _____    ______ ____
ROOT
ATOM      1  O   UNL     1      -2.385   1.236  24.987  0.00  0.00    -0.369 OA
ATOM     10  C   UNL     1      -3.361   2.261  24.789  0.00  0.00    +0.125 C 
ATOM     11  C   UNL     1      -2.667  -0.008  24.332  0.00  0.00    +0.164 C 
ATOM     12  C   UNL     1      -4.045  -0.551  24.733  0.00  0.00    +0.145 C 
ATOM     13  C   UNL     1      -4.731   1.805  25.286  0.00  0.00    +0.034 C 
ATOM     14  C   UNL     1      -5.142   0.502  24.606  0.00  0.00    +0.036 C 
ENDROOT
BRANCH  12   2
ATOM      2  O   UNL     1      -3.996  -0.967  26.099  0.00  0.00    -0.389 OA
ATOM     30  H   UNL     1      -4.308  -1.888  26.138  0.00  0.00    +0.210 HD
ENDBRANCH  12   2
BRANCH  10  15
ATOM     15  C   UNL     1      -2.891   3.494  25.552  0.00  0.00    +0.090 C 
BRANCH  15  17
ATOM      3  O   UNL     1       0.696   3.647  25.861  0.00  0.00    -0.357 OA
ATOM      8  N   UNL     1      -0.495   3.935  25.206  0.00  0.00    -0.083 NA
ATOM     17  C   UNL     1      -1.447   3.380  25.962  0.00  0.00    +0.086 A 
ATOM     18  C   UNL     1      -0.920   2.735  27.095  0.00  0.00    +0.073 A 
ATOM     20  C   UNL     1       0.430   2.933  26.983  0.00  0.00    +0.163 A 
BRANCH  20  21
ATOM     21  C   UNL     1       1.586   2.542  27.801  0.00  0.00    +0.236 C 
BRANCH  21   5
ATOM      5  O   UNL     1       1.393   2.950  29.158  0.00  0.00    -0.375 OA
ATOM     27  C   UNL     1       1.856   1.961  30.062  0.00  0.00    +0.194 C 
ENDBRANCH  21   5
ENDBRANCH  20  21
ENDBRANCH  15  17
ENDBRANCH  10  15
BRANCH  11  16
ATOM     16  C   UNL     1      -2.490   0.114  22.820  0.00  0.00    +0.140 C 
BRANCH  16   7
ATOM      4  O   UNL     1      -0.080  -0.920  23.971  0.00  0.00    -0.253 OA
ATOM      7  N   UNL     1      -1.151   0.495  22.489  0.00  0.00    -0.297 N 
ATOM      9  N   UNL     1       1.154   0.507  22.575  0.00  0.00    -0.269 N 
ATOM     19  C   UNL     1      -0.012  -0.058  23.099  0.00  0.00    +0.304 C 
ATOM     31  H   UNL     1      -1.019   1.238  21.808  0.00  0.00    +0.150 HD
ATOM     32  H   UNL     1       1.035   1.212  21.852  0.00  0.00    +0.156 HD
BRANCH   9  22
ATOM     22  C   UNL     1       2.494   0.217  22.926  0.00  0.00    +0.035 A 
ATOM     23  C   UNL     1       3.473   1.204  22.817  0.00  0.00    +0.027 A 
ATOM     24  C   UNL     1       2.835  -1.057  23.382  0.00  0.00    +0.027 A 
ATOM     25  C   UNL     1       4.793   0.918  23.164  0.00  0.00    +0.047 A 
ATOM     26  C   UNL     1       4.155  -1.343  23.728  0.00  0.00    +0.047 A 
ATOM     28  C   UNL     1       5.135  -0.356  23.619  0.00  0.00    +0.120 A 
BRANCH  28   6
ATOM      6  O   UNL     1       6.423  -0.635  23.956  0.00  0.00    -0.495 OA
ATOM     29  C   UNL     1       7.389  -0.611  22.905  0.00  0.00    +0.277 C 
ENDBRANCH  28   6
ENDBRANCH   9  22
ENDBRANCH  16   7
ENDBRANCH  11  16
TORSDOF 9
ENDMDL
MODEL 5
REMARK VINA RESULT:       1.7      1.801      4.981
REMARK  Name = 75366958
REMARK  11 active torsions:
REMARK  status: ('A' for Active; 'I' for Inactive)
REMARK    1  A    between atoms: O_2  and  C_12
REMARK    2  A    between atoms: O_5  and  C_21
REMARK    3  A    between atoms: O_5  and  C_27
REMARK    4  A    between atoms: O_6  and  C_28
REMARK    5  A    between atoms: O_6  and  C_29
REMARK    6  A    between atoms: N_7  and  C_16
REMARK    7  A    between atoms: N_9  and  C_22
REMARK    8  A    between atoms: C_10  and  C_15
REMARK    9  A    between atoms: C_11  and  C_16
REMARK   10  A    between atoms: C_15  and  C_17
REMARK   11  A    between atoms: C_20  and  C_21
REMARK                            x       y       z     vdW  Elec       q    Type
REMARK                         _______ _______ _______ _____ _____    ______ ____
ROOT
ATOM      1  O   UNL     1      -1.865   0.023  25.292  0.00  0.00    -0.369 OA
ATOM     10  C   UNL     1      -1.769   0.716  24.046  0.00  0.00    +0.125 C 
ATOM     11  C   UNL     1      -2.630  -1.189  25.258  0.00  0.00    +0.164 C 
ATOM     12  C   UNL     1      -4.044  -0.942  24.717  0.00  0.00    +0.145 C 
ATOM     13  C   UNL     1      -3.157   1.088  23.527  0.00  0.00    +0.034 C 
ATOM     14  C   UNL     1      -4.037  -0.154  23.411  0.00  0.00    +0.036 C 
ENDROOT
BRANCH  12   2
ATOM      2  O   UNL     1      -4.780  -0.183  25.681  0.00  0.00    -0.389 OA
ATOM     30  H   UNL     1      -4.756  -0.672  26.521  0.00  0.00    +0.210 HD
ENDBRANCH  12   2
BRANCH  10  15
ATOM     15  C   UNL     1      -0.926   1.964  24.280  0.00  0.00    +0.090 C 
BRANCH  15  17
ATOM      3  O   UNL     1      -2.170   5.042  25.683  0.00  0.00    -0.357 OA
ATOM      8  N   UNL     1      -1.160   4.258  25.139  0.00  0.00    -0.083 NA
ATOM     17  C   UNL     1      -1.736   3.079  24.886  0.00  0.00    +0.086 A 
ATOM     18  C   UNL     1      -3.094   3.061  25.247  0.00  0.00    +0.073 A 
ATOM     20  C   UNL     1      -3.316   4.318  25.742  0.00  0.00    +0.163 A 
BRANCH  20  21
ATOM     21  C   UNL     1      -4.494   4.999  26.296  0.00  0.00    +0.236 C 
BRANCH  21   5
ATOM      5  O   UNL     1      -5.690   4.481  25.705  0.00  0.00    -0.375 OA
ATOM     27  C   UNL     1      -5.772   3.074  25.863  0.00  0.00    +0.194 C 
ENDBRANCH  21   5
ENDBRANCH  20  21
ENDBRANCH  15  17
ENDBRANCH  10  15
BRANCH  11  16
ATOM     16  C   UNL     1      -1.887  -2.288  24.503  0.00  0.00    +0.140 C 
BRANCH  16   7
ATOM      4  O   UNL     1       0.816  -1.790  25.313  0.00  0.00    -0.253 OA
ATOM      7  N   UNL     1      -0.839  -1.738  23.697  0.00  0.00    -0.297 N 
ATOM      9  N   UNL     1       1.271  -0.975  23.159  0.00  0.00    -0.269 N 
ATOM     19  C   UNL     1       0.469  -1.521  24.165  0.00  0.00    +0.304 C 
ATOM     31  H   UNL     1      -1.065  -1.448  22.750  0.00  0.00    +0.150 HD
ATOM     32  H   UNL     1       0.827  -0.815  22.258  0.00  0.00    +0.156 HD
BRANCH   9  22
ATOM     22  C   UNL     1       2.637  -0.617  23.236  0.00  0.00    +0.035 A 
ATOM     23  C   UNL     1       3.561  -1.504  23.787  0.00  0.00    +0.027 A 
ATOM     24  C   UNL     1       3.061   0.623  22.758  0.00  0.00    +0.027 A 
ATOM     25  C   UNL     1       4.909  -1.151  23.862  0.00  0.00    +0.047 A 
ATOM     26  C   UNL     1       4.407   0.978  22.834  0.00  0.00    +0.047 A 
ATOM     28  C   UNL     1       5.332   0.090  23.386  0.00  0.00    +0.120 A 
BRANCH  28   6
ATOM      6  O   UNL     1       6.646   0.435  23.460  0.00  0.00    -0.495 OA
ATOM     29  C   UNL     1       7.592  -0.497  22.936  0.00  0.00    +0.277 C 
ENDBRANCH  28   6
ENDBRANCH   9  22
ENDBRANCH  16   7
ENDBRANCH  11  16
TORSDOF 9
ENDMDL
MODEL 6
REMARK VINA RESULT:       1.8      1.685      2.637
REMARK  Name = 75366958
REMARK  11 active torsions:
REMARK  status: ('A' for Active; 'I' for Inactive)
REMARK    1  A    between atoms: O_2  and  C_12
REMARK    2  A    between atoms: O_5  and  C_21
REMARK    3  A    between atoms: O_5  and  C_27
REMARK    4  A    between atoms: O_6  and  C_28
REMARK    5  A    between atoms: O_6  and  C_29
REMARK    6  A    between atoms: N_7  and  C_16
REMARK    7  A    between atoms: N_9  and  C_22
REMARK    8  A    between atoms: C_10  and  C_15
REMARK    9  A    between atoms: C_11  and  C_16
REMARK   10  A    between atoms: C_15  and  C_17
REMARK   11  A    between atoms: C_20  and  C_21
REMARK                            x       y       z     vdW  Elec       q    Type
REMARK                         _______ _______ _______ _____ _____    ______ ____
ROOT
ATOM      1  O   UNL     1      -3.191   1.604  25.062  0.00  0.00    -0.369 OA
ATOM     10  C   UNL     1      -1.974   2.139  25.588  0.00  0.00    +0.125 C 
ATOM     11  C   UNL     1      -3.944   2.500  24.234  0.00  0.00    +0.164 C 
ATOM     12  C   UNL     1      -4.254   3.811  24.968  0.00  0.00    +0.145 C 
ATOM     13  C   UNL     1      -2.251   3.385  26.428  0.00  0.00    +0.034 C 
ATOM     14  C   UNL     1      -3.013   4.424  25.611  0.00  0.00    +0.036 C 
ENDROOT
BRANCH  12   2
ATOM      2  O   UNL     1      -5.198   3.545  26.008  0.00  0.00    -0.389 OA
ATOM     30  H   UNL     1      -5.587   4.394  26.276  0.00  0.00    +0.210 HD
ENDBRANCH  12   2
BRANCH  10  15
ATOM     15  C   UNL     1      -1.322   1.051  26.431  0.00  0.00    +0.090 C 
BRANCH  15  17
ATOM      3  O   UNL     1      -1.240  -2.281  25.060  0.00  0.00    -0.357 OA
ATOM      8  N   UNL     1      -0.624  -1.108  25.478  0.00  0.00    -0.083 NA
ATOM     17  C   UNL     1      -1.622  -0.325  25.898  0.00  0.00    +0.086 A 
ATOM     18  C   UNL     1      -2.877  -0.945  25.768  0.00  0.00    +0.073 A 
ATOM     20  C   UNL     1      -2.581  -2.171  25.237  0.00  0.00    +0.163 A 
BRANCH  20  21
ATOM     21  C   UNL     1      -3.391  -3.331  24.843  0.00  0.00    +0.236 C 
BRANCH  21   5
ATOM      5  O   UNL     1      -4.318  -2.963  23.818  0.00  0.00    -0.375 OA
ATOM     27  C   UNL     1      -4.326  -1.560  23.614  0.00  0.00    +0.194 C 
ENDBRANCH  21   5
ENDBRANCH  20  21
ENDBRANCH  15  17
ENDBRANCH  10  15
BRANCH  11  16
ATOM     16  C   UNL     1      -3.253   2.718  22.890  0.00  0.00    +0.140 C 
BRANCH  16   7
ATOM      4  O   UNL     1      -1.378   0.556  22.755  0.00  0.00    -0.253 OA
ATOM      7  N   UNL     1      -1.833   2.804  23.051  0.00  0.00    -0.297 N 
ATOM      9  N   UNL     1       0.355   2.083  23.169  0.00  0.00    -0.269 N 
ATOM     19  C   UNL     1      -0.973   1.695  22.971  0.00  0.00    +0.304 C 
ATOM     31  H   UNL     1      -1.431   3.710  23.278  0.00  0.00    +0.150 HD
ATOM     32  H   UNL     1       0.522   3.073  23.335  0.00  0.00    +0.156 HD
BRANCH   9  22
ATOM     22  C   UNL     1       1.509   1.265  23.165  0.00  0.00    +0.035 A 
ATOM     23  C   UNL     1       1.386  -0.116  23.310  0.00  0.00    +0.027 A 
ATOM     24  C   UNL     1       2.771   1.840  23.014  0.00  0.00    +0.027 A 
ATOM     25  C   UNL     1       2.524  -0.923  23.305  0.00  0.00    +0.047 A 
ATOM     26  C   UNL     1       3.909   1.034  23.010  0.00  0.00    +0.047 A 
ATOM     28  C   UNL     1       3.786  -0.348  23.155  0.00  0.00    +0.120 A 
BRANCH  28   6
ATOM      6  O   UNL     1       4.896  -1.134  23.151  0.00  0.00    -0.495 OA
ATOM     29  C   UNL     1       5.839  -0.931  24.204  0.00  0.00    +0.277 C 
ENDBRANCH  28   6
ENDBRANCH   9  22
ENDBRANCH  16   7
ENDBRANCH  11  16
TORSDOF 9
ENDMDL
MODEL 7
REMARK VINA RESULT:       1.8      1.873      5.528
REMARK  Name = 75366958
REMARK  11 active torsions:
REMARK  status: ('A' for Active; 'I' for Inactive)
REMARK    1  A    between atoms: O_2  and  C_12
REMARK    2  A    between atoms: O_5  and  C_21
REMARK    3  A    between atoms: O_5  and  C_27
REMARK    4  A    between atoms: O_6  and  C_28
REMARK    5  A    between atoms: O_6  and  C_29
REMARK    6  A    between atoms: N_7  and  C_16
REMARK    7  A    between atoms: N_9  and  C_22
REMARK    8  A    between atoms: C_10  and  C_15
REMARK    9  A    between atoms: C_11  and  C_16
REMARK   10  A    between atoms: C_15  and  C_17
REMARK   11  A    between atoms: C_20  and  C_21
REMARK                            x       y       z     vdW  Elec       q    Type
REMARK                         _______ _______ _______ _____ _____    ______ ____
ROOT
ATOM      1  O   UNL     1      -2.074   4.017  26.323  0.00  0.00    -0.369 OA
ATOM     10  C   UNL     1      -1.551   3.172  25.296  0.00  0.00    +0.125 C 
ATOM     11  C   UNL     1      -2.932   5.072  25.867  0.00  0.00    +0.164 C 
ATOM     12  C   UNL     1      -2.235   5.943  24.814  0.00  0.00    +0.145 C 
ATOM     13  C   UNL     1      -0.747   3.987  24.284  0.00  0.00    +0.034 C 
ATOM     14  C   UNL     1      -1.597   5.113  23.704  0.00  0.00    +0.036 C 
ENDROOT
BRANCH  12   2
ATOM      2  O   UNL     1      -1.197   6.693  25.450  0.00  0.00    -0.389 OA
ATOM     30  H   UNL     1      -0.579   6.985  24.758  0.00  0.00    +0.210 HD
ENDBRANCH  12   2
BRANCH  10  15
ATOM     15  C   UNL     1      -0.674   2.123  25.968  0.00  0.00    +0.090 C 
BRANCH  15  17
ATOM      3  O   UNL     1       0.310  -0.631  23.862  0.00  0.00    -0.357 OA
ATOM      8  N   UNL     1      -0.469  -0.067  24.865  0.00  0.00    -0.083 NA
ATOM     17  C   UNL     1      -0.043   1.196  24.963  0.00  0.00    +0.086 A 
ATOM     18  C   UNL     1       0.993   1.482  24.057  0.00  0.00    +0.073 A 
ATOM     20  C   UNL     1       1.176   0.300  23.389  0.00  0.00    +0.163 A 
BRANCH  20  21
ATOM     21  C   UNL     1       2.081  -0.131  22.316  0.00  0.00    +0.236 C 
BRANCH  21   5
ATOM      5  O   UNL     1       3.241   0.706  22.280  0.00  0.00    -0.375 OA
ATOM     27  C   UNL     1       4.285   0.169  23.076  0.00  0.00    +0.194 C 
ENDBRANCH  21   5
ENDBRANCH  20  21
ENDBRANCH  15  17
ENDBRANCH  10  15
BRANCH  11  16
ATOM     16  C   UNL     1      -4.275   4.522  25.393  0.00  0.00    +0.140 C 
BRANCH  16   7
ATOM      4  O   UNL     1      -3.559   2.195  23.883  0.00  0.00    -0.253 OA
ATOM      7  N   UNL     1      -4.440   3.157  25.793  0.00  0.00    -0.297 N 
ATOM      9  N   UNL     1      -4.345   0.857  25.644  0.00  0.00    -0.269 N 
ATOM     19  C   UNL     1      -4.064   2.062  24.995  0.00  0.00    +0.304 C 
ATOM     31  H   UNL     1      -4.895   2.971  26.682  0.00  0.00    +0.150 HD
ATOM     32  H   UNL     1      -4.765   0.923  26.568  0.00  0.00    +0.156 HD
BRANCH   9  22
ATOM     22  C   UNL     1      -4.115  -0.458  25.173  0.00  0.00    +0.035 A 
ATOM     23  C   UNL     1      -3.395  -1.361  25.953  0.00  0.00    +0.027 A 
ATOM     24  C   UNL     1      -4.611  -0.849  23.930  0.00  0.00    +0.027 A 
ATOM     25  C   UNL     1      -3.168  -2.657  25.489  0.00  0.00    +0.047 A 
ATOM     26  C   UNL     1      -4.384  -2.144  23.465  0.00  0.00    +0.047 A 
ATOM     28  C   UNL     1      -3.663  -3.049  24.245  0.00  0.00    +0.120 A 
BRANCH  28   6
ATOM      6  O   UNL     1      -3.442  -4.313  23.792  0.00  0.00    -0.495 OA
ATOM     29  C   UNL     1      -2.299  -4.513  22.959  0.00  0.00    +0.277 C 
ENDBRANCH  28   6
ENDBRANCH   9  22
ENDBRANCH  16   7
ENDBRANCH  11  16
TORSDOF 9
ENDMDL
MODEL 8
REMARK VINA RESULT:       2.0      1.661      7.536
REMARK  Name = 75366958
REMARK  11 active torsions:
REMARK  status: ('A' for Active; 'I' for Inactive)
REMARK    1  A    between atoms: O_2  and  C_12
REMARK    2  A    between atoms: O_5  and  C_21
REMARK    3  A    between atoms: O_5  and  C_27
REMARK    4  A    between atoms: O_6  and  C_28
REMARK    5  A    between atoms: O_6  and  C_29
REMARK    6  A    between atoms: N_7  and  C_16
REMARK    7  A    between atoms: N_9  and  C_22
REMARK    8  A    between atoms: C_10  and  C_15
REMARK    9  A    between atoms: C_11  and  C_16
REMARK   10  A    between atoms: C_15  and  C_17
REMARK   11  A    between atoms: C_20  and  C_21
REMARK                            x       y       z     vdW  Elec       q    Type
REMARK                         _______ _______ _______ _____ _____    ______ ____
ROOT
ATOM      1  O   UNL     1      -0.914  -1.835  23.498  0.00  0.00    -0.369 OA
ATOM     10  C   UNL     1      -1.165  -0.523  24.006  0.00  0.00    +0.125 C 
ATOM     11  C   UNL     1      -1.303  -2.909  24.365  0.00  0.00    +0.164 C 
ATOM     12  C   UNL     1      -0.646  -2.778  25.746  0.00  0.00    +0.145 C 
ATOM     13  C   UNL     1      -0.430  -0.307  25.329  0.00  0.00    +0.034 C 
ATOM     14  C   UNL     1      -0.818  -1.382  26.340  0.00  0.00    +0.036 C 
ENDROOT
BRANCH  12   2
ATOM      2  O   UNL     1       0.755  -3.027  25.615  0.00  0.00    -0.389 OA
ATOM     30  H   UNL     1       1.226  -2.270  26.004  0.00  0.00    +0.210 HD
ENDBRANCH  12   2
BRANCH  10  15
ATOM     15  C   UNL     1      -0.691   0.473  22.955  0.00  0.00    +0.090 C 
BRANCH  15  17
ATOM      3  O   UNL     1       2.694   1.552  23.561  0.00  0.00    -0.357 OA
ATOM      8  N   UNL     1       1.320   1.656  23.738  0.00  0.00    -0.083 NA
ATOM     17  C   UNL     1       0.801   0.668  23.002  0.00  0.00    +0.086 A 
ATOM     18  C   UNL     1       1.790  -0.083  22.344  0.00  0.00    +0.073 A 
ATOM     20  C   UNL     1       2.961   0.514  22.729  0.00  0.00    +0.163 A 
BRANCH  20  21
ATOM     21  C   UNL     1       4.377   0.260  22.432  0.00  0.00    +0.236 C 
BRANCH  21   5
ATOM      5  O   UNL     1       5.187   0.580  23.567  0.00  0.00    -0.375 OA
ATOM     27  C   UNL     1       5.538  -0.587  24.291  0.00  0.00    +0.194 C 
ENDBRANCH  21   5
ENDBRANCH  20  21
ENDBRANCH  15  17
ENDBRANCH  10  15
BRANCH  11  16
ATOM     16  C   UNL     1      -2.822  -3.036  24.437  0.00  0.00    +0.140 C 
BRANCH  16   7
ATOM      4  O   UNL     1      -3.570  -0.788  26.048  0.00  0.00    -0.253 OA
ATOM      7  N   UNL     1      -3.459  -1.835  23.988  0.00  0.00    -0.297 N 
ATOM      9  N   UNL     1      -4.406   0.265  24.123  0.00  0.00    -0.269 N 
ATOM     19  C   UNL     1      -3.798  -0.769  24.841  0.00  0.00    +0.304 C 
ATOM     31  H   UNL     1      -3.719  -1.768  23.008  0.00  0.00    +0.150 HD
ATOM     32  H   UNL     1      -4.518   0.121  23.123  0.00  0.00    +0.156 HD
BRANCH   9  22
ATOM     22  C   UNL     1      -4.887   1.499  24.619  0.00  0.00    +0.035 A 
ATOM     23  C   UNL     1      -6.032   1.534  25.414  0.00  0.00    +0.027 A 
ATOM     24  C   UNL     1      -4.216   2.683  24.312  0.00  0.00    +0.027 A 
ATOM     25  C   UNL     1      -6.506   2.751  25.902  0.00  0.00    +0.047 A 
ATOM     26  C   UNL     1      -4.690   3.901  24.799  0.00  0.00    +0.047 A 
ATOM     28  C   UNL     1      -5.836   3.935  25.595  0.00  0.00    +0.120 A 
BRANCH  28   6
ATOM      6  O   UNL     1      -6.299   5.122  26.070  0.00  0.00    -0.495 OA
ATOM     29  C   UNL     1      -6.572   6.143  25.111  0.00  0.00    +0.277 C 
ENDBRANCH  28   6
ENDBRANCH   9  22
ENDBRANCH  16   7
ENDBRANCH  11  16
TORSDOF 9
ENDMDL
