MODEL 1
REMARK VINA RESULT:      -3.9      0.000      0.000
REMARK  Name = 51136676
REMARK  11 active torsions:
REMARK  status: ('A' for Active; 'I' for Inactive)
REMARK    1  A    between atoms: S_1  and  N_7
REMARK    2  A    between atoms: S_1  and  C_17
REMARK    3  A    between atoms: O_4  and  C_18
REMARK    4  A    between atoms: O_6  and  C_28
REMARK    5  A    between atoms: O_6  and  C_29
REMARK    6  A    between atoms: C_9  and  C_14
REMARK    7  A    between atoms: C_10  and  C_15
REMARK    8  A    between atoms: C_14  and  C_16
REMARK    9  A    between atoms: C_15  and  C_18
REMARK   10  A    between atoms: C_17  and  C_20
REMARK   11  A    between atoms: C_20  and  C_25
REMARK                            x       y       z     vdW  Elec       q    Type
REMARK                         _______ _______ _______ _____ _____    ______ ____
ROOT
ATOM      7  N   UNL     1      -0.889  -0.190  24.785  0.00  0.00    -0.181 NA
ATOM      9  C   UNL     1       0.571   1.796  24.475  0.00  0.00    +0.014 C 
ATOM     10  C   UNL     1       1.637   0.884  23.820  0.00  0.00    +0.006 C 
ATOM     11  C   UNL     1      -0.271   0.983  25.470  0.00  0.00    +0.113 C 
ATOM     12  C   UNL     1       0.999  -0.372  23.207  0.00  0.00    +0.021 C 
ATOM     13  C   UNL     1       0.137  -1.114  24.224  0.00  0.00    +0.109 C 
ENDROOT
BRANCH   7   1
ATOM      1  S   UNL     1      -2.169  -0.947  25.637  0.00  0.00    +0.032 S 
ATOM      2  O   UNL     1      -3.390  -0.214  25.386  0.00  0.00    -0.158 OA
ATOM      3  O   UNL     1      -1.720  -1.245  26.979  0.00  0.00    -0.158 OA
BRANCH   1  17
ATOM     17  C   UNL     1      -2.248  -2.471  24.732  0.00  0.00    +0.185 C 
BRANCH  17  20
ATOM     20  C   UNL     1      -3.680  -2.962  24.601  0.00  0.00    +0.021 C 
ATOM     25  C   UNL     1      -4.444  -2.171  23.553  0.00  0.00    +0.005 C 
ENDBRANCH  17  20
ENDBRANCH   1  17
ENDBRANCH   7   1
BRANCH   9  14
ATOM     14  C   UNL     1      -0.333   2.523  23.471  0.00  0.00    +0.060 C 
BRANCH  14  16
ATOM      8  N   UNL     1      -0.731   4.602  24.605  0.00  0.00    -0.287 NA
ATOM     16  C   UNL     1      -1.239   3.485  24.201  0.00  0.00    +0.044 C 
ATOM     19  C   UNL     1      -2.657   3.104  24.424  0.00  0.00    -0.001 A 
ATOM     21  C   UNL     1      -3.352   3.811  25.413  0.00  0.00    -0.033 A 
ATOM     22  C   UNL     1      -1.625   5.563  25.259  0.00  0.00    +0.146 C 
ATOM     23  C   UNL     1      -2.629   4.880  26.178  0.00  0.00    +0.059 C 
ATOM     24  C   UNL     1      -3.287   2.083  23.709  0.00  0.00    +0.013 A 
ATOM     26  C   UNL     1      -4.678   3.473  25.699  0.00  0.00    +0.050 A 
ATOM     27  C   UNL     1      -4.614   1.764  23.992  0.00  0.00    +0.046 A 
ATOM     28  C   UNL     1      -5.308   2.455  24.985  0.00  0.00    +0.120 A 
BRANCH  28   6
ATOM      6  O   UNL     1      -6.602   2.131  25.261  0.00  0.00    -0.495 OA
ATOM     29  C   UNL     1      -6.896   1.718  26.595  0.00  0.00    +0.277 C 
ENDBRANCH  28   6
ENDBRANCH  14  16
ENDBRANCH   9  14
BRANCH  10  15
ATOM     15  C   UNL     1       2.497   1.611  22.786  0.00  0.00    +0.124 C 
BRANCH  15  18
ATOM      5  O   UNL     1       4.689   0.793  23.470  0.00  0.00    -0.251 OA
ATOM     18  C   UNL     1       3.834   0.945  22.611  0.00  0.00    +0.305 C 
BRANCH  18   4
ATOM      4  O   UNL     1       3.970   0.522  21.328  0.00  0.00    -0.481 OA
ATOM     30  H   UNL     1       3.663   1.197  20.685  0.00  0.00    +0.295 HD
ENDBRANCH  18   4
ENDBRANCH  15  18
ENDBRANCH  10  15
TORSDOF 9
ENDMDL
MODEL 2
REMARK VINA RESULT:      -2.6      1.374      1.722
REMARK  Name = 51136676
REMARK  11 active torsions:
REMARK  status: ('A' for Active; 'I' for Inactive)
REMARK    1  A    between atoms: S_1  and  N_7
REMARK    2  A    between atoms: S_1  and  C_17
REMARK    3  A    between atoms: O_4  and  C_18
REMARK    4  A    between atoms: O_6  and  C_28
REMARK    5  A    between atoms: O_6  and  C_29
REMARK    6  A    between atoms: C_9  and  C_14
REMARK    7  A    between atoms: C_10  and  C_15
REMARK    8  A    between atoms: C_14  and  C_16
REMARK    9  A    between atoms: C_15  and  C_18
REMARK   10  A    between atoms: C_17  and  C_20
REMARK   11  A    between atoms: C_20  and  C_25
REMARK                            x       y       z     vdW  Elec       q    Type
REMARK                         _______ _______ _______ _____ _____    ______ ____
ROOT
ATOM      7  N   UNL     1      -1.732  -1.179  24.888  0.00  0.00    -0.181 NA
ATOM      9  C   UNL     1      -0.004   0.499  24.280  0.00  0.00    +0.014 C 
ATOM     10  C   UNL     1       0.818  -0.624  23.601  0.00  0.00    +0.006 C 
ATOM     11  C   UNL     1      -0.857  -0.090  25.414  0.00  0.00    +0.113 C 
ATOM     12  C   UNL     1      -0.084  -1.786  23.156  0.00  0.00    +0.021 C 
ATOM     13  C   UNL     1      -0.941  -2.301  24.308  0.00  0.00    +0.109 C 
ENDROOT
BRANCH   7   1
ATOM      1  S   UNL     1      -3.020  -1.646  25.918  0.00  0.00    +0.032 S 
ATOM      2  O   UNL     1      -2.811  -1.051  27.219  0.00  0.00    -0.158 OA
ATOM      3  O   UNL     1      -3.252  -3.063  25.756  0.00  0.00    -0.158 OA
BRANCH   1  17
ATOM     17  C   UNL     1      -4.347  -0.776  25.123  0.00  0.00    +0.185 C 
BRANCH  17  20
ATOM     20  C   UNL     1      -4.342  -1.014  23.622  0.00  0.00    +0.021 C 
ATOM     25  C   UNL     1      -4.558  -2.481  23.292  0.00  0.00    +0.005 C 
ENDBRANCH  17  20
ENDBRANCH   1  17
ENDBRANCH   7   1
BRANCH   9  14
ATOM     14  C   UNL     1      -0.878   1.307  23.311  0.00  0.00    +0.060 C 
BRANCH  14  16
ATOM      8  N   UNL     1      -0.149   3.503  23.955  0.00  0.00    -0.287 NA
ATOM     16  C   UNL     1      -1.142   2.679  23.883  0.00  0.00    +0.044 C 
ATOM     19  C   UNL     1      -2.516   3.012  24.338  0.00  0.00    -0.001 A 
ATOM     21  C   UNL     1      -2.646   4.110  25.198  0.00  0.00    -0.033 A 
ATOM     22  C   UNL     1      -0.418   4.856  24.453  0.00  0.00    +0.146 C 
ATOM     23  C   UNL     1      -1.411   4.856  25.608  0.00  0.00    +0.059 C 
ATOM     24  C   UNL     1      -3.638   2.274  23.956  0.00  0.00    +0.013 A 
ATOM     26  C   UNL     1      -3.907   4.450  25.695  0.00  0.00    +0.050 A 
ATOM     27  C   UNL     1      -4.894   2.632  24.445  0.00  0.00    +0.046 A 
ATOM     28  C   UNL     1      -5.030   3.715  25.314  0.00  0.00    +0.120 A 
BRANCH  28   6
ATOM      6  O   UNL     1      -6.259   4.053  25.793  0.00  0.00    -0.495 OA
ATOM     29  C   UNL     1      -6.668   5.410  25.629  0.00  0.00    +0.277 C 
ENDBRANCH  28   6
ENDBRANCH  14  16
ENDBRANCH   9  14
BRANCH  10  15
ATOM     15  C   UNL     1       1.670  -0.125  22.434  0.00  0.00    +0.124 C 
BRANCH  15  18
ATOM      5  O   UNL     1       3.672   1.232  22.735  0.00  0.00    -0.251 OA
ATOM     18  C   UNL     1       3.080   0.171  22.864  0.00  0.00    +0.305 C 
BRANCH  18   4
ATOM      4  O   UNL     1       3.626  -0.934  23.434  0.00  0.00    -0.481 OA
ATOM     30  H   UNL     1       4.522  -1.123  23.081  0.00  0.00    +0.295 HD
ENDBRANCH  18   4
ENDBRANCH  15  18
ENDBRANCH  10  15
TORSDOF 9
ENDMDL
MODEL 3
REMARK VINA RESULT:      -1.1      2.121      6.709
REMARK  Name = 51136676
REMARK  11 active torsions:
REMARK  status: ('A' for Active; 'I' for Inactive)
REMARK    1  A    between atoms: S_1  and  N_7
REMARK    2  A    between atoms: S_1  and  C_17
REMARK    3  A    between atoms: O_4  and  C_18
REMARK    4  A    between atoms: O_6  and  C_28
REMARK    5  A    between atoms: O_6  and  C_29
REMARK    6  A    between atoms: C_9  and  C_14
REMARK    7  A    between atoms: C_10  and  C_15
REMARK    8  A    between atoms: C_14  and  C_16
REMARK    9  A    between atoms: C_15  and  C_18
REMARK   10  A    between atoms: C_17  and  C_20
REMARK   11  A    between atoms: C_20  and  C_25
REMARK                            x       y       z     vdW  Elec       q    Type
REMARK                         _______ _______ _______ _____ _____    ______ ____
ROOT
ATOM      7  N   UNL     1      -4.546   2.110  25.134  0.00  0.00    -0.181 NA
ATOM      9  C   UNL     1      -3.314  -0.046  25.164  0.00  0.00    +0.014 C 
ATOM     10  C   UNL     1      -4.608  -0.768  24.716  0.00  0.00    +0.006 C 
ATOM     11  C   UNL     1      -3.670   1.223  25.954  0.00  0.00    +0.113 C 
ATOM     12  C   UNL     1      -5.548   0.185  23.962  0.00  0.00    +0.021 C 
ATOM     13  C   UNL     1      -5.830   1.447  24.770  0.00  0.00    +0.109 C 
ENDROOT
BRANCH   7   1
ATOM      1  S   UNL     1      -4.688   3.723  25.698  0.00  0.00    +0.032 S 
ATOM      2  O   UNL     1      -3.867   3.874  26.879  0.00  0.00    -0.158 OA
ATOM      3  O   UNL     1      -6.084   4.097  25.687  0.00  0.00    -0.158 OA
BRANCH   1  17
ATOM     17  C   UNL     1      -3.883   4.562  24.358  0.00  0.00    +0.185 C 
BRANCH  17  20
ATOM     20  C   UNL     1      -2.382   4.329  24.382  0.00  0.00    +0.021 C 
ATOM     25  C   UNL     1      -1.655   5.462  25.086  0.00  0.00    +0.005 C 
ENDBRANCH  17  20
ENDBRANCH   1  17
ENDBRANCH   7   1
BRANCH   9  14
ATOM     14  C   UNL     1      -2.353   0.286  24.015  0.00  0.00    +0.060 C 
BRANCH  14  16
ATOM      8  N   UNL     1      -1.261   1.724  25.598  0.00  0.00    -0.287 NA
ATOM     16  C   UNL     1      -1.122   0.969  24.559  0.00  0.00    +0.044 C 
ATOM     19  C   UNL     1       0.179   0.749  23.876  0.00  0.00    -0.001 A 
ATOM     21  C   UNL     1       1.198   1.670  24.148  0.00  0.00    -0.033 A 
ATOM     22  C   UNL     1      -0.055   2.338  26.163  0.00  0.00    +0.146 C 
ATOM     23  C   UNL     1       0.911   2.808  25.083  0.00  0.00    +0.059 C 
ATOM     24  C   UNL     1       0.398  -0.308  22.990  0.00  0.00    +0.013 A 
ATOM     26  C   UNL     1       2.433   1.543  23.506  0.00  0.00    +0.050 A 
ATOM     27  C   UNL     1       1.639  -0.436  22.366  0.00  0.00    +0.046 A 
ATOM     28  C   UNL     1       2.653   0.487  22.621  0.00  0.00    +0.120 A 
BRANCH  28   6
ATOM      6  O   UNL     1       3.860   0.360  22.002  0.00  0.00    -0.495 OA
ATOM     29  C   UNL     1       5.009   0.243  22.839  0.00  0.00    +0.277 C 
ENDBRANCH  28   6
ENDBRANCH  14  16
ENDBRANCH   9  14
BRANCH  10  15
ATOM     15  C   UNL     1      -4.341  -2.027  23.890  0.00  0.00    +0.124 C 
BRANCH  15  18
ATOM      5  O   UNL     1      -2.120  -3.030  23.858  0.00  0.00    -0.251 OA
ATOM     18  C   UNL     1      -3.175  -2.807  24.431  0.00  0.00    +0.305 C 
BRANCH  18   4
ATOM      4  O   UNL     1      -3.461  -3.246  25.684  0.00  0.00    -0.481 OA
ATOM     30  H   UNL     1      -3.190  -4.180  25.816  0.00  0.00    +0.295 HD
ENDBRANCH  18   4
ENDBRANCH  15  18
ENDBRANCH  10  15
TORSDOF 9
ENDMDL
MODEL 4
REMARK VINA RESULT:      -0.9      2.269      4.522
REMARK  Name = 51136676
REMARK  11 active torsions:
REMARK  status: ('A' for Active; 'I' for Inactive)
REMARK    1  A    between atoms: S_1  and  N_7
REMARK    2  A    between atoms: S_1  and  C_17
REMARK    3  A    between atoms: O_4  and  C_18
REMARK    4  A    between atoms: O_6  and  C_28
REMARK    5  A    between atoms: O_6  and  C_29
REMARK    6  A    between atoms: C_9  and  C_14
REMARK    7  A    between atoms: C_10  and  C_15
REMARK    8  A    between atoms: C_14  and  C_16
REMARK    9  A    between atoms: C_15  and  C_18
REMARK   10  A    between atoms: C_17  and  C_20
REMARK   11  A    between atoms: C_20  and  C_25
REMARK                            x       y       z     vdW  Elec       q    Type
REMARK                         _______ _______ _______ _____ _____    ______ ____
ROOT
ATOM      7  N   UNL     1      -0.271   2.461  24.193  0.00  0.00    -0.181 NA
ATOM      9  C   UNL     1      -0.202   0.183  23.202  0.00  0.00    +0.014 C 
ATOM     10  C   UNL     1       1.277   0.422  22.809  0.00  0.00    +0.006 C 
ATOM     11  C   UNL     1      -0.952   1.523  23.251  0.00  0.00    +0.113 C 
ATOM     12  C   UNL     1       1.937   1.467  23.723  0.00  0.00    +0.021 C 
ATOM     13  C   UNL     1       1.127   2.758  23.772  0.00  0.00    +0.109 C 
ENDROOT
BRANCH   7   1
ATOM      1  S   UNL     1      -1.198   3.821  24.671  0.00  0.00    +0.032 S 
ATOM      2  O   UNL     1      -2.525   3.697  24.110  0.00  0.00    -0.158 OA
ATOM      3  O   UNL     1      -0.401   5.013  24.487  0.00  0.00    -0.158 OA
BRANCH   1  17
ATOM     17  C   UNL     1      -1.305   3.493  26.411  0.00  0.00    +0.185 C 
BRANCH  17  20
ATOM     20  C   UNL     1      -0.455   2.295  26.801  0.00  0.00    +0.021 C 
ATOM     25  C   UNL     1       0.818   2.725  27.510  0.00  0.00    +0.005 C 
ENDBRANCH  17  20
ENDBRANCH   1  17
ENDBRANCH   7   1
BRANCH   9  14
ATOM     14  C   UNL     1      -0.383  -0.585  24.518  0.00  0.00    +0.060 C 
BRANCH  14  16
ATOM      8  N   UNL     1      -1.752  -2.552  24.356  0.00  0.00    -0.287 NA
ATOM     16  C   UNL     1      -1.728  -1.271  24.528  0.00  0.00    +0.044 C 
ATOM     19  C   UNL     1      -2.949  -0.449  24.727  0.00  0.00    -0.001 A 
ATOM     21  C   UNL     1      -4.167  -1.029  24.351  0.00  0.00    -0.033 A 
ATOM     22  C   UNL     1      -3.052  -3.227  24.428  0.00  0.00    +0.146 C 
ATOM     23  C   UNL     1      -4.159  -2.412  23.771  0.00  0.00    +0.059 C 
ATOM     24  C   UNL     1      -2.911   0.847  25.245  0.00  0.00    +0.013 A 
ATOM     26  C   UNL     1      -5.349  -0.292  24.475  0.00  0.00    +0.050 A 
ATOM     27  C   UNL     1      -4.098   1.567  25.379  0.00  0.00    +0.046 A 
ATOM     28  C   UNL     1      -5.313   1.002  24.994  0.00  0.00    +0.120 A 
BRANCH  28   6
ATOM      6  O   UNL     1      -6.466   1.715  25.120  0.00  0.00    -0.495 OA
ATOM     29  C   UNL     1      -6.364   3.012  25.708  0.00  0.00    +0.277 C 
ENDBRANCH  28   6
ENDBRANCH  14  16
ENDBRANCH   9  14
BRANCH  10  15
ATOM     15  C   UNL     1       2.105  -0.862  22.772  0.00  0.00    +0.124 C 
BRANCH  15  18
ATOM      5  O   UNL     1       4.234   0.297  22.522  0.00  0.00    -0.251 OA
ATOM     18  C   UNL     1       3.561  -0.590  23.025  0.00  0.00    +0.305 C 
BRANCH  18   4
ATOM      4  O   UNL     1       4.047  -1.491  23.918  0.00  0.00    -0.481 OA
ATOM     30  H   UNL     1       3.801  -1.263  24.839  0.00  0.00    +0.295 HD
ENDBRANCH  18   4
ENDBRANCH  15  18
ENDBRANCH  10  15
TORSDOF 9
ENDMDL
MODEL 5
REMARK VINA RESULT:      -0.7      2.128      4.487
REMARK  Name = 51136676
REMARK  11 active torsions:
REMARK  status: ('A' for Active; 'I' for Inactive)
REMARK    1  A    between atoms: S_1  and  N_7
REMARK    2  A    between atoms: S_1  and  C_17
REMARK    3  A    between atoms: O_4  and  C_18
REMARK    4  A    between atoms: O_6  and  C_28
REMARK    5  A    between atoms: O_6  and  C_29
REMARK    6  A    between atoms: C_9  and  C_14
REMARK    7  A    between atoms: C_10  and  C_15
REMARK    8  A    between atoms: C_14  and  C_16
REMARK    9  A    between atoms: C_15  and  C_18
REMARK   10  A    between atoms: C_17  and  C_20
REMARK   11  A    between atoms: C_20  and  C_25
REMARK                            x       y       z     vdW  Elec       q    Type
REMARK                         _______ _______ _______ _____ _____    ______ ____
ROOT
ATOM      7  N   UNL     1      -0.327   2.401  24.440  0.00  0.00    -0.181 NA
ATOM      9  C   UNL     1      -0.217   0.205  23.283  0.00  0.00    +0.014 C 
ATOM     10  C   UNL     1       1.253   0.505  22.900  0.00  0.00    +0.006 C 
ATOM     11  C   UNL     1      -0.995   1.521  23.436  0.00  0.00    +0.113 C 
ATOM     12  C   UNL     1       1.898   1.493  23.884  0.00  0.00    +0.021 C 
ATOM     13  C   UNL     1       1.061   2.760  24.033  0.00  0.00    +0.109 C 
ENDROOT
BRANCH   7   1
ATOM      1  S   UNL     1      -1.279   3.702  25.022  0.00  0.00    +0.032 S 
ATOM      2  O   UNL     1      -0.634   4.946  24.662  0.00  0.00    -0.158 OA
ATOM      3  O   UNL     1      -1.673   3.415  26.383  0.00  0.00    -0.158 OA
BRANCH   1  17
ATOM     17  C   UNL     1      -2.702   3.499  23.982  0.00  0.00    +0.185 C 
BRANCH  17  20
ATOM     20  C   UNL     1      -3.676   4.653  24.147  0.00  0.00    +0.021 C 
ATOM     25  C   UNL     1      -4.667   4.387  25.268  0.00  0.00    +0.005 C 
ENDBRANCH  17  20
ENDBRANCH   1  17
ENDBRANCH   7   1
BRANCH   9  14
ATOM     14  C   UNL     1      -0.371  -0.662  24.540  0.00  0.00    +0.060 C 
BRANCH  14  16
ATOM      8  N   UNL     1      -1.675  -2.655  24.234  0.00  0.00    -0.287 NA
ATOM     16  C   UNL     1      -1.692  -1.390  24.500  0.00  0.00    +0.044 C 
ATOM     19  C   UNL     1      -2.939  -0.626  24.757  0.00  0.00    -0.001 A 
ATOM     21  C   UNL     1      -4.139  -1.216  24.340  0.00  0.00    -0.033 A 
ATOM     22  C   UNL     1      -2.953  -3.376  24.256  0.00  0.00    +0.146 C 
ATOM     23  C   UNL     1      -4.087  -2.552  23.660  0.00  0.00    +0.059 C 
ATOM     24  C   UNL     1      -2.943   0.629  25.369  0.00  0.00    +0.013 A 
ATOM     26  C   UNL     1      -5.343  -0.529  24.517  0.00  0.00    +0.050 A 
ATOM     27  C   UNL     1      -4.152   1.299  25.555  0.00  0.00    +0.046 A 
ATOM     28  C   UNL     1      -5.349   0.724  25.129  0.00  0.00    +0.120 A 
BRANCH  28   6
ATOM      6  O   UNL     1      -6.524   1.388  25.306  0.00  0.00    -0.495 OA
ATOM     29  C   UNL     1      -6.765   1.946  26.597  0.00  0.00    +0.277 C 
ENDBRANCH  28   6
ENDBRANCH  14  16
ENDBRANCH   9  14
BRANCH  10  15
ATOM     15  C   UNL     1       2.108  -0.755  22.763  0.00  0.00    +0.124 C 
BRANCH  15  18
ATOM      5  O   UNL     1       4.218   0.440  22.514  0.00  0.00    -0.251 OA
ATOM     18  C   UNL     1       3.564  -0.467  23.006  0.00  0.00    +0.305 C 
BRANCH  18   4
ATOM      4  O   UNL     1       4.072  -1.378  23.875  0.00  0.00    -0.481 OA
ATOM     30  H   UNL     1       5.007  -1.188  24.101  0.00  0.00    +0.295 HD
ENDBRANCH  18   4
ENDBRANCH  15  18
ENDBRANCH  10  15
TORSDOF 9
ENDMDL
