MODEL 1
REMARK VINA RESULT:      -3.6      0.000      0.000
REMARK  Name = 75536338
REMARK  12 active torsions:
REMARK  status: ('A' for Active; 'I' for Inactive)
REMARK    1  A    between atoms: O_2  and  C_9
REMARK    2  A    between atoms: O_4  and  C_20
REMARK    3  A    between atoms: O_4  and  C_26
REMARK    4  A    between atoms: O_5  and  C_25
REMARK    5  A    between atoms: O_5  and  C_29
REMARK    6  A    between atoms: N_6  and  C_13
REMARK    7  A    between atoms: N_6  and  C_16
REMARK    8  A    between atoms: C_8  and  C_13
REMARK    9  A    between atoms: C_10  and  C_14
REMARK   10  A    between atoms: C_14  and  C_15
REMARK   11  A    between atoms: C_16  and  C_18
REMARK   12  A    between atoms: C_19  and  C_20
REMARK                            x       y       z     vdW  Elec       q    Type
REMARK                         _______ _______ _______ _____ _____    ______ ____
ROOT
ATOM      1  O   UNL     1      -3.064   0.485  24.831  0.00  0.00    -0.369 OA
ATOM      8  C   UNL     1      -4.404   0.202  24.407  0.00  0.00    +0.161 C 
ATOM      9  C   UNL     1      -4.569  -1.275  24.028  0.00  0.00    +0.145 C 
ATOM     10  C   UNL     1      -2.582  -0.325  25.906  0.00  0.00    +0.125 C 
ATOM     11  C   UNL     1      -4.026  -2.215  25.101  0.00  0.00    +0.036 C 
ATOM     12  C   UNL     1      -2.619  -1.805  25.524  0.00  0.00    +0.034 C 
ENDROOT
BRANCH   9   2
ATOM      2  O   UNL     1      -3.844  -1.525  22.821  0.00  0.00    -0.389 OA
ATOM     34  H   UNL     1      -3.405  -2.387  22.915  0.00  0.00    +0.210 HD
ENDBRANCH   9   2
BRANCH   8  13
ATOM     13  C   UNL     1      -5.420   0.668  25.448  0.00  0.00    +0.115 C 
BRANCH  13   6
ATOM      6  N   UNL     1      -6.194   1.794  24.951  0.00  0.00    -0.309 NA
ATOM     33  H   UNL     1      -5.960   1.956  23.971  0.00  0.00    +0.122 HD
BRANCH   6  16
ATOM     16  C   UNL     1      -5.927   2.997  25.728  0.00  0.00    +0.116 C 
BRANCH  16  18
ATOM     18  C   UNL     1      -4.524   3.500  25.520  0.00  0.00    -0.033 A 
ATOM     21  C   UNL     1      -4.036   3.689  24.226  0.00  0.00    +0.008 A 
ATOM     22  C   UNL     1      -3.711   3.777  26.619  0.00  0.00    +0.008 A 
ATOM     23  C   UNL     1      -2.735   4.154  24.032  0.00  0.00    +0.046 A 
ATOM     24  C   UNL     1      -2.411   4.243  26.425  0.00  0.00    +0.046 A 
ATOM     25  C   UNL     1      -1.923   4.431  25.132  0.00  0.00    +0.120 A 
BRANCH  25   5
ATOM      5  O   UNL     1      -0.654   4.885  24.943  0.00  0.00    -0.495 OA
ATOM     29  C   UNL     1      -0.129   4.813  23.619  0.00  0.00    +0.277 C 
ENDBRANCH  25   5
ENDBRANCH  16  18
ENDBRANCH   6  16
ENDBRANCH  13   6
ENDBRANCH   8  13
BRANCH  10  14
ATOM     14  C   UNL     1      -1.157   0.120  26.212  0.00  0.00    +0.090 C 
BRANCH  14  15
ATOM      3  O   UNL     1       0.807   1.311  23.435  0.00  0.00    -0.356 OA
ATOM      7  N   UNL     1       0.112   1.505  24.622  0.00  0.00    -0.083 NA
ATOM     15  C   UNL     1      -0.346   0.295  24.956  0.00  0.00    +0.086 A 
ATOM     17  C   UNL     1       0.025  -0.692  24.026  0.00  0.00    +0.074 A 
ATOM     19  C   UNL     1       0.748   0.001  23.090  0.00  0.00    +0.175 A 
BRANCH  19  20
ATOM     20  C   UNL     1       1.435  -0.383  21.851  0.00  0.00    +0.306 C 
BRANCH  20   4
ATOM      4  O   UNL     1       2.658   0.345  21.716  0.00  0.00    -0.484 OA
BRANCH   4  26
ATOM     26  C   UNL     1       3.656   0.028  22.595  0.00  0.00    +0.121 A 
ATOM     27  C   UNL     1       4.622   0.978  22.926  0.00  0.00    +0.045 A 
ATOM     28  C   UNL     1       3.709  -1.246  23.160  0.00  0.00    +0.045 A 
ATOM     30  C   UNL     1       5.640   0.656  23.823  0.00  0.00    +0.004 A 
ATOM     31  C   UNL     1       4.727  -1.569  24.057  0.00  0.00    +0.004 A 
ATOM     32  C   UNL     1       5.694  -0.618  24.387  0.00  0.00    +0.000 A 
ENDBRANCH   4  26
ENDBRANCH  20   4
ENDBRANCH  19  20
ENDBRANCH  14  15
ENDBRANCH  10  14
TORSDOF 11
ENDMDL
MODEL 2
REMARK VINA RESULT:      -2.8      1.775      7.062
REMARK  Name = 75536338
REMARK  12 active torsions:
REMARK  status: ('A' for Active; 'I' for Inactive)
REMARK    1  A    between atoms: O_2  and  C_9
REMARK    2  A    between atoms: O_4  and  C_20
REMARK    3  A    between atoms: O_4  and  C_26
REMARK    4  A    between atoms: O_5  and  C_25
REMARK    5  A    between atoms: O_5  and  C_29
REMARK    6  A    between atoms: N_6  and  C_13
REMARK    7  A    between atoms: N_6  and  C_16
REMARK    8  A    between atoms: C_8  and  C_13
REMARK    9  A    between atoms: C_10  and  C_14
REMARK   10  A    between atoms: C_14  and  C_15
REMARK   11  A    between atoms: C_16  and  C_18
REMARK   12  A    between atoms: C_19  and  C_20
REMARK                            x       y       z     vdW  Elec       q    Type
REMARK                         _______ _______ _______ _____ _____    ______ ____
ROOT
ATOM      1  O   UNL     1      -2.647   0.236  24.768  0.00  0.00    -0.369 OA
ATOM      8  C   UNL     1      -1.224   0.082  24.690  0.00  0.00    +0.161 C 
ATOM      9  C   UNL     1      -0.779  -1.276  25.246  0.00  0.00    +0.145 C 
ATOM     10  C   UNL     1      -3.407  -0.796  24.133  0.00  0.00    +0.125 C 
ATOM     11  C   UNL     1      -1.581  -2.436  24.662  0.00  0.00    +0.036 C 
ATOM     12  C   UNL     1      -3.078  -2.159  24.742  0.00  0.00    +0.034 C 
ENDROOT
BRANCH   9   2
ATOM      2  O   UNL     1      -0.975  -1.280  26.663  0.00  0.00    -0.389 OA
ATOM     34  H   UNL     1      -0.642  -0.434  27.008  0.00  0.00    +0.210 HD
ENDBRANCH   9   2
BRANCH   8  13
ATOM     13  C   UNL     1      -0.720   0.339  23.271  0.00  0.00    +0.115 C 
BRANCH  13   6
ATOM      6  N   UNL     1       0.681   0.727  23.280  0.00  0.00    -0.309 NA
ATOM     33  H   UNL     1       0.768   1.683  22.934  0.00  0.00    +0.122 HD
BRANCH   6  16
ATOM     16  C   UNL     1       1.479  -0.172  22.457  0.00  0.00    +0.116 C 
BRANCH  16  18
ATOM     18  C   UNL     1       2.921  -0.198  22.890  0.00  0.00    -0.033 A 
ATOM     21  C   UNL     1       3.444  -1.337  23.504  0.00  0.00    +0.008 A 
ATOM     22  C   UNL     1       3.734   0.915  22.678  0.00  0.00    +0.008 A 
ATOM     23  C   UNL     1       4.779  -1.362  23.906  0.00  0.00    +0.046 A 
ATOM     24  C   UNL     1       5.069   0.889  23.079  0.00  0.00    +0.046 A 
ATOM     25  C   UNL     1       5.592  -0.248  23.693  0.00  0.00    +0.120 A 
BRANCH  25   5
ATOM      5  O   UNL     1       6.895  -0.272  24.086  0.00  0.00    -0.495 OA
ATOM     29  C   UNL     1       7.880  -0.389  23.060  0.00  0.00    +0.277 C 
ENDBRANCH  25   5
ENDBRANCH  16  18
ENDBRANCH   6  16
ENDBRANCH  13   6
ENDBRANCH   8  13
BRANCH  10  14
ATOM     14  C   UNL     1      -4.881  -0.460  24.319  0.00  0.00    +0.090 C 
BRANCH  14  15
ATOM      3  O   UNL     1      -5.806   2.461  26.217  0.00  0.00    -0.356 OA
ATOM      7  N   UNL     1      -5.854   1.097  25.957  0.00  0.00    -0.083 NA
ATOM     15  C   UNL     1      -5.071   0.920  24.890  0.00  0.00    +0.086 A 
ATOM     17  C   UNL     1      -4.507   2.125  24.436  0.00  0.00    +0.074 A 
ATOM     19  C   UNL     1      -5.001   3.063  25.304  0.00  0.00    +0.175 A 
BRANCH  19  20
ATOM     20  C   UNL     1      -4.836   4.516  25.432  0.00  0.00    +0.306 C 
BRANCH  20   4
ATOM      4  O   UNL     1      -3.765   4.816  26.330  0.00  0.00    -0.484 OA
BRANCH   4  26
ATOM     26  C   UNL     1      -2.509   4.471  25.917  0.00  0.00    +0.121 A 
ATOM     27  C   UNL     1      -1.827   5.278  25.006  0.00  0.00    +0.045 A 
ATOM     28  C   UNL     1      -1.908   3.311  26.406  0.00  0.00    +0.045 A 
ATOM     30  C   UNL     1      -0.545   4.926  24.584  0.00  0.00    +0.004 A 
ATOM     31  C   UNL     1      -0.626   2.959  25.985  0.00  0.00    +0.004 A 
ATOM     32  C   UNL     1       0.055   3.766  25.073  0.00  0.00    +0.000 A 
ENDBRANCH   4  26
ENDBRANCH  20   4
ENDBRANCH  19  20
ENDBRANCH  14  15
ENDBRANCH  10  14
TORSDOF 11
ENDMDL
MODEL 3
REMARK VINA RESULT:      -2.8      1.326      4.040
REMARK  Name = 75536338
REMARK  12 active torsions:
REMARK  status: ('A' for Active; 'I' for Inactive)
REMARK    1  A    between atoms: O_2  and  C_9
REMARK    2  A    between atoms: O_4  and  C_20
REMARK    3  A    between atoms: O_4  and  C_26
REMARK    4  A    between atoms: O_5  and  C_25
REMARK    5  A    between atoms: O_5  and  C_29
REMARK    6  A    between atoms: N_6  and  C_13
REMARK    7  A    between atoms: N_6  and  C_16
REMARK    8  A    between atoms: C_8  and  C_13
REMARK    9  A    between atoms: C_10  and  C_14
REMARK   10  A    between atoms: C_14  and  C_15
REMARK   11  A    between atoms: C_16  and  C_18
REMARK   12  A    between atoms: C_19  and  C_20
REMARK                            x       y       z     vdW  Elec       q    Type
REMARK                         _______ _______ _______ _____ _____    ______ ____
ROOT
ATOM      1  O   UNL     1      -1.721   3.462  26.613  0.00  0.00    -0.369 OA
ATOM      8  C   UNL     1      -2.681   4.492  26.348  0.00  0.00    +0.161 C 
ATOM      9  C   UNL     1      -2.434   5.147  24.984  0.00  0.00    +0.145 C 
ATOM     10  C   UNL     1      -1.636   2.439  25.618  0.00  0.00    +0.125 C 
ATOM     11  C   UNL     1      -2.273   4.120  23.866  0.00  0.00    +0.036 C 
ATOM     12  C   UNL     1      -1.273   3.038  24.260  0.00  0.00    +0.034 C 
ENDROOT
BRANCH   9   2
ATOM      2  O   UNL     1      -1.227   5.912  25.051  0.00  0.00    -0.389 OA
ATOM     34  H   UNL     1      -0.929   6.071  24.140  0.00  0.00    +0.210 HD
ENDBRANCH   9   2
BRANCH   8  13
ATOM     13  C   UNL     1      -4.107   3.970  26.510  0.00  0.00    +0.115 C 
BRANCH  13   6
ATOM      6  N   UNL     1      -4.798   3.940  25.231  0.00  0.00    -0.309 NA
ATOM     33  H   UNL     1      -5.331   4.802  25.116  0.00  0.00    +0.122 HD
BRANCH   6  16
ATOM     16  C   UNL     1      -5.690   2.791  25.144  0.00  0.00    +0.116 C 
BRANCH  16  18
ATOM     18  C   UNL     1      -4.942   1.521  24.842  0.00  0.00    -0.033 A 
ATOM     21  C   UNL     1      -4.257   1.386  23.633  0.00  0.00    +0.008 A 
ATOM     22  C   UNL     1      -4.932   0.478  25.768  0.00  0.00    +0.008 A 
ATOM     23  C   UNL     1      -3.564   0.209  23.352  0.00  0.00    +0.046 A 
ATOM     24  C   UNL     1      -4.238  -0.699  25.486  0.00  0.00    +0.046 A 
ATOM     25  C   UNL     1      -3.554  -0.833  24.279  0.00  0.00    +0.120 A 
BRANCH  25   5
ATOM      5  O   UNL     1      -2.878  -1.982  24.004  0.00  0.00    -0.495 OA
ATOM     29  C   UNL     1      -3.248  -3.146  24.742  0.00  0.00    +0.277 C 
ENDBRANCH  25   5
ENDBRANCH  16  18
ENDBRANCH   6  16
ENDBRANCH  13   6
ENDBRANCH   8  13
BRANCH  10  14
ATOM     14  C   UNL     1      -0.574   1.444  26.072  0.00  0.00    +0.090 C 
BRANCH  14  15
ATOM      3  O   UNL     1       0.228  -1.234  23.798  0.00  0.00    -0.356 OA
ATOM      7  N   UNL     1      -0.318  -0.745  24.978  0.00  0.00    -0.083 NA
ATOM     15  C   UNL     1      -0.105   0.573  24.937  0.00  0.00    +0.086 A 
ATOM     17  C   UNL     1       0.564   0.971  23.767  0.00  0.00    +0.074 A 
ATOM     19  C   UNL     1       0.750  -0.204  23.085  0.00  0.00    +0.175 A 
BRANCH  19  20
ATOM     20  C   UNL     1       1.372  -0.544  21.800  0.00  0.00    +0.306 C 
BRANCH  20   4
ATOM      4  O   UNL     1       2.580   0.200  21.621  0.00  0.00    -0.484 OA
BRANCH   4  26
ATOM     26  C   UNL     1       3.581  -0.038  22.520  0.00  0.00    +0.121 A 
ATOM     27  C   UNL     1       3.708  -1.299  23.105  0.00  0.00    +0.045 A 
ATOM     28  C   UNL     1       4.476   0.978  22.854  0.00  0.00    +0.045 A 
ATOM     30  C   UNL     1       4.730  -1.542  24.022  0.00  0.00    +0.004 A 
ATOM     31  C   UNL     1       5.498   0.735  23.772  0.00  0.00    +0.004 A 
ATOM     32  C   UNL     1       5.624  -0.526  24.357  0.00  0.00    +0.000 A 
ENDBRANCH   4  26
ENDBRANCH  20   4
ENDBRANCH  19  20
ENDBRANCH  14  15
ENDBRANCH  10  14
TORSDOF 11
ENDMDL
MODEL 4
REMARK VINA RESULT:      -2.2      1.726      4.368
REMARK  Name = 75536338
REMARK  12 active torsions:
REMARK  status: ('A' for Active; 'I' for Inactive)
REMARK    1  A    between atoms: O_2  and  C_9
REMARK    2  A    between atoms: O_4  and  C_20
REMARK    3  A    between atoms: O_4  and  C_26
REMARK    4  A    between atoms: O_5  and  C_25
REMARK    5  A    between atoms: O_5  and  C_29
REMARK    6  A    between atoms: N_6  and  C_13
REMARK    7  A    between atoms: N_6  and  C_16
REMARK    8  A    between atoms: C_8  and  C_13
REMARK    9  A    between atoms: C_10  and  C_14
REMARK   10  A    between atoms: C_14  and  C_15
REMARK   11  A    between atoms: C_16  and  C_18
REMARK   12  A    between atoms: C_19  and  C_20
REMARK                            x       y       z     vdW  Elec       q    Type
REMARK                         _______ _______ _______ _____ _____    ______ ____
ROOT
ATOM      1  O   UNL     1      -3.897   3.424  26.498  0.00  0.00    -0.369 OA
ATOM      8  C   UNL     1      -5.296   3.158  26.336  0.00  0.00    +0.161 C 
ATOM      9  C   UNL     1      -5.922   4.081  25.283  0.00  0.00    +0.145 C 
ATOM     10  C   UNL     1      -3.121   3.351  25.300  0.00  0.00    +0.125 C 
ATOM     11  C   UNL     1      -5.121   4.107  23.984  0.00  0.00    +0.036 C 
ATOM     12  C   UNL     1      -3.640   4.344  24.260  0.00  0.00    +0.034 C 
ENDROOT
BRANCH   9   2
ATOM      2  O   UNL     1      -5.958   5.414  25.801  0.00  0.00    -0.389 OA
ATOM     34  H   UNL     1      -6.003   6.022  25.044  0.00  0.00    +0.210 HD
ENDBRANCH   9   2
BRANCH   8  13
ATOM     13  C   UNL     1      -5.545   1.678  26.056  0.00  0.00    +0.115 C 
BRANCH  13   6
ATOM      6  N   UNL     1      -5.517   1.407  24.627  0.00  0.00    -0.309 NA
ATOM     33  H   UNL     1      -6.252   1.947  24.169  0.00  0.00    +0.122 HD
BRANCH   6  16
ATOM     16  C   UNL     1      -5.705  -0.012  24.359  0.00  0.00    +0.116 C 
BRANCH  16  18
ATOM     18  C   UNL     1      -4.433  -0.793  24.553  0.00  0.00    -0.033 A 
ATOM     21  C   UNL     1      -3.439  -0.306  25.403  0.00  0.00    +0.008 A 
ATOM     22  C   UNL     1      -4.246  -2.003  23.884  0.00  0.00    +0.008 A 
ATOM     23  C   UNL     1      -2.260  -1.029  25.583  0.00  0.00    +0.046 A 
ATOM     24  C   UNL     1      -3.067  -2.725  24.065  0.00  0.00    +0.046 A 
ATOM     25  C   UNL     1      -2.074  -2.239  24.914  0.00  0.00    +0.120 A 
BRANCH  25   5
ATOM      5  O   UNL     1      -0.923  -2.944  25.089  0.00  0.00    -0.495 OA
ATOM     29  C   UNL     1       0.213  -2.224  25.563  0.00  0.00    +0.277 C 
ENDBRANCH  25   5
ENDBRANCH  16  18
ENDBRANCH   6  16
ENDBRANCH  13   6
ENDBRANCH   8  13
BRANCH  10  14
ATOM     14  C   UNL     1      -1.675   3.660  25.670  0.00  0.00    +0.090 C 
BRANCH  14  15
ATOM      3  O   UNL     1       1.111   1.534  24.830  0.00  0.00    -0.356 OA
ATOM      7  N   UNL     1       0.514   2.540  25.579  0.00  0.00    -0.083 NA
ATOM     15  C   UNL     1      -0.723   2.650  25.087  0.00  0.00    +0.086 A 
ATOM     17  C   UNL     1      -0.962   1.747  24.036  0.00  0.00    +0.074 A 
ATOM     19  C   UNL     1       0.223   1.070  23.914  0.00  0.00    +0.175 A 
BRANCH  19  20
ATOM     20  C   UNL     1       0.693  -0.005  23.031  0.00  0.00    +0.306 C 
BRANCH  20   4
ATOM      4  O   UNL     1       1.851   0.417  22.308  0.00  0.00    -0.484 OA
BRANCH   4  26
ATOM     26  C   UNL     1       3.062   0.086  22.850  0.00  0.00    +0.121 A 
ATOM     27  C   UNL     1       3.262  -1.187  23.383  0.00  0.00    +0.045 A 
ATOM     28  C   UNL     1       4.097   1.022  22.871  0.00  0.00    +0.045 A 
ATOM     30  C   UNL     1       4.497  -1.526  23.936  0.00  0.00    +0.004 A 
ATOM     31  C   UNL     1       5.331   0.683  23.424  0.00  0.00    +0.004 A 
ATOM     32  C   UNL     1       5.531  -0.591  23.957  0.00  0.00    +0.000 A 
ENDBRANCH   4  26
ENDBRANCH  20   4
ENDBRANCH  19  20
ENDBRANCH  14  15
ENDBRANCH  10  14
TORSDOF 11
ENDMDL
MODEL 5
REMARK VINA RESULT:      -2.0      1.384      4.317
REMARK  Name = 75536338
REMARK  12 active torsions:
REMARK  status: ('A' for Active; 'I' for Inactive)
REMARK    1  A    between atoms: O_2  and  C_9
REMARK    2  A    between atoms: O_4  and  C_20
REMARK    3  A    between atoms: O_4  and  C_26
REMARK    4  A    between atoms: O_5  and  C_25
REMARK    5  A    between atoms: O_5  and  C_29
REMARK    6  A    between atoms: N_6  and  C_13
REMARK    7  A    between atoms: N_6  and  C_16
REMARK    8  A    between atoms: C_8  and  C_13
REMARK    9  A    between atoms: C_10  and  C_14
REMARK   10  A    between atoms: C_14  and  C_15
REMARK   11  A    between atoms: C_16  and  C_18
REMARK   12  A    between atoms: C_19  and  C_20
REMARK                            x       y       z     vdW  Elec       q    Type
REMARK                         _______ _______ _______ _____ _____    ______ ____
ROOT
ATOM      1  O   UNL     1      -2.487   2.802  25.872  0.00  0.00    -0.369 OA
ATOM      8  C   UNL     1      -3.739   3.466  25.655  0.00  0.00    +0.161 C 
ATOM      9  C   UNL     1      -3.620   4.975  25.898  0.00  0.00    +0.145 C 
ATOM     10  C   UNL     1      -1.390   3.307  25.107  0.00  0.00    +0.125 C 
ATOM     11  C   UNL     1      -2.434   5.591  25.161  0.00  0.00    +0.036 C 
ATOM     12  C   UNL     1      -1.161   4.788  25.409  0.00  0.00    +0.034 C 
ENDROOT
BRANCH   9   2
ATOM      2  O   UNL     1      -3.431   5.203  27.297  0.00  0.00    -0.389 OA
ATOM     34  H   UNL     1      -4.260   4.968  27.748  0.00  0.00    +0.210 HD
ENDBRANCH   9   2
BRANCH   8  13
ATOM     13  C   UNL     1      -4.311   3.126  24.280  0.00  0.00    +0.115 C 
BRANCH  13   6
ATOM      6  N   UNL     1      -5.559   2.389  24.404  0.00  0.00    -0.309 NA
ATOM     33  H   UNL     1      -6.328   3.048  24.524  0.00  0.00    +0.122 HD
BRANCH   6  16
ATOM     16  C   UNL     1      -5.514   1.469  25.534  0.00  0.00    +0.116 C 
BRANCH  16  18
ATOM     18  C   UNL     1      -4.697   0.243  25.227  0.00  0.00    -0.033 A 
ATOM     21  C   UNL     1      -3.874  -0.310  26.210  0.00  0.00    +0.008 A 
ATOM     22  C   UNL     1      -4.760  -0.341  23.962  0.00  0.00    +0.008 A 
ATOM     23  C   UNL     1      -3.116  -1.445  25.927  0.00  0.00    +0.046 A 
ATOM     24  C   UNL     1      -4.002  -1.477  23.680  0.00  0.00    +0.046 A 
ATOM     25  C   UNL     1      -3.180  -2.029  24.661  0.00  0.00    +0.120 A 
BRANCH  25   5
ATOM      5  O   UNL     1      -2.440  -3.137  24.385  0.00  0.00    -0.495 OA
ATOM     29  C   UNL     1      -1.070  -3.119  24.783  0.00  0.00    +0.277 C 
ENDBRANCH  25   5
ENDBRANCH  16  18
ENDBRANCH   6  16
ENDBRANCH  13   6
ENDBRANCH   8  13
BRANCH  10  14
ATOM     14  C   UNL     1      -0.160   2.484  25.470  0.00  0.00    +0.090 C 
BRANCH  14  15
ATOM      3  O   UNL     1      -0.220  -0.462  23.395  0.00  0.00    -0.356 OA
ATOM      7  N   UNL     1      -0.731   0.338  24.409  0.00  0.00    -0.083 NA
ATOM     15  C   UNL     1       0.092   1.389  24.467  0.00  0.00    +0.086 A 
ATOM     17  C   UNL     1       1.130   1.308  23.523  0.00  0.00    +0.074 A 
ATOM     19  C   UNL     1       0.888   0.124  22.876  0.00  0.00    +0.175 A 
BRANCH  19  20
ATOM     20  C   UNL     1       1.561  -0.592  21.785  0.00  0.00    +0.306 C 
BRANCH  20   4
ATOM      4  O   UNL     1       2.835  -0.003  21.516  0.00  0.00    -0.484 OA
BRANCH   4  26
ATOM     26  C   UNL     1       3.779  -0.117  22.499  0.00  0.00    +0.121 A 
ATOM     27  C   UNL     1       4.579   0.977  22.828  0.00  0.00    +0.045 A 
ATOM     28  C   UNL     1       3.943  -1.328  23.171  0.00  0.00    +0.045 A 
ATOM     30  C   UNL     1       5.542   0.861  23.830  0.00  0.00    +0.004 A 
ATOM     31  C   UNL     1       4.906  -1.444  24.173  0.00  0.00    +0.004 A 
ATOM     32  C   UNL     1       5.706  -0.350  24.502  0.00  0.00    +0.000 A 
ENDBRANCH   4  26
ENDBRANCH  20   4
ENDBRANCH  19  20
ENDBRANCH  14  15
ENDBRANCH  10  14
TORSDOF 11
ENDMDL
MODEL 6
REMARK VINA RESULT:      -1.0      1.888      2.897
REMARK  Name = 75536338
REMARK  12 active torsions:
REMARK  status: ('A' for Active; 'I' for Inactive)
REMARK    1  A    between atoms: O_2  and  C_9
REMARK    2  A    between atoms: O_4  and  C_20
REMARK    3  A    between atoms: O_4  and  C_26
REMARK    4  A    between atoms: O_5  and  C_25
REMARK    5  A    between atoms: O_5  and  C_29
REMARK    6  A    between atoms: N_6  and  C_13
REMARK    7  A    between atoms: N_6  and  C_16
REMARK    8  A    between atoms: C_8  and  C_13
REMARK    9  A    between atoms: C_10  and  C_14
REMARK   10  A    between atoms: C_14  and  C_15
REMARK   11  A    between atoms: C_16  and  C_18
REMARK   12  A    between atoms: C_19  and  C_20
REMARK                            x       y       z     vdW  Elec       q    Type
REMARK                         _______ _______ _______ _____ _____    ______ ____
ROOT
ATOM      1  O   UNL     1      -4.483   0.789  24.015  0.00  0.00    -0.369 OA
ATOM      8  C   UNL     1      -5.161   2.022  23.741  0.00  0.00    +0.161 C 
ATOM      9  C   UNL     1      -6.270   2.288  24.766  0.00  0.00    +0.145 C 
ATOM     10  C   UNL     1      -3.934   0.674  25.330  0.00  0.00    +0.125 C 
ATOM     11  C   UNL     1      -5.783   2.131  26.204  0.00  0.00    +0.036 C 
ATOM     12  C   UNL     1      -5.031   0.816  26.385  0.00  0.00    +0.034 C 
ENDROOT
BRANCH   9   2
ATOM      2  O   UNL     1      -7.326   1.346  24.557  0.00  0.00    -0.389 OA
ATOM     34  H   UNL     1      -8.166   1.804  24.732  0.00  0.00    +0.210 HD
ENDBRANCH   9   2
BRANCH   8  13
ATOM     13  C   UNL     1      -4.170   3.178  23.620  0.00  0.00    +0.115 C 
BRANCH  13   6
ATOM      6  N   UNL     1      -4.634   4.340  24.362  0.00  0.00    -0.309 NA
ATOM     33  H   UNL     1      -5.319   4.845  23.801  0.00  0.00    +0.122 HD
BRANCH   6  16
ATOM     16  C   UNL     1      -3.525   5.222  24.702  0.00  0.00    +0.116 C 
BRANCH  16  18
ATOM     18  C   UNL     1      -2.336   4.455  25.215  0.00  0.00    -0.033 A 
ATOM     21  C   UNL     1      -2.461   3.649  26.348  0.00  0.00    +0.008 A 
ATOM     22  C   UNL     1      -1.108   4.550  24.560  0.00  0.00    +0.008 A 
ATOM     23  C   UNL     1      -1.360   2.940  26.825  0.00  0.00    +0.046 A 
ATOM     24  C   UNL     1      -0.006   3.839  25.037  0.00  0.00    +0.046 A 
ATOM     25  C   UNL     1      -0.132   3.035  26.168  0.00  0.00    +0.120 A 
BRANCH  25   5
ATOM      5  O   UNL     1       0.944   2.342  26.634  0.00  0.00    -0.495 OA
ATOM     29  C   UNL     1       1.280   2.513  28.009  0.00  0.00    +0.277 C 
ENDBRANCH  25   5
ENDBRANCH  16  18
ENDBRANCH   6  16
ENDBRANCH  13   6
ENDBRANCH   8  13
BRANCH  10  14
ATOM     14  C   UNL     1      -3.261  -0.689  25.428  0.00  0.00    +0.090 C 
BRANCH  14  15
ATOM      3  O   UNL     1       0.083  -1.397  24.285  0.00  0.00    -0.356 OA
ATOM      7  N   UNL     1      -1.081  -1.734  24.964  0.00  0.00    -0.083 NA
ATOM     15  C   UNL     1      -1.886  -0.677  24.815  0.00  0.00    +0.086 A 
ATOM     17  C   UNL     1      -1.289   0.347  24.059  0.00  0.00    +0.074 A 
ATOM     19  C   UNL     1      -0.052  -0.156  23.752  0.00  0.00    +0.175 A 
BRANCH  19  20
ATOM     20  C   UNL     1       1.095   0.361  22.995  0.00  0.00    +0.306 C 
BRANCH  20   4
ATOM      4  O   UNL     1       2.018  -0.694  22.710  0.00  0.00    -0.484 OA
BRANCH   4  26
ATOM     26  C   UNL     1       3.307  -0.503  23.122  0.00  0.00    +0.121 A 
ATOM     27  C   UNL     1       4.003  -1.542  23.740  0.00  0.00    +0.045 A 
ATOM     28  C   UNL     1       3.927   0.731  22.926  0.00  0.00    +0.045 A 
ATOM     30  C   UNL     1       5.319  -1.348  24.160  0.00  0.00    +0.004 A 
ATOM     31  C   UNL     1       5.243   0.925  23.347  0.00  0.00    +0.004 A 
ATOM     32  C   UNL     1       5.938  -0.115  23.965  0.00  0.00    +0.000 A 
ENDBRANCH   4  26
ENDBRANCH  20   4
ENDBRANCH  19  20
ENDBRANCH  14  15
ENDBRANCH  10  14
TORSDOF 11
ENDMDL
