MODEL 1
REMARK VINA RESULT:      -0.8      0.000      0.000
REMARK  Name = 40777115
REMARK  6 active torsions:
REMARK  status: ('A' for Active; 'I' for Inactive)
REMARK    1  A    between atoms: N_4  and  C_14
REMARK    2  A    between atoms: C_8  and  C_14
REMARK    3  A    between atoms: C_9  and  C_15
REMARK    4  A    between atoms: C_16  and  C_19
REMARK    5  A    between atoms: C_21  and  C_23
REMARK    6  A    between atoms: C_22  and  C_24
REMARK                            x       y       z     vdW  Elec       q    Type
REMARK                         _______ _______ _______ _____ _____    ______ ____
ROOT
ATOM      3  N   UNL     1       0.317   3.482  25.404  0.00  0.00    -0.297 NA
ATOM      7  C   UNL     1      -1.812   4.167  24.069  0.00  0.00    +0.002 C 
ATOM      8  C   UNL     1       0.438   3.035  23.991  0.00  0.00    +0.074 C 
ATOM      9  C   UNL     1      -2.205   3.445  25.388  0.00  0.00    +0.055 C 
ATOM     10  C   UNL     1      -0.893   3.246  23.239  0.00  0.00    +0.024 C 
ATOM     11  C   UNL     1      -0.974   5.400  24.469  0.00  0.00    +0.019 C 
ATOM     12  C   UNL     1      -0.897   2.893  26.023  0.00  0.00    +0.094 C 
ATOM     13  C   UNL     1       0.167   4.957  25.402  0.00  0.00    +0.085 C 
ENDROOT
BRANCH   9  15
ATOM      5  N   UNL     1      -4.551   2.804  25.656  0.00  0.00    -0.237 NA
ATOM      6  N   UNL     1      -5.321   0.557  25.253  0.00  0.00    -0.232 NA
ATOM     15  C   UNL     1      -3.306   2.396  25.332  0.00  0.00    +0.050 A 
ATOM     20  C   UNL     1      -2.995   1.103  24.965  0.00  0.00    +0.052 A 
ATOM     21  C   UNL     1      -4.053   0.217  24.942  0.00  0.00    +0.076 A 
ATOM     22  C   UNL     1      -5.497   1.847  25.595  0.00  0.00    +0.127 A 
ATOM     24  C   UNL     1      -6.886   2.261  25.948  0.00  0.00    +0.088 C 
BRANCH  21  23
ATOM      1 BR   UNL     1      -1.297  -1.076  25.922  0.00  0.00    -0.050 Br
ATOM     23  C   UNL     1      -3.860  -1.166  24.576  0.00  0.00    +0.014 A 
ATOM     25  C   UNL     1      -2.710  -1.871  24.930  0.00  0.00    +0.027 A 
ATOM     26  C   UNL     1      -4.868  -1.796  23.847  0.00  0.00    +0.011 A 
ATOM     27  C   UNL     1      -2.568  -3.207  24.554  0.00  0.00    +0.016 A 
ATOM     28  C   UNL     1      -4.725  -3.132  23.470  0.00  0.00    +0.001 A 
ATOM     29  C   UNL     1      -3.576  -3.838  23.825  0.00  0.00    +0.001 A 
ENDBRANCH  21  23
ENDBRANCH   9  15
BRANCH   8  14
ATOM     14  C   UNL     1       0.935   1.592  23.878  0.00  0.00    +0.123 C 
BRANCH  14   4
ATOM      2  O   UNL     1       2.414  -0.278  22.213  0.00  0.00    -0.276 OA
ATOM      4  N   UNL     1       2.347   1.557  23.650  0.00  0.00    -0.314 N 
ATOM     19  C   UNL     1       2.971   0.620  22.833  0.00  0.00    +0.216 C 
ATOM     30  H   UNL     1       2.918   2.260  24.109  0.00  0.00    +0.149 HD
BRANCH  19  16
ATOM     16  C   UNL     1       4.453   0.771  22.737  0.00  0.00    +0.075 C 
ATOM     17  C   UNL     1       5.272   0.748  23.994  0.00  0.00    +0.013 C 
ATOM     18  C   UNL     1       5.328  -0.410  23.041  0.00  0.00    +0.013 C 
ENDBRANCH  19  16
ENDBRANCH  14   4
ENDBRANCH   8  14
TORSDOF 5
ENDMDL
MODEL 2
REMARK VINA RESULT:      -0.6      1.582      5.243
REMARK  Name = 40777115
REMARK  6 active torsions:
REMARK  status: ('A' for Active; 'I' for Inactive)
REMARK    1  A    between atoms: N_4  and  C_14
REMARK    2  A    between atoms: C_8  and  C_14
REMARK    3  A    between atoms: C_9  and  C_15
REMARK    4  A    between atoms: C_16  and  C_19
REMARK    5  A    between atoms: C_21  and  C_23
REMARK    6  A    between atoms: C_22  and  C_24
REMARK                            x       y       z     vdW  Elec       q    Type
REMARK                         _______ _______ _______ _____ _____    ______ ____
ROOT
ATOM      3  N   UNL     1      -2.710  -2.340  23.647  0.00  0.00    -0.297 NA
ATOM      7  C   UNL     1      -2.836  -1.408  26.076  0.00  0.00    +0.002 C 
ATOM      8  C   UNL     1      -1.364  -1.886  24.087  0.00  0.00    +0.074 C 
ATOM      9  C   UNL     1      -3.942  -0.770  25.190  0.00  0.00    +0.055 C 
ATOM     10  C   UNL     1      -1.456  -1.144  25.437  0.00  0.00    +0.024 C 
ATOM     11  C   UNL     1      -3.065  -2.934  26.043  0.00  0.00    +0.019 C 
ATOM     12  C   UNL     1      -3.677  -1.217  23.723  0.00  0.00    +0.094 C 
ATOM     13  C   UNL     1      -3.158  -3.402  24.579  0.00  0.00    +0.085 C 
ENDROOT
BRANCH   9  15
ATOM      5  N   UNL     1      -5.431   1.128  25.597  0.00  0.00    -0.237 NA
ATOM      6  N   UNL     1      -4.656   3.408  25.514  0.00  0.00    -0.232 NA
ATOM     15  C   UNL     1      -4.176   0.730  25.303  0.00  0.00    +0.050 A 
ATOM     20  C   UNL     1      -3.123   1.599  25.101  0.00  0.00    +0.052 A 
ATOM     21  C   UNL     1      -3.425   2.941  25.221  0.00  0.00    +0.076 A 
ATOM     22  C   UNL     1      -5.598   2.461  25.687  0.00  0.00    +0.127 A 
ATOM     24  C   UNL     1      -6.973   2.940  26.010  0.00  0.00    +0.088 C 
BRANCH  21  23
ATOM      1 BR   UNL     1      -0.427   1.985  25.795  0.00  0.00    -0.050 Br
ATOM     23  C   UNL     1      -2.412   3.952  25.033  0.00  0.00    +0.014 A 
ATOM     25  C   UNL     1      -1.058   3.691  25.243  0.00  0.00    +0.027 A 
ATOM     26  C   UNL     1      -2.824   5.221  24.628  0.00  0.00    +0.011 A 
ATOM     27  C   UNL     1      -0.115   4.701  25.048  0.00  0.00    +0.016 A 
ATOM     28  C   UNL     1      -1.881   6.231  24.433  0.00  0.00    +0.001 A 
ATOM     29  C   UNL     1      -0.526   5.971  24.643  0.00  0.00    +0.001 A 
ENDBRANCH  21  23
ENDBRANCH   9  15
BRANCH   8  14
ATOM     14  C   UNL     1      -0.656  -1.047  23.022  0.00  0.00    +0.123 C 
BRANCH  14   4
ATOM      2  O   UNL     1       1.674  -0.240  21.480  0.00  0.00    -0.276 OA
ATOM      4  N   UNL     1       0.583  -0.532  23.519  0.00  0.00    -0.314 N 
ATOM     19  C   UNL     1       1.649  -0.170  22.702  0.00  0.00    +0.216 C 
ATOM     30  H   UNL     1       0.679  -0.422  24.524  0.00  0.00    +0.149 HD
BRANCH  19  16
ATOM     16  C   UNL     1       2.843   0.346  23.435  0.00  0.00    +0.075 C 
ATOM     17  C   UNL     1       4.150  -0.379  23.303  0.00  0.00    +0.013 C 
ATOM     18  C   UNL     1       3.967   0.963  22.655  0.00  0.00    +0.013 C 
ENDBRANCH  19  16
ENDBRANCH  14   4
ENDBRANCH   8  14
TORSDOF 5
ENDMDL
MODEL 3
REMARK VINA RESULT:       0.7      2.321      5.710
REMARK  Name = 40777115
REMARK  6 active torsions:
REMARK  status: ('A' for Active; 'I' for Inactive)
REMARK    1  A    between atoms: N_4  and  C_14
REMARK    2  A    between atoms: C_8  and  C_14
REMARK    3  A    between atoms: C_9  and  C_15
REMARK    4  A    between atoms: C_16  and  C_19
REMARK    5  A    between atoms: C_21  and  C_23
REMARK    6  A    between atoms: C_22  and  C_24
REMARK                            x       y       z     vdW  Elec       q    Type
REMARK                         _______ _______ _______ _____ _____    ______ ____
ROOT
ATOM      3  N   UNL     1      -2.154  -2.268  23.600  0.00  0.00    -0.297 NA
ATOM      7  C   UNL     1      -3.406  -1.865  25.849  0.00  0.00    +0.002 C 
ATOM      8  C   UNL     1      -1.173  -2.013  24.690  0.00  0.00    +0.074 C 
ATOM      9  C   UNL     1      -4.007  -0.977  24.723  0.00  0.00    +0.055 C 
ATOM     10  C   UNL     1      -1.896  -1.569  25.979  0.00  0.00    +0.024 C 
ATOM     11  C   UNL     1      -3.542  -3.329  25.381  0.00  0.00    +0.019 C 
ATOM     12  C   UNL     1      -3.088  -1.121  23.477  0.00  0.00    +0.094 C 
ATOM     13  C   UNL     1      -2.941  -3.469  23.970  0.00  0.00    +0.085 C 
ENDROOT
BRANCH   9  15
ATOM      5  N   UNL     1      -5.534   0.735  25.573  0.00  0.00    -0.237 NA
ATOM      6  N   UNL     1      -4.935   3.069  25.640  0.00  0.00    -0.232 NA
ATOM     15  C   UNL     1      -4.319   0.477  25.046  0.00  0.00    +0.050 A 
ATOM     20  C   UNL     1      -3.372   1.448  24.789  0.00  0.00    +0.052 A 
ATOM     21  C   UNL     1      -3.739   2.740  25.110  0.00  0.00    +0.076 A 
ATOM     22  C   UNL     1      -5.772   2.033  25.843  0.00  0.00    +0.127 A 
ATOM     24  C   UNL     1      -7.106   2.358  26.426  0.00  0.00    +0.088 C 
BRANCH  21  23
ATOM      1 BR   UNL     1      -1.889   2.489  22.513  0.00  0.00    -0.050 Br
ATOM     23  C   UNL     1      -2.840   3.847  24.889  0.00  0.00    +0.014 A 
ATOM     25  C   UNL     1      -1.969   3.886  23.799  0.00  0.00    +0.027 A 
ATOM     26  C   UNL     1      -2.860   4.898  25.804  0.00  0.00    +0.011 A 
ATOM     27  C   UNL     1      -1.118   4.978  23.627  0.00  0.00    +0.016 A 
ATOM     28  C   UNL     1      -2.008   5.989  25.632  0.00  0.00    +0.001 A 
ATOM     29  C   UNL     1      -1.138   6.030  24.542  0.00  0.00    +0.001 A 
ENDBRANCH  21  23
ENDBRANCH   9  15
BRANCH   8  14
ATOM     14  C   UNL     1      -0.087  -1.020  24.273  0.00  0.00    +0.123 C 
BRANCH  14   4
ATOM      2  O   UNL     1       1.395   1.447  23.855  0.00  0.00    -0.276 OA
ATOM      4  N   UNL     1      -0.210   0.205  25.002  0.00  0.00    -0.314 N 
ATOM     19  C   UNL     1       0.545   1.341  24.731  0.00  0.00    +0.216 C 
ATOM     30  H   UNL     1      -0.891   0.240  25.754  0.00  0.00    +0.149 HD
BRANCH  19  16
ATOM     16  C   UNL     1       0.250   2.507  25.615  0.00  0.00    +0.075 C 
ATOM     17  C   UNL     1      -0.560   2.292  26.860  0.00  0.00    +0.013 C 
ATOM     18  C   UNL     1       0.909   2.587  26.961  0.00  0.00    +0.013 C 
ENDBRANCH  19  16
ENDBRANCH  14   4
ENDBRANCH   8  14
TORSDOF 5
ENDMDL
MODEL 4
REMARK VINA RESULT:       1.5      2.233      5.899
REMARK  Name = 40777115
REMARK  6 active torsions:
REMARK  status: ('A' for Active; 'I' for Inactive)
REMARK    1  A    between atoms: N_4  and  C_14
REMARK    2  A    between atoms: C_8  and  C_14
REMARK    3  A    between atoms: C_9  and  C_15
REMARK    4  A    between atoms: C_16  and  C_19
REMARK    5  A    between atoms: C_21  and  C_23
REMARK    6  A    between atoms: C_22  and  C_24
REMARK                            x       y       z     vdW  Elec       q    Type
REMARK                         _______ _______ _______ _____ _____    ______ ____
ROOT
ATOM      3  N   UNL     1      -5.027   3.279  24.099  0.00  0.00    -0.297 NA
ATOM      7  C   UNL     1      -3.828   3.819  26.347  0.00  0.00    +0.002 C 
ATOM      8  C   UNL     1      -5.400   2.271  25.128  0.00  0.00    +0.074 C 
ATOM      9  C   UNL     1      -2.810   3.820  25.173  0.00  0.00    +0.055 C 
ATOM     10  C   UNL     1      -4.544   2.452  26.399  0.00  0.00    +0.024 C 
ATOM     11  C   UNL     1      -4.900   4.877  26.009  0.00  0.00    +0.019 C 
ATOM     12  C   UNL     1      -3.556   3.296  23.912  0.00  0.00    +0.094 C 
ATOM     13  C   UNL     1      -5.448   4.611  24.595  0.00  0.00    +0.085 C 
ENDROOT
BRANCH   9  15
ATOM      5  N   UNL     1      -0.929   3.215  26.614  0.00  0.00    -0.237 NA
ATOM      6  N   UNL     1       0.930   1.906  25.816  0.00  0.00    -0.232 NA
ATOM     15  C   UNL     1      -1.472   3.127  25.382  0.00  0.00    +0.050 A 
ATOM     20  C   UNL     1      -0.882   2.456  24.330  0.00  0.00    +0.052 A 
ATOM     21  C   UNL     1       0.331   1.858  24.608  0.00  0.00    +0.076 A 
ATOM     22  C   UNL     1       0.256   2.590  26.759  0.00  0.00    +0.127 A 
ATOM     24  C   UNL     1       0.888   2.667  28.108  0.00  0.00    +0.088 C 
BRANCH  21  23
ATOM      1 BR   UNL     1      -1.500   0.256  22.531  0.00  0.00    -0.050 Br
ATOM     23  C   UNL     1       1.051   1.126  23.594  0.00  0.00    +0.014 A 
ATOM     25  C   UNL     1       0.395   0.379  22.615  0.00  0.00    +0.027 A 
ATOM     26  C   UNL     1       2.444   1.184  23.611  0.00  0.00    +0.011 A 
ATOM     27  C   UNL     1       1.134  -0.312  21.654  0.00  0.00    +0.016 A 
ATOM     28  C   UNL     1       3.183   0.493  22.650  0.00  0.00    +0.001 A 
ATOM     29  C   UNL     1       2.528  -0.255  21.671  0.00  0.00    +0.001 A 
ENDBRANCH  21  23
ENDBRANCH   9  15
BRANCH   8  14
ATOM     14  C   UNL     1      -5.331   0.840  24.592  0.00  0.00    +0.123 C 
BRANCH  14   4
ATOM      2  O   UNL     1      -4.313  -1.789  23.880  0.00  0.00    -0.276 OA
ATOM      4  N   UNL     1      -4.294   0.101  25.244  0.00  0.00    -0.314 N 
ATOM     19  C   UNL     1      -3.870  -1.158  24.831  0.00  0.00    +0.216 C 
ATOM     30  H   UNL     1      -3.844   0.528  26.048  0.00  0.00    +0.149 HD
BRANCH  19  16
ATOM     16  C   UNL     1      -2.772  -1.743  25.656  0.00  0.00    +0.075 C 
ATOM     17  C   UNL     1      -1.472  -2.096  24.996  0.00  0.00    +0.013 C 
ATOM     18  C   UNL     1      -1.546  -0.922  25.928  0.00  0.00    +0.013 C 
ENDBRANCH  19  16
ENDBRANCH  14   4
ENDBRANCH   8  14
TORSDOF 5
ENDMDL
MODEL 5
REMARK VINA RESULT:       1.8      1.812      2.195
REMARK  Name = 40777115
REMARK  6 active torsions:
REMARK  status: ('A' for Active; 'I' for Inactive)
REMARK    1  A    between atoms: N_4  and  C_14
REMARK    2  A    between atoms: C_8  and  C_14
REMARK    3  A    between atoms: C_9  and  C_15
REMARK    4  A    between atoms: C_16  and  C_19
REMARK    5  A    between atoms: C_21  and  C_23
REMARK    6  A    between atoms: C_22  and  C_24
REMARK                            x       y       z     vdW  Elec       q    Type
REMARK                         _______ _______ _______ _____ _____    ______ ____
ROOT
ATOM      3  N   UNL     1      -1.086   4.797  25.703  0.00  0.00    -0.297 NA
ATOM      7  C   UNL     1      -2.667   4.047  23.773  0.00  0.00    +0.002 C 
ATOM      8  C   UNL     1      -0.386   3.824  24.821  0.00  0.00    +0.074 C 
ATOM      9  C   UNL     1      -3.385   3.922  25.146  0.00  0.00    +0.055 C 
ATOM     10  C   UNL     1      -1.368   3.213  23.799  0.00  0.00    +0.024 C 
ATOM     11  C   UNL     1      -2.252   5.526  23.622  0.00  0.00    +0.019 C 
ATOM     12  C   UNL     1      -2.323   4.189  26.251  0.00  0.00    +0.094 C 
ATOM     13  C   UNL     1      -1.470   5.965  24.874  0.00  0.00    +0.085 C 
ENDROOT
BRANCH   9  15
ATOM      5  N   UNL     1      -5.332   2.817  26.131  0.00  0.00    -0.237 NA
ATOM      6  N   UNL     1      -5.692   0.441  25.942  0.00  0.00    -0.232 NA
ATOM     15  C   UNL     1      -4.197   2.663  25.418  0.00  0.00    +0.050 A 
ATOM     20  C   UNL     1      -3.749   1.449  24.940  0.00  0.00    +0.052 A 
ATOM     21  C   UNL     1      -4.546   0.361  25.235  0.00  0.00    +0.076 A 
ATOM     22  C   UNL     1      -6.022   1.681  26.353  0.00  0.00    +0.127 A 
ATOM     24  C   UNL     1      -7.282   1.810  27.140  0.00  0.00    +0.088 C 
BRANCH  21  23
ATOM      1 BR   UNL     1      -2.602  -1.246  27.201  0.00  0.00    -0.050 Br
ATOM     23  C   UNL     1      -4.189  -0.966  24.794  0.00  0.00    +0.014 A 
ATOM     25  C   UNL     1      -3.349  -1.793  25.541  0.00  0.00    +0.027 A 
ATOM     26  C   UNL     1      -4.711  -1.415  23.582  0.00  0.00    +0.011 A 
ATOM     27  C   UNL     1      -3.032  -3.069  25.075  0.00  0.00    +0.016 A 
ATOM     28  C   UNL     1      -4.393  -2.691  23.115  0.00  0.00    +0.001 A 
ATOM     29  C   UNL     1      -3.554  -3.518  23.862  0.00  0.00    +0.001 A 
ENDBRANCH  21  23
ENDBRANCH   9  15
BRANCH   8  14
ATOM     14  C   UNL     1       0.353   2.746  25.617  0.00  0.00    +0.123 C 
BRANCH  14   4
ATOM      2  O   UNL     1       1.932   1.563  23.481  0.00  0.00    -0.276 OA
ATOM      4  N   UNL     1       0.180   1.460  25.014  0.00  0.00    -0.314 N 
ATOM     19  C   UNL     1       0.988   0.974  23.992  0.00  0.00    +0.216 C 
ATOM     30  H   UNL     1      -0.573   0.873  25.362  0.00  0.00    +0.149 HD
BRANCH  19  16
ATOM     16  C   UNL     1       0.629  -0.394  23.515  0.00  0.00    +0.075 C 
ATOM     17  C   UNL     1      -0.026  -1.351  24.469  0.00  0.00    +0.013 C 
ATOM     18  C   UNL     1      -0.819  -0.750  23.345  0.00  0.00    +0.013 C 
ENDBRANCH  19  16
ENDBRANCH  14   4
ENDBRANCH   8  14
TORSDOF 5
ENDMDL
MODEL 6
REMARK VINA RESULT:       1.9      2.301      6.377
REMARK  Name = 40777115
REMARK  6 active torsions:
REMARK  status: ('A' for Active; 'I' for Inactive)
REMARK    1  A    between atoms: N_4  and  C_14
REMARK    2  A    between atoms: C_8  and  C_14
REMARK    3  A    between atoms: C_9  and  C_15
REMARK    4  A    between atoms: C_16  and  C_19
REMARK    5  A    between atoms: C_21  and  C_23
REMARK    6  A    between atoms: C_22  and  C_24
REMARK                            x       y       z     vdW  Elec       q    Type
REMARK                         _______ _______ _______ _____ _____    ______ ____
ROOT
ATOM      3  N   UNL     1      -4.410   3.657  24.078  0.00  0.00    -0.297 NA
ATOM      7  C   UNL     1      -2.270   3.999  25.522  0.00  0.00    +0.002 C 
ATOM      8  C   UNL     1      -4.686   3.283  25.491  0.00  0.00    +0.074 C 
ATOM      9  C   UNL     1      -1.939   3.178  24.245  0.00  0.00    +0.055 C 
ATOM     10  C   UNL     1      -3.382   3.280  26.316  0.00  0.00    +0.024 C 
ATOM     11  C   UNL     1      -2.853   5.347  25.046  0.00  0.00    +0.019 C 
ATOM     12  C   UNL     1      -3.288   2.845  23.545  0.00  0.00    +0.094 C 
ATOM     13  C   UNL     1      -4.002   5.082  24.057  0.00  0.00    +0.085 C 
ENDROOT
BRANCH   9  15
ATOM      5  N   UNL     1      -1.496   0.965  25.190  0.00  0.00    -0.237 NA
ATOM      6  N   UNL     1       0.515  -0.264  24.691  0.00  0.00    -0.232 NA
ATOM     15  C   UNL     1      -1.046   1.954  24.389  0.00  0.00    +0.050 A 
ATOM     20  C   UNL     1       0.158   1.908  23.717  0.00  0.00    +0.052 A 
ATOM     21  C   UNL     1       0.905   0.762  23.907  0.00  0.00    +0.076 A 
ATOM     22  C   UNL     1      -0.678  -0.099  25.293  0.00  0.00    +0.127 A 
ATOM     24  C   UNL     1      -1.141  -1.213  26.171  0.00  0.00    +0.088 C 
BRANCH  21  23
ATOM      1 BR   UNL     1       0.810  -0.744  21.087  0.00  0.00    -0.050 Br
ATOM     23  C   UNL     1       2.184   0.590  23.260  0.00  0.00    +0.014 A 
ATOM     25  C   UNL     1       2.308  -0.046  22.025  0.00  0.00    +0.027 A 
ATOM     26  C   UNL     1       3.315   1.084  23.908  0.00  0.00    +0.011 A 
ATOM     27  C   UNL     1       3.566  -0.189  21.439  0.00  0.00    +0.016 A 
ATOM     28  C   UNL     1       4.573   0.941  23.321  0.00  0.00    +0.001 A 
ATOM     29  C   UNL     1       4.698   0.305  22.086  0.00  0.00    +0.001 A 
ENDBRANCH  21  23
ENDBRANCH   9  15
BRANCH   8  14
ATOM     14  C   UNL     1      -5.436   1.954  25.605  0.00  0.00    +0.123 C 
BRANCH  14   4
ATOM      2  O   UNL     1      -4.231  -0.631  26.173  0.00  0.00    -0.276 OA
ATOM      4  N   UNL     1      -4.932   1.002  24.664  0.00  0.00    -0.314 N 
ATOM     19  C   UNL     1      -4.369  -0.217  25.029  0.00  0.00    +0.216 C 
ATOM     30  H   UNL     1      -4.997   1.233  23.677  0.00  0.00    +0.149 HD
BRANCH  19  16
ATOM     16  C   UNL     1      -3.912  -1.056  23.882  0.00  0.00    +0.075 C 
ATOM     17  C   UNL     1      -3.262  -2.380  24.160  0.00  0.00    +0.013 C 
ATOM     18  C   UNL     1      -4.643  -2.330  23.572  0.00  0.00    +0.013 C 
ENDBRANCH  19  16
ENDBRANCH  14   4
ENDBRANCH   8  14
TORSDOF 5
ENDMDL
MODEL 7
REMARK VINA RESULT:       3.0      2.473      5.820
REMARK  Name = 40777115
REMARK  6 active torsions:
REMARK  status: ('A' for Active; 'I' for Inactive)
REMARK    1  A    between atoms: N_4  and  C_14
REMARK    2  A    between atoms: C_8  and  C_14
REMARK    3  A    between atoms: C_9  and  C_15
REMARK    4  A    between atoms: C_16  and  C_19
REMARK    5  A    between atoms: C_21  and  C_23
REMARK    6  A    between atoms: C_22  and  C_24
REMARK                            x       y       z     vdW  Elec       q    Type
REMARK                         _______ _______ _______ _____ _____    ______ ____
ROOT
ATOM      3  N   UNL     1      -1.571   5.262  23.861  0.00  0.00    -0.297 NA
ATOM      7  C   UNL     1      -0.679   3.692  25.738  0.00  0.00    +0.002 C 
ATOM      8  C   UNL     1      -2.707   4.724  24.656  0.00  0.00    +0.074 C 
ATOM      9  C   UNL     1      -0.058   3.308  24.366  0.00  0.00    +0.055 C 
ATOM     10  C   UNL     1      -2.218   3.635  25.634  0.00  0.00    +0.024 C 
ATOM     11  C   UNL     1      -0.297   5.164  26.003  0.00  0.00    +0.019 C 
ATOM     12  C   UNL     1      -0.785   4.148  23.277  0.00  0.00    +0.094 C 
ATOM     13  C   UNL     1      -0.690   6.017  24.784  0.00  0.00    +0.085 C 
ENDROOT
BRANCH   9  15
ATOM      5  N   UNL     1       1.170   1.406  23.440  0.00  0.00    -0.237 NA
ATOM      6  N   UNL     1       0.215  -0.803  23.320  0.00  0.00    -0.232 NA
ATOM     15  C   UNL     1       0.020   1.833  24.000  0.00  0.00    +0.050 A 
ATOM     20  C   UNL     1      -1.063   1.013  24.247  0.00  0.00    +0.052 A 
ATOM     21  C   UNL     1      -0.907  -0.309  23.883  0.00  0.00    +0.076 A 
ATOM     22  C   UNL     1       1.200   0.096  23.130  0.00  0.00    +0.127 A 
ATOM     24  C   UNL     1       2.456  -0.412  22.506  0.00  0.00    +0.088 C 
BRANCH  21  23
ATOM      1 BR   UNL     1      -0.096  -2.877  25.609  0.00  0.00    -0.050 Br
ATOM     23  C   UNL     1      -1.965  -1.269  24.087  0.00  0.00    +0.014 A 
ATOM     25  C   UNL     1      -1.769  -2.441  24.819  0.00  0.00    +0.027 A 
ATOM     26  C   UNL     1      -3.212  -0.996  23.528  0.00  0.00    +0.011 A 
ATOM     27  C   UNL     1      -2.823  -3.339  24.991  0.00  0.00    +0.016 A 
ATOM     28  C   UNL     1      -4.265  -1.895  23.699  0.00  0.00    +0.001 A 
ATOM     29  C   UNL     1      -4.071  -3.066  24.431  0.00  0.00    +0.001 A 
ENDBRANCH  21  23
ENDBRANCH   9  15
BRANCH   8  14
ATOM     14  C   UNL     1      -3.851   4.224  23.771  0.00  0.00    +0.123 C 
BRANCH  14   4
ATOM      2  O   UNL     1      -5.927   4.306  25.806  0.00  0.00    -0.276 OA
ATOM      4  N   UNL     1      -4.519   3.115  24.380  0.00  0.00    -0.314 N 
ATOM     19  C   UNL     1      -5.506   3.250  25.351  0.00  0.00    +0.216 C 
ATOM     30  H   UNL     1      -4.257   2.181  24.078  0.00  0.00    +0.149 HD
BRANCH  19  16
ATOM     16  C   UNL     1      -6.069   1.959  25.846  0.00  0.00    +0.075 C 
ATOM     17  C   UNL     1      -6.371   0.869  24.860  0.00  0.00    +0.013 C 
ATOM     18  C   UNL     1      -5.214   0.727  25.805  0.00  0.00    +0.013 C 
ENDBRANCH  19  16
ENDBRANCH  14   4
ENDBRANCH   8  14
TORSDOF 5
ENDMDL
MODEL 8
REMARK VINA RESULT:       3.0      2.411      5.746
REMARK  Name = 40777115
REMARK  6 active torsions:
REMARK  status: ('A' for Active; 'I' for Inactive)
REMARK    1  A    between atoms: N_4  and  C_14
REMARK    2  A    between atoms: C_8  and  C_14
REMARK    3  A    between atoms: C_9  and  C_15
REMARK    4  A    between atoms: C_16  and  C_19
REMARK    5  A    between atoms: C_21  and  C_23
REMARK    6  A    between atoms: C_22  and  C_24
REMARK                            x       y       z     vdW  Elec       q    Type
REMARK                         _______ _______ _______ _____ _____    ______ ____
ROOT
ATOM      3  N   UNL     1       1.810  -0.634  24.128  0.00  0.00    -0.297 NA
ATOM      7  C   UNL     1       0.330   0.468  22.290  0.00  0.00    +0.002 C 
ATOM      8  C   UNL     1       0.591  -1.455  23.897  0.00  0.00    +0.074 C 
ATOM      9  C   UNL     1       0.725   1.513  23.370  0.00  0.00    +0.055 C 
ATOM     10  C   UNL     1      -0.394  -0.716  22.967  0.00  0.00    +0.024 C 
ATOM     11  C   UNL     1       1.646  -0.083  21.701  0.00  0.00    +0.019 C 
ATOM     12  C   UNL     1       1.429   0.744  24.524  0.00  0.00    +0.094 C 
ATOM     13  C   UNL     1       2.555  -0.559  22.848  0.00  0.00    +0.085 C 
ENDROOT
BRANCH   9  15
ATOM      5  N   UNL     1       0.008   3.750  24.054  0.00  0.00    -0.237 NA
ATOM      6  N   UNL     1      -2.238   4.207  24.796  0.00  0.00    -0.232 NA
ATOM     15  C   UNL     1      -0.351   2.461  23.880  0.00  0.00    +0.050 A 
ATOM     20  C   UNL     1      -1.617   1.976  24.140  0.00  0.00    +0.052 A 
ATOM     21  C   UNL     1      -2.529   2.904  24.600  0.00  0.00    +0.076 A 
ATOM     22  C   UNL     1      -0.970   4.556  24.507  0.00  0.00    +0.127 A 
ATOM     24  C   UNL     1      -0.610   5.989  24.714  0.00  0.00    +0.088 C 
BRANCH  21  23
ATOM      1 BR   UNL     1      -3.827   4.424  27.097  0.00  0.00    -0.050 Br
ATOM     23  C   UNL     1      -3.886   2.524  24.911  0.00  0.00    +0.014 A 
ATOM     25  C   UNL     1      -4.591   3.097  25.970  0.00  0.00    +0.027 A 
ATOM     26  C   UNL     1      -4.493   1.554  24.113  0.00  0.00    +0.011 A 
ATOM     27  C   UNL     1      -5.902   2.699  26.231  0.00  0.00    +0.016 A 
ATOM     28  C   UNL     1      -5.804   1.156  24.376  0.00  0.00    +0.001 A 
ATOM     29  C   UNL     1      -6.508   1.728  25.434  0.00  0.00    +0.001 A 
ENDBRANCH  21  23
ENDBRANCH   9  15
BRANCH   8  14
ATOM     14  C   UNL     1      -0.075  -1.888  25.204  0.00  0.00    +0.123 C 
BRANCH  14   4
ATOM      2  O   UNL     1      -2.414  -0.477  26.200  0.00  0.00    -0.276 OA
ATOM      4  N   UNL     1      -1.450  -2.221  24.990  0.00  0.00    -0.314 N 
ATOM     19  C   UNL     1      -2.509  -1.483  25.509  0.00  0.00    +0.216 C 
ATOM     30  H   UNL     1      -1.655  -3.038  24.424  0.00  0.00    +0.149 HD
BRANCH  19  16
ATOM     16  C   UNL     1      -3.861  -2.010  25.157  0.00  0.00    +0.075 C 
ATOM     17  C   UNL     1      -4.350  -1.881  23.745  0.00  0.00    +0.013 C 
ATOM     18  C   UNL     1      -3.966  -3.228  24.286  0.00  0.00    +0.013 C 
ENDBRANCH  19  16
ENDBRANCH  14   4
ENDBRANCH   8  14
TORSDOF 5
ENDMDL
MODEL 9
REMARK VINA RESULT:       3.1      2.381      3.202
REMARK  Name = 40777115
REMARK  6 active torsions:
REMARK  status: ('A' for Active; 'I' for Inactive)
REMARK    1  A    between atoms: N_4  and  C_14
REMARK    2  A    between atoms: C_8  and  C_14
REMARK    3  A    between atoms: C_9  and  C_15
REMARK    4  A    between atoms: C_16  and  C_19
REMARK    5  A    between atoms: C_21  and  C_23
REMARK    6  A    between atoms: C_22  and  C_24
REMARK                            x       y       z     vdW  Elec       q    Type
REMARK                         _______ _______ _______ _____ _____    ______ ____
ROOT
ATOM      3  N   UNL     1      -0.570   4.479  25.711  0.00  0.00    -0.297 NA
ATOM      7  C   UNL     1      -2.216   4.020  23.745  0.00  0.00    +0.002 C 
ATOM      8  C   UNL     1       0.069   3.583  24.711  0.00  0.00    +0.074 C 
ATOM      9  C   UNL     1      -2.916   3.772  25.110  0.00  0.00    +0.055 C 
ATOM     10  C   UNL     1      -0.956   3.134  23.649  0.00  0.00    +0.024 C 
ATOM     11  C   UNL     1      -1.738   5.488  23.751  0.00  0.00    +0.019 C 
ATOM     12  C   UNL     1      -1.825   3.867  26.215  0.00  0.00    +0.094 C 
ATOM     13  C   UNL     1      -0.916   5.748  25.026  0.00  0.00    +0.085 C 
ENDROOT
BRANCH   9  15
ATOM      5  N   UNL     1      -4.997   2.695  25.813  0.00  0.00    -0.237 NA
ATOM      6  N   UNL     1      -5.369   0.328  25.553  0.00  0.00    -0.232 NA
ATOM     15  C   UNL     1      -3.779   2.527  25.258  0.00  0.00    +0.050 A 
ATOM     20  C   UNL     1      -3.292   1.307  24.834  0.00  0.00    +0.052 A 
ATOM     21  C   UNL     1      -4.139   0.232  25.007  0.00  0.00    +0.076 A 
ATOM     22  C   UNL     1      -5.730   1.571  25.928  0.00  0.00    +0.127 A 
ATOM     24  C   UNL     1      -7.083   1.717  26.538  0.00  0.00    +0.088 C 
BRANCH  21  23
ATOM      1 BR   UNL     1      -1.236  -0.684  25.987  0.00  0.00    -0.050 Br
ATOM     23  C   UNL     1      -3.749  -1.098  24.606  0.00  0.00    +0.014 A 
ATOM     25  C   UNL     1      -2.512  -1.643  24.955  0.00  0.00    +0.027 A 
ATOM     26  C   UNL     1      -4.650  -1.844  23.847  0.00  0.00    +0.011 A 
ATOM     27  C   UNL     1      -2.179  -2.933  24.544  0.00  0.00    +0.016 A 
ATOM     28  C   UNL     1      -4.316  -3.134  23.436  0.00  0.00    +0.001 A 
ATOM     29  C   UNL     1      -3.080  -3.679  23.785  0.00  0.00    +0.001 A 
ENDBRANCH  21  23
ENDBRANCH   9  15
BRANCH   8  14
ATOM     14  C   UNL     1       0.773   2.392  25.365  0.00  0.00    +0.123 C 
BRANCH  14   4
ATOM      2  O   UNL     1       2.416   2.949  27.698  0.00  0.00    -0.276 OA
ATOM      4  N   UNL     1       0.401   2.273  26.741  0.00  0.00    -0.314 N 
ATOM     19  C   UNL     1       1.258   2.563  27.798  0.00  0.00    +0.216 C 
ATOM     30  H   UNL     1      -0.543   1.964  26.950  0.00  0.00    +0.149 HD
BRANCH  19  16
ATOM     16  C   UNL     1       0.660   2.371  29.152  0.00  0.00    +0.075 C 
ATOM     17  C   UNL     1       1.535   1.899  30.276  0.00  0.00    +0.013 C 
ATOM     18  C   UNL     1       1.035   3.315  30.256  0.00  0.00    +0.013 C 
ENDBRANCH  19  16
ENDBRANCH  14   4
ENDBRANCH   8  14
TORSDOF 5
ENDMDL
