MODEL 1
REMARK VINA RESULT:      -7.1      0.000      0.000
REMARK  Name = 75536879
REMARK  3 active torsions:
REMARK  status: ('A' for Active; 'I' for Inactive)
REMARK    1  A    between atoms: O_3  and  C_11
REMARK    2  A    between atoms: O_3  and  C_14
REMARK    3  A    between atoms: C_5  and  C_8
REMARK                            x       y       z     vdW  Elec       q    Type
REMARK                         _______ _______ _______ _____ _____    ______ ____
ROOT
ATOM      1  O   UNL     1      -0.759   3.638  25.435  0.00  0.00    -0.376 OA
ATOM      2  O   UNL     1      -1.065  -1.196  24.606  0.00  0.00    -0.275 OA
ATOM      4  N   UNL     1      -2.022   0.928  24.439  0.00  0.00    -0.297 N 
ATOM      8  C   UNL     1      -2.047  -0.460  24.656  0.00  0.00    +0.219 C 
ATOM      9  C   UNL     1      -3.230   1.755  24.512  0.00  0.00    +0.141 C 
ATOM     10  C   UNL     1      -0.743   1.571  24.130  0.00  0.00    +0.136 C 
ATOM     11  C   UNL     1      -3.034   3.268  24.625  0.00  0.00    +0.161 C 
ATOM     12  C   UNL     1      -2.137   3.670  25.793  0.00  0.00    +0.193 C 
ATOM     13  C   UNL     1      -0.202   2.333  25.332  0.00  0.00    +0.179 C 
ENDROOT
BRANCH   8   5
ATOM      5  C   UNL     1      -3.368  -1.079  24.989  0.00  0.00    +0.075 C 
ATOM      6  C   UNL     1      -4.142  -1.730  23.894  0.00  0.00    +0.013 C 
ATOM      7  C   UNL     1      -3.483  -2.565  24.953  0.00  0.00    +0.013 C 
ENDBRANCH   8   5
BRANCH  11   3
ATOM      3  O   UNL     1      -4.330   3.836  24.821  0.00  0.00    -0.376 OA
ATOM     14  C   UNL     1      -5.116   3.039  25.694  0.00  0.00    +0.194 C 
ENDBRANCH  11   3
TORSDOF 2
ENDMDL
MODEL 2
REMARK VINA RESULT:      -5.9      1.588      5.242
REMARK  Name = 75536879
REMARK  3 active torsions:
REMARK  status: ('A' for Active; 'I' for Inactive)
REMARK    1  A    between atoms: O_3  and  C_11
REMARK    2  A    between atoms: O_3  and  C_14
REMARK    3  A    between atoms: C_5  and  C_8
REMARK                            x       y       z     vdW  Elec       q    Type
REMARK                         _______ _______ _______ _____ _____    ______ ____
ROOT
ATOM      1  O   UNL     1      -3.802  -1.141  25.196  0.00  0.00    -0.376 OA
ATOM      2  O   UNL     1      -3.943   3.772  25.187  0.00  0.00    -0.275 OA
ATOM      4  N   UNL     1      -2.812   1.800  24.647  0.00  0.00    -0.297 N 
ATOM      8  C   UNL     1      -2.900   3.130  25.094  0.00  0.00    +0.219 C 
ATOM      9  C   UNL     1      -1.536   1.086  24.557  0.00  0.00    +0.141 C 
ATOM     10  C   UNL     1      -4.040   1.104  24.257  0.00  0.00    +0.136 C 
ATOM     11  C   UNL     1      -1.596  -0.436  24.417  0.00  0.00    +0.161 C 
ATOM     12  C   UNL     1      -2.415  -1.106  25.518  0.00  0.00    +0.193 C 
ATOM     13  C   UNL     1      -4.473   0.108  25.324  0.00  0.00    +0.179 C 
ENDROOT
BRANCH   8   5
ATOM      5  C   UNL     1      -1.626   3.802  25.502  0.00  0.00    +0.075 C 
ATOM      6  C   UNL     1      -0.673   4.221  24.436  0.00  0.00    +0.013 C 
ATOM      7  C   UNL     1      -1.460   5.251  25.191  0.00  0.00    +0.013 C 
ENDBRANCH   8   5
BRANCH  11   3
ATOM      3  O   UNL     1      -0.250  -0.909  24.492  0.00  0.00    -0.376 OA
ATOM     14  C   UNL     1       0.567  -0.298  23.504  0.00  0.00    +0.194 C 
ENDBRANCH  11   3
TORSDOF 2
ENDMDL
MODEL 3
REMARK VINA RESULT:      -5.9      1.763      4.814
REMARK  Name = 75536879
REMARK  3 active torsions:
REMARK  status: ('A' for Active; 'I' for Inactive)
REMARK    1  A    between atoms: O_3  and  C_11
REMARK    2  A    between atoms: O_3  and  C_14
REMARK    3  A    between atoms: C_5  and  C_8
REMARK                            x       y       z     vdW  Elec       q    Type
REMARK                         _______ _______ _______ _____ _____    ______ ____
ROOT
ATOM      1  O   UNL     1      -2.141  -2.421  24.834  0.00  0.00    -0.376 OA
ATOM      2  O   UNL     1      -5.586   1.080  24.988  0.00  0.00    -0.275 OA
ATOM      4  N   UNL     1      -3.444   0.406  24.345  0.00  0.00    -0.297 N 
ATOM      8  C   UNL     1      -4.391   1.320  24.836  0.00  0.00    +0.219 C 
ATOM      9  C   UNL     1      -2.029   0.752  24.185  0.00  0.00    +0.141 C 
ATOM     10  C   UNL     1      -3.887  -0.940  23.977  0.00  0.00    +0.136 C 
ATOM     11  C   UNL     1      -1.045  -0.404  23.999  0.00  0.00    +0.161 C 
ATOM     12  C   UNL     1      -1.135  -1.451  25.107  0.00  0.00    +0.193 C 
ATOM     13  C   UNL     1      -3.475  -1.964  25.027  0.00  0.00    +0.179 C 
ENDROOT
BRANCH   8   5
ATOM      5  C   UNL     1      -3.897   2.680  25.219  0.00  0.00    +0.075 C 
ATOM      6  C   UNL     1      -3.974   3.773  24.208  0.00  0.00    +0.013 C 
ATOM      7  C   UNL     1      -4.897   3.774  25.391  0.00  0.00    +0.013 C 
ENDBRANCH   8   5
BRANCH  11   3
ATOM      3  O   UNL     1       0.265   0.167  24.009  0.00  0.00    -0.376 OA
ATOM     14  C   UNL     1       0.218   1.562  24.268  0.00  0.00    +0.194 C 
ENDBRANCH  11   3
TORSDOF 2
ENDMDL
MODEL 4
REMARK VINA RESULT:      -5.8      1.694      3.194
REMARK  Name = 75536879
REMARK  3 active torsions:
REMARK  status: ('A' for Active; 'I' for Inactive)
REMARK    1  A    between atoms: O_3  and  C_11
REMARK    2  A    between atoms: O_3  and  C_14
REMARK    3  A    between atoms: C_5  and  C_8
REMARK                            x       y       z     vdW  Elec       q    Type
REMARK                         _______ _______ _______ _____ _____    ______ ____
ROOT
ATOM      1  O   UNL     1      -2.131   4.683  24.950  0.00  0.00    -0.376 OA
ATOM      2  O   UNL     1      -5.241   0.892  24.615  0.00  0.00    -0.275 OA
ATOM      4  N   UNL     1      -3.149   1.716  25.249  0.00  0.00    -0.297 N 
ATOM      8  C   UNL     1      -4.024   0.756  24.713  0.00  0.00    +0.219 C 
ATOM      9  C   UNL     1      -1.703   1.494  25.339  0.00  0.00    +0.141 C 
ATOM     10  C   UNL     1      -3.701   2.981  25.736  0.00  0.00    +0.136 C 
ATOM     11  C   UNL     1      -0.824   2.721  25.589  0.00  0.00    +0.161 C 
ATOM     12  C   UNL     1      -1.050   3.837  24.572  0.00  0.00    +0.193 C 
ATOM     13  C   UNL     1      -3.423   4.117  24.760  0.00  0.00    +0.179 C 
ENDROOT
BRANCH   8   5
ATOM      5  C   UNL     1      -3.420  -0.517  24.208  0.00  0.00    +0.075 C 
ATOM      6  C   UNL     1      -3.448  -1.715  25.095  0.00  0.00    +0.013 C 
ATOM      7  C   UNL     1      -4.331  -1.653  23.884  0.00  0.00    +0.013 C 
ENDBRANCH   8   5
BRANCH  11   3
ATOM      3  O   UNL     1       0.532   2.280  25.495  0.00  0.00    -0.376 OA
ATOM     14  C   UNL     1       0.761   1.567  24.289  0.00  0.00    +0.194 C 
ENDBRANCH  11   3
TORSDOF 2
ENDMDL
MODEL 5
REMARK VINA RESULT:      -5.7      1.403      4.043
REMARK  Name = 75536879
REMARK  3 active torsions:
REMARK  status: ('A' for Active; 'I' for Inactive)
REMARK    1  A    between atoms: O_3  and  C_11
REMARK    2  A    between atoms: O_3  and  C_14
REMARK    3  A    between atoms: C_5  and  C_8
REMARK                            x       y       z     vdW  Elec       q    Type
REMARK                         _______ _______ _______ _____ _____    ______ ____
ROOT
ATOM      1  O   UNL     1       0.871   1.221  24.106  0.00  0.00    -0.376 OA
ATOM      2  O   UNL     1      -3.163   3.831  25.139  0.00  0.00    -0.275 OA
ATOM      4  N   UNL     1      -2.078   1.764  25.078  0.00  0.00    -0.297 N 
ATOM      8  C   UNL     1      -3.182   2.621  24.931  0.00  0.00    +0.219 C 
ATOM      9  C   UNL     1      -2.162   0.325  24.815  0.00  0.00    +0.141 C 
ATOM     10  C   UNL     1      -0.797   2.329  25.509  0.00  0.00    +0.136 C 
ATOM     11  C   UNL     1      -0.844  -0.433  24.649  0.00  0.00    +0.161 C 
ATOM     12  C   UNL     1       0.064   0.172  23.580  0.00  0.00    +0.193 C 
ATOM     13  C   UNL     1       0.177   2.441  24.344  0.00  0.00    +0.179 C 
ENDROOT
BRANCH   8   5
ATOM      5  C   UNL     1      -4.468   2.011  24.471  0.00  0.00    +0.075 C 
ATOM      6  C   UNL     1      -5.222   1.144  25.422  0.00  0.00    +0.013 C 
ATOM      7  C   UNL     1      -5.741   2.507  25.068  0.00  0.00    +0.013 C 
ENDBRANCH   8   5
BRANCH  11   3
ATOM      3  O   UNL     1      -1.183  -1.767  24.265  0.00  0.00    -0.376 OA
ATOM     14  C   UNL     1      -2.523  -2.080  24.614  0.00  0.00    +0.194 C 
ENDBRANCH  11   3
TORSDOF 2
ENDMDL
MODEL 6
REMARK VINA RESULT:      -5.6      2.109      3.189
REMARK  Name = 75536879
REMARK  3 active torsions:
REMARK  status: ('A' for Active; 'I' for Inactive)
REMARK    1  A    between atoms: O_3  and  C_11
REMARK    2  A    between atoms: O_3  and  C_14
REMARK    3  A    between atoms: C_5  and  C_8
REMARK                            x       y       z     vdW  Elec       q    Type
REMARK                         _______ _______ _______ _____ _____    ______ ____
ROOT
ATOM      1  O   UNL     1       0.139   1.321  25.627  0.00  0.00    -0.376 OA
ATOM      2  O   UNL     1      -4.449   0.027  24.432  0.00  0.00    -0.275 OA
ATOM      4  N   UNL     1      -2.708   1.580  24.302  0.00  0.00    -0.297 N 
ATOM      8  C   UNL     1      -4.054   1.190  24.417  0.00  0.00    +0.219 C 
ATOM      9  C   UNL     1      -2.298   2.987  24.290  0.00  0.00    +0.141 C 
ATOM     10  C   UNL     1      -1.680   0.544  24.191  0.00  0.00    +0.136 C 
ATOM     11  C   UNL     1      -0.817   3.284  24.530  0.00  0.00    +0.161 C 
ATOM     12  C   UNL     1      -0.285   2.667  25.822  0.00  0.00    +0.193 C 
ATOM     13  C   UNL     1      -0.918   0.378  25.499  0.00  0.00    +0.179 C 
ENDROOT
BRANCH   8   5
ATOM      5  C   UNL     1      -5.074   2.277  24.548  0.00  0.00    +0.075 C 
ATOM      6  C   UNL     1      -6.417   1.925  25.092  0.00  0.00    +0.013 C 
ATOM      7  C   UNL     1      -5.455   2.728  25.917  0.00  0.00    +0.013 C 
ENDBRANCH   8   5
BRANCH  11   3
ATOM      3  O   UNL     1      -0.692   4.705  24.612  0.00  0.00    -0.376 OA
ATOM     14  C   UNL     1      -1.804   5.284  25.279  0.00  0.00    +0.194 C 
ENDBRANCH  11   3
TORSDOF 2
ENDMDL
MODEL 7
REMARK VINA RESULT:      -5.2      1.944      3.891
REMARK  Name = 75536879
REMARK  3 active torsions:
REMARK  status: ('A' for Active; 'I' for Inactive)
REMARK    1  A    between atoms: O_3  and  C_11
REMARK    2  A    between atoms: O_3  and  C_14
REMARK    3  A    between atoms: C_5  and  C_8
REMARK                            x       y       z     vdW  Elec       q    Type
REMARK                         _______ _______ _______ _____ _____    ______ ____
ROOT
ATOM      1  O   UNL     1      -0.305   4.677  24.879  0.00  0.00    -0.376 OA
ATOM      2  O   UNL     1      -5.141   4.085  25.522  0.00  0.00    -0.275 OA
ATOM      4  N   UNL     1      -3.002   3.149  25.445  0.00  0.00    -0.297 N 
ATOM      8  C   UNL     1      -4.387   3.167  25.211  0.00  0.00    +0.219 C 
ATOM      9  C   UNL     1      -2.154   2.021  25.049  0.00  0.00    +0.141 C 
ATOM     10  C   UNL     1      -2.384   4.299  26.108  0.00  0.00    +0.136 C 
ATOM     11  C   UNL     1      -0.644   2.262  25.017  0.00  0.00    +0.161 C 
ATOM     12  C   UNL     1      -0.246   3.455  24.151  0.00  0.00    +0.193 C 
ATOM     13  C   UNL     1      -1.620   5.165  25.116  0.00  0.00    +0.179 C 
ENDROOT
BRANCH   8   5
ATOM      5  C   UNL     1      -4.980   1.983  24.513  0.00  0.00    +0.075 C 
ATOM      6  C   UNL     1      -5.180   0.728  25.292  0.00  0.00    +0.013 C 
ATOM      7  C   UNL     1      -6.361   1.560  24.886  0.00  0.00    +0.013 C 
ENDBRANCH   8   5
BRANCH  11   3
ATOM      3  O   UNL     1      -0.052   1.080  24.474  0.00  0.00    -0.376 OA
ATOM     14  C   UNL     1      -1.000   0.028  24.370  0.00  0.00    +0.194 C 
ENDBRANCH  11   3
TORSDOF 2
ENDMDL
MODEL 8
REMARK VINA RESULT:      -5.1      1.507      3.007
REMARK  Name = 75536879
REMARK  3 active torsions:
REMARK  status: ('A' for Active; 'I' for Inactive)
REMARK    1  A    between atoms: O_3  and  C_11
REMARK    2  A    between atoms: O_3  and  C_14
REMARK    3  A    between atoms: C_5  and  C_8
REMARK                            x       y       z     vdW  Elec       q    Type
REMARK                         _______ _______ _______ _____ _____    ______ ____
ROOT
ATOM      1  O   UNL     1      -4.518   3.651  24.627  0.00  0.00    -0.376 OA
ATOM      2  O   UNL     1      -4.203  -1.248  24.397  0.00  0.00    -0.275 OA
ATOM      4  N   UNL     1      -3.290   0.786  25.092  0.00  0.00    -0.297 N 
ATOM      8  C   UNL     1      -3.230  -0.521  24.580  0.00  0.00    +0.219 C 
ATOM      9  C   UNL     1      -2.092   1.606  25.289  0.00  0.00    +0.141 C 
ATOM     10  C   UNL     1      -4.596   1.348  25.444  0.00  0.00    +0.136 C 
ATOM     11  C   UNL     1      -2.300   3.107  25.496  0.00  0.00    +0.161 C 
ATOM     12  C   UNL     1      -3.119   3.758  24.383  0.00  0.00    +0.193 C 
ATOM     13  C   UNL     1      -5.062   2.355  24.402  0.00  0.00    +0.179 C 
ENDROOT
BRANCH   8   5
ATOM      5  C   UNL     1      -1.881  -1.054  24.214  0.00  0.00    +0.075 C 
ATOM      6  C   UNL     1      -1.010  -1.586  25.302  0.00  0.00    +0.013 C 
ATOM      7  C   UNL     1      -1.648  -2.523  24.318  0.00  0.00    +0.013 C 
ENDBRANCH   8   5
BRANCH  11   3
ATOM      3  O   UNL     1      -1.001   3.702  25.522  0.00  0.00    -0.376 OA
ATOM     14  C   UNL     1      -1.022   5.012  24.973  0.00  0.00    +0.194 C 
ENDBRANCH  11   3
TORSDOF 2
ENDMDL
MODEL 9
REMARK VINA RESULT:      -5.0      1.311      4.570
REMARK  Name = 75536879
REMARK  3 active torsions:
REMARK  status: ('A' for Active; 'I' for Inactive)
REMARK    1  A    between atoms: O_3  and  C_11
REMARK    2  A    between atoms: O_3  and  C_14
REMARK    3  A    between atoms: C_5  and  C_8
REMARK                            x       y       z     vdW  Elec       q    Type
REMARK                         _______ _______ _______ _____ _____    ______ ____
ROOT
ATOM      1  O   UNL     1      -0.309  -1.147  23.985  0.00  0.00    -0.376 OA
ATOM      2  O   UNL     1      -1.593   3.580  24.387  0.00  0.00    -0.275 OA
ATOM      4  N   UNL     1      -1.959   1.350  24.975  0.00  0.00    -0.297 N 
ATOM      8  C   UNL     1      -2.359   2.653  24.636  0.00  0.00    +0.219 C 
ATOM      9  C   UNL     1      -2.922   0.283  25.262  0.00  0.00    +0.141 C 
ATOM     10  C   UNL     1      -0.528   1.046  25.045  0.00  0.00    +0.136 C 
ATOM     11  C   UNL     1      -2.396  -1.153  25.256  0.00  0.00    +0.161 C 
ATOM     12  C   UNL     1      -1.683  -1.523  23.957  0.00  0.00    +0.193 C 
ATOM     13  C   UNL     1      -0.073   0.248  23.830  0.00  0.00    +0.179 C 
ENDROOT
BRANCH   8   5
ATOM      5  C   UNL     1      -3.829   2.921  24.556  0.00  0.00    +0.075 C 
ATOM      6  C   UNL     1      -4.484   3.628  25.694  0.00  0.00    +0.013 C 
ATOM      7  C   UNL     1      -4.284   4.330  24.383  0.00  0.00    +0.013 C 
ENDBRANCH   8   5
BRANCH  11   3
ATOM      3  O   UNL     1      -3.531  -2.006  25.418  0.00  0.00    -0.376 OA
ATOM     14  C   UNL     1      -3.600  -2.976  24.383  0.00  0.00    +0.194 C 
ENDBRANCH  11   3
TORSDOF 2
ENDMDL
MODEL 10
REMARK VINA RESULT:      -4.5      1.679      4.227
REMARK  Name = 75536879
REMARK  3 active torsions:
REMARK  status: ('A' for Active; 'I' for Inactive)
REMARK    1  A    between atoms: O_3  and  C_11
REMARK    2  A    between atoms: O_3  and  C_14
REMARK    3  A    between atoms: C_5  and  C_8
REMARK                            x       y       z     vdW  Elec       q    Type
REMARK                         _______ _______ _______ _____ _____    ______ ____
ROOT
ATOM      1  O   UNL     1      -2.552  -1.020  23.982  0.00  0.00    -0.376 OA
ATOM      2  O   UNL     1       0.361   2.455  25.878  0.00  0.00    -0.275 OA
ATOM      4  N   UNL     1      -1.774   1.534  25.656  0.00  0.00    -0.297 N 
ATOM      8  C   UNL     1      -0.853   2.591  25.753  0.00  0.00    +0.219 C 
ATOM      9  C   UNL     1      -3.215   1.761  25.509  0.00  0.00    +0.141 C 
ATOM     10  C   UNL     1      -1.277   0.158  25.704  0.00  0.00    +0.136 C 
ATOM     11  C   UNL     1      -4.064   0.575  25.049  0.00  0.00    +0.161 C 
ATOM     12  C   UNL     1      -3.567  -0.049  23.747  0.00  0.00    +0.193 C 
ATOM     13  C   UNL     1      -1.280  -0.479  24.321  0.00  0.00    +0.179 C 
ENDROOT
BRANCH   8   5
ATOM      5  C   UNL     1      -1.397   3.984  25.681  0.00  0.00    +0.075 C 
ATOM      6  C   UNL     1      -0.714   4.965  24.790  0.00  0.00    +0.013 C 
ATOM      7  C   UNL     1      -2.061   4.419  24.419  0.00  0.00    +0.013 C 
ENDBRANCH   8   5
BRANCH  11   3
ATOM      3  O   UNL     1      -5.388   1.073  24.846  0.00  0.00    -0.376 OA
ATOM     14  C   UNL     1      -5.510   2.414  25.295  0.00  0.00    +0.194 C 
ENDBRANCH  11   3
TORSDOF 2
ENDMDL
