MODEL 1
REMARK VINA RESULT:       3.7      0.000      0.000
REMARK  Name = 26745236
REMARK  5 active torsions:
REMARK  status: ('A' for Active; 'I' for Inactive)
REMARK    1  A    between atoms: N_4  and  C_9
REMARK    2  A    between atoms: N_7  and  C_23
REMARK    3  A    between atoms: C_15  and  C_21
REMARK    4  A    between atoms: C_23  and  C_24
REMARK    5  A    between atoms: C_29  and  C_30
REMARK                            x       y       z     vdW  Elec       q    Type
REMARK                         _______ _______ _______ _____ _____    ______ ____
ROOT
ATOM      1  O   UNL     1      -0.284   1.215  26.474  0.00  0.00    -0.253 OA
ATOM      3  N   UNL     1      -1.858   0.037  25.218  0.00  0.00    -0.268 N 
ATOM      4  N   UNL     1      -2.114   2.349  25.670  0.00  0.00    -0.296 N 
ATOM      5  N   UNL     1      -4.786  -1.742  23.673  0.00  0.00    -0.347 N 
ATOM      6  N   UNL     1      -3.754  -3.604  24.349  0.00  0.00    -0.240 NA
ATOM     15  C   UNL     1      -0.986  -1.169  25.176  0.00  0.00    +0.170 C 
ATOM     16  C   UNL     1      -1.720  -2.509  25.383  0.00  0.00    +0.089 C 
ATOM     17  C   UNL     1      -3.138   0.036  24.450  0.00  0.00    +0.165 C 
ATOM     18  C   UNL     1      -1.343   1.202  25.837  0.00  0.00    +0.303 C 
ATOM     19  C   UNL     1      -3.630  -1.343  24.277  0.00  0.00    +0.056 A 
ATOM     20  C   UNL     1      -3.017  -2.502  24.678  0.00  0.00    +0.066 A 
ATOM     22  C   UNL     1      -4.816  -3.112  23.742  0.00  0.00    +0.197 A 
ATOM     31  H   UNL     1      -2.888   2.345  25.018  0.00  0.00    +0.151 HD
ATOM     32  H   UNL     1      -5.488  -1.147  23.254  0.00  0.00    +0.167 HD
ENDROOT
BRANCH   4   9
ATOM      9  C   UNL     1      -1.726   3.625  26.230  0.00  0.00    +0.074 C 
ATOM     10  C   UNL     1      -0.507   4.199  25.500  0.00  0.00    +0.022 C 
ATOM     11  C   UNL     1      -2.897   4.612  26.216  0.00  0.00    +0.022 C 
ATOM     12  C   UNL     1      -0.845   4.690  24.093  0.00  0.00    +0.002 C 
ATOM     13  C   UNL     1      -3.233   5.102  24.807  0.00  0.00    +0.002 C 
ATOM     14  C   UNL     1      -2.007   5.679  24.105  0.00  0.00    +0.000 C 
ENDBRANCH   4   9
BRANCH  15  21
ATOM      2  O   UNL     1      -0.402  -2.005  23.015  0.00  0.00    -0.274 OA
ATOM      7  N   UNL     1       0.513   0.013  23.726  0.00  0.00    -0.310 N 
ATOM     21  C   UNL     1      -0.279  -1.116  23.853  0.00  0.00    +0.234 C 
ATOM     33  H   UNL     1       0.528   0.699  24.476  0.00  0.00    +0.149 HD
BRANCH   7  23
ATOM     23  C   UNL     1       1.315   0.290  22.556  0.00  0.00    +0.139 C 
BRANCH  23  24
ATOM     24  C   UNL     1       2.784   0.161  22.839  0.00  0.00    -0.030 A 
ATOM     25  C   UNL     1       3.638   1.237  22.598  0.00  0.00    +0.006 A 
ATOM     26  C   UNL     1       3.294  -1.036  23.342  0.00  0.00    +0.006 A 
ATOM     27  C   UNL     1       5.002   1.117  22.861  0.00  0.00    +0.019 A 
ATOM     28  C   UNL     1       4.659  -1.156  23.604  0.00  0.00    +0.019 A 
ATOM     29  C   UNL     1       5.513  -0.080  23.364  0.00  0.00    +0.052 A 
BRANCH  29  30
ATOM      8  N   UNL     1       8.047  -0.301  23.852  0.00  0.00    -0.191 NA
ATOM     30  C   UNL     1       6.911  -0.202  23.633  0.00  0.00    +0.099 C 
ENDBRANCH  29  30
ENDBRANCH  23  24
ENDBRANCH   7  23
ENDBRANCH  15  21
TORSDOF 5
ENDMDL
MODEL 2
REMARK VINA RESULT:       5.3      2.304      7.660
REMARK  Name = 26745236
REMARK  5 active torsions:
REMARK  status: ('A' for Active; 'I' for Inactive)
REMARK    1  A    between atoms: N_4  and  C_9
REMARK    2  A    between atoms: N_7  and  C_23
REMARK    3  A    between atoms: C_15  and  C_21
REMARK    4  A    between atoms: C_23  and  C_24
REMARK    5  A    between atoms: C_29  and  C_30
REMARK                            x       y       z     vdW  Elec       q    Type
REMARK                         _______ _______ _______ _____ _____    ______ ____
ROOT
ATOM      1  O   UNL     1      -0.650  -0.513  26.348  0.00  0.00    -0.253 OA
ATOM      3  N   UNL     1       0.442  -0.133  24.323  0.00  0.00    -0.268 N 
ATOM      4  N   UNL     1      -1.306  -1.722  24.508  0.00  0.00    -0.296 N 
ATOM      5  N   UNL     1       2.409  -0.113  21.120  0.00  0.00    -0.347 N 
ATOM      6  N   UNL     1       3.918   1.045  22.289  0.00  0.00    -0.240 NA
ATOM     15  C   UNL     1       1.174   1.034  24.887  0.00  0.00    +0.170 C 
ATOM     16  C   UNL     1       2.660   1.126  24.484  0.00  0.00    +0.089 C 
ATOM     17  C   UNL     1       0.596  -0.456  22.873  0.00  0.00    +0.165 C 
ATOM     18  C   UNL     1      -0.514  -0.774  25.149  0.00  0.00    +0.303 C 
ATOM     19  C   UNL     1       1.893   0.035  22.374  0.00  0.00    +0.056 A 
ATOM     20  C   UNL     1       2.835   0.750  23.067  0.00  0.00    +0.066 A 
ATOM     22  C   UNL     1       3.630   0.512  21.119  0.00  0.00    +0.197 A 
ATOM     31  H   UNL     1      -1.279  -1.802  23.500  0.00  0.00    +0.151 HD
ATOM     32  H   UNL     1       1.978  -0.590  20.339  0.00  0.00    +0.167 HD
ENDROOT
BRANCH   4   9
ATOM      9  C   UNL     1      -2.336  -2.460  25.204  0.00  0.00    +0.074 C 
ATOM     10  C   UNL     1      -3.080  -1.563  26.200  0.00  0.00    +0.022 C 
ATOM     11  C   UNL     1      -3.306  -3.117  24.217  0.00  0.00    +0.022 C 
ATOM     12  C   UNL     1      -3.990  -0.550  25.507  0.00  0.00    +0.002 C 
ATOM     13  C   UNL     1      -4.216  -2.101  23.526  0.00  0.00    +0.002 C 
ATOM     14  C   UNL     1      -4.953  -1.228  24.537  0.00  0.00    +0.000 C 
ENDBRANCH   4   9
BRANCH  15  21
ATOM      2  O   UNL     1       0.620   2.812  23.389  0.00  0.00    -0.274 OA
ATOM      7  N   UNL     1      -0.533   2.636  25.403  0.00  0.00    -0.310 N 
ATOM     21  C   UNL     1       0.401   2.248  24.457  0.00  0.00    +0.234 C 
ATOM     33  H   UNL     1      -0.645   2.085  26.249  0.00  0.00    +0.149 HD
BRANCH   7  23
ATOM     23  C   UNL     1      -1.391   3.788  25.242  0.00  0.00    +0.139 C 
BRANCH  23  24
ATOM     24  C   UNL     1      -2.826   3.396  25.042  0.00  0.00    -0.030 A 
ATOM     25  C   UNL     1      -3.211   2.726  23.881  0.00  0.00    +0.006 A 
ATOM     26  C   UNL     1      -3.774   3.703  26.018  0.00  0.00    +0.006 A 
ATOM     27  C   UNL     1      -4.544   2.362  23.696  0.00  0.00    +0.019 A 
ATOM     28  C   UNL     1      -5.108   3.339  25.833  0.00  0.00    +0.019 A 
ATOM     29  C   UNL     1      -5.493   2.668  24.671  0.00  0.00    +0.052 A 
BRANCH  29  30
ATOM      8  N   UNL     1      -7.969   1.991  24.329  0.00  0.00    -0.191 NA
ATOM     30  C   UNL     1      -6.860   2.295  24.482  0.00  0.00    +0.099 C 
ENDBRANCH  29  30
ENDBRANCH  23  24
ENDBRANCH   7  23
ENDBRANCH  15  21
TORSDOF 5
ENDMDL
