MODEL 1
REMARK VINA RESULT:      11.9      0.000      0.000
REMARK  Name = 7135490
REMARK  8 active torsions:
REMARK  status: ('A' for Active; 'I' for Inactive)
REMARK    1  A    between atoms: O_5  and  C_25
REMARK    2  A    between atoms: C_14  and  C_15
REMARK    3  A    between atoms: C_14  and  C_19
REMARK    4  A    between atoms: C_14  and  C_20
REMARK    5  A    between atoms: C_14  and  C_21
REMARK    6  A    between atoms: C_15  and  C_16
REMARK    7  A    between atoms: C_19  and  C_25
REMARK    8  A    between atoms: C_27  and  C_29
REMARK                            x       y       z     vdW  Elec       q    Type
REMARK                         _______ _______ _______ _____ _____    ______ ____
ROOT
ATOM      2  O   UNL     1      -6.340   0.830  25.728  0.00  0.00    -0.276 OA
ATOM      3  O   UNL     1      -3.631   1.424  22.919  0.00  0.00    -0.273 OA
ATOM      4  O   UNL     1       0.745   2.644  25.627  0.00  0.00    -0.270 OA
ATOM      7  N   UNL     1      -4.246   1.837  25.818  0.00  0.00    -0.298 N 
ATOM      8  N   UNL     1      -1.389   1.811  25.305  0.00  0.00    -0.283 N 
ATOM      9  N   UNL     1      -1.442   1.008  22.458  0.00  0.00    -0.283 N 
ATOM     10  C   UNL     1      -2.243   0.756  24.777  0.00  0.00    +0.180 C 
ATOM     11  C   UNL     1      -3.532   0.577  25.589  0.00  0.00    +0.139 C 
ATOM     12  C   UNL     1      -3.426   3.040  25.984  0.00  0.00    +0.127 C 
ATOM     13  C   UNL     1      -1.974   2.714  26.298  0.00  0.00    +0.128 C 
ATOM     16  C   UNL     1      -5.641   1.837  25.867  0.00  0.00    +0.216 C 
ATOM     17  C   UNL     1      -2.507   1.123  23.325  0.00  0.00    +0.239 C 
ATOM     18  C   UNL     1      -0.025   1.881  25.041  0.00  0.00    +0.249 C 
ATOM     22  C   UNL     1       0.548   1.015  23.976  0.00  0.00    +0.059 A 
ATOM     23  C   UNL     1      -0.095   0.721  22.763  0.00  0.00    +0.046 A 
ATOM     24  C   UNL     1       1.890   0.631  24.155  0.00  0.00    +0.023 A 
ATOM     26  C   UNL     1       0.643   0.114  21.731  0.00  0.00    +0.024 A 
ATOM     27  C   UNL     1       2.593  -0.015  23.137  0.00  0.00    -0.014 A 
ATOM     28  C   UNL     1       1.973  -0.261  21.920  0.00  0.00    +0.010 A 
ATOM     35  H   UNL     1      -1.678   1.039  21.469  0.00  0.00    +0.155 HD
ENDROOT
BRANCH  27  29
ATOM      1  F   UNL     1       4.731   1.754  22.699  0.00  0.00    -0.205 F 
ATOM     29  C   UNL     1       3.971  -0.405  23.341  0.00  0.00    +0.017 A 
ATOM     30  C   UNL     1       5.001   0.508  23.110  0.00  0.00    +0.131 A 
ATOM     31  C   UNL     1       4.269  -1.699  23.771  0.00  0.00    +0.011 A 
ATOM     32  C   UNL     1       6.328   0.126  23.309  0.00  0.00    +0.039 A 
ATOM     33  C   UNL     1       5.596  -2.080  23.969  0.00  0.00    +0.001 A 
ATOM     34  C   UNL     1       6.626  -1.168  23.737  0.00  0.00    +0.003 A 
ENDBRANCH  27  29
BRANCH  16  15
ATOM     15  C   UNL     1      -6.298   3.174  26.112  0.00  0.00    +0.103 C 
BRANCH  15  14
ATOM     14  C   UNL     1      -5.586   4.332  25.384  0.00  0.00    -0.017 C 
ATOM     20  C   UNL     1      -4.493   4.876  26.327  0.00  0.00    +0.012 C 
ATOM     21  C   UNL     1      -6.583   5.479  25.113  0.00  0.00    +0.012 C 
BRANCH  14  19
ATOM     19  C   UNL     1      -4.965   3.907  24.031  0.00  0.00    +0.127 C 
BRANCH  19  25
ATOM      6  O   UNL     1      -4.074   5.976  23.148  0.00  0.00    -0.251 OA
ATOM     25  C   UNL     1      -3.879   4.825  23.517  0.00  0.00    +0.305 C 
BRANCH  25   5
ATOM      5  O   UNL     1      -2.656   4.239  23.499  0.00  0.00    -0.481 OA
ATOM     36  H   UNL     1      -1.989   4.768  23.985  0.00  0.00    +0.295 HD
ENDBRANCH  25   5
ENDBRANCH  19  25
ENDBRANCH  14  19
ENDBRANCH  15  14
ENDBRANCH  16  15
TORSDOF 6
ENDMDL
MODEL 2
REMARK VINA RESULT:      13.9      2.111      3.521
REMARK  Name = 7135490
REMARK  8 active torsions:
REMARK  status: ('A' for Active; 'I' for Inactive)
REMARK    1  A    between atoms: O_5  and  C_25
REMARK    2  A    between atoms: C_14  and  C_15
REMARK    3  A    between atoms: C_14  and  C_19
REMARK    4  A    between atoms: C_14  and  C_20
REMARK    5  A    between atoms: C_14  and  C_21
REMARK    6  A    between atoms: C_15  and  C_16
REMARK    7  A    between atoms: C_19  and  C_25
REMARK    8  A    between atoms: C_27  and  C_29
REMARK                            x       y       z     vdW  Elec       q    Type
REMARK                         _______ _______ _______ _____ _____    ______ ____
ROOT
ATOM      2  O   UNL     1      -3.286   0.726  26.134  0.00  0.00    -0.276 OA
ATOM      3  O   UNL     1      -0.742  -0.990  23.651  0.00  0.00    -0.273 OA
ATOM      4  O   UNL     1       2.838   2.787  22.706  0.00  0.00    -0.270 OA
ATOM      7  N   UNL     1      -1.634   1.636  24.775  0.00  0.00    -0.298 N 
ATOM      8  N   UNL     1       1.107   1.735  23.823  0.00  0.00    -0.283 N 
ATOM      9  N   UNL     1       1.489  -1.139  23.229  0.00  0.00    -0.283 N 
ATOM     10  C   UNL     1       0.670   0.660  24.704  0.00  0.00    +0.180 C 
ATOM     11  C   UNL     1      -0.541   1.053  25.559  0.00  0.00    +0.139 C 
ATOM     12  C   UNL     1      -1.255   2.443  23.612  0.00  0.00    +0.127 C 
ATOM     13  C   UNL     1       0.204   2.874  23.655  0.00  0.00    +0.128 C 
ATOM     16  C   UNL     1      -2.956   1.403  25.158  0.00  0.00    +0.216 C 
ATOM     17  C   UNL     1       0.392  -0.531  23.801  0.00  0.00    +0.239 C 
ATOM     18  C   UNL     1       2.390   1.799  23.290  0.00  0.00    +0.249 C 
ATOM     22  C   UNL     1       3.275   0.607  23.397  0.00  0.00    +0.059 A 
ATOM     23  C   UNL     1       2.836  -0.719  23.263  0.00  0.00    +0.046 A 
ATOM     24  C   UNL     1       4.655   0.873  23.457  0.00  0.00    +0.023 A 
ATOM     26  C   UNL     1       3.791  -1.742  23.120  0.00  0.00    +0.024 A 
ATOM     27  C   UNL     1       5.589  -0.159  23.364  0.00  0.00    -0.014 A 
ATOM     28  C   UNL     1       5.157  -1.466  23.182  0.00  0.00    +0.010 A 
ATOM     35  H   UNL     1       1.317  -2.051  22.816  0.00  0.00    +0.155 HD
ENDROOT
BRANCH  27  29
ATOM      1  F   UNL     1       7.511  -1.748  22.069  0.00  0.00    -0.205 F 
ATOM     29  C   UNL     1       7.004   0.134  23.432  0.00  0.00    +0.017 A 
ATOM     30  C   UNL     1       7.923  -0.684  22.773  0.00  0.00    +0.131 A 
ATOM     31  C   UNL     1       7.450   1.238  24.159  0.00  0.00    +0.011 A 
ATOM     32  C   UNL     1       9.287  -0.397  22.841  0.00  0.00    +0.039 A 
ATOM     33  C   UNL     1       8.814   1.524  24.227  0.00  0.00    +0.001 A 
ATOM     34  C   UNL     1       9.732   0.707  23.569  0.00  0.00    +0.003 A 
ENDBRANCH  27  29
BRANCH  16  15
ATOM     15  C   UNL     1      -4.020   2.044  24.299  0.00  0.00    +0.103 C 
BRANCH  15  14
ATOM     14  C   UNL     1      -4.360   3.481  24.740  0.00  0.00    -0.017 C 
ATOM     20  C   UNL     1      -4.271   4.387  23.495  0.00  0.00    +0.012 C 
ATOM     21  C   UNL     1      -3.315   3.983  25.759  0.00  0.00    +0.012 C 
BRANCH  14  19
ATOM     19  C   UNL     1      -5.760   3.599  25.392  0.00  0.00    +0.127 C 
BRANCH  19  25
ATOM      6  O   UNL     1      -6.895   1.551  24.779  0.00  0.00    -0.251 OA
ATOM     25  C   UNL     1      -6.447   2.278  25.657  0.00  0.00    +0.305 C 
BRANCH  25   5
ATOM      5  O   UNL     1      -6.523   1.978  26.977  0.00  0.00    -0.481 OA
ATOM     36  H   UNL     1      -6.057   2.639  27.531  0.00  0.00    +0.295 HD
ENDBRANCH  25   5
ENDBRANCH  19  25
ENDBRANCH  14  19
ENDBRANCH  15  14
ENDBRANCH  16  15
TORSDOF 6
ENDMDL
MODEL 3
REMARK VINA RESULT:      14.6      2.029      3.078
REMARK  Name = 7135490
REMARK  8 active torsions:
REMARK  status: ('A' for Active; 'I' for Inactive)
REMARK    1  A    between atoms: O_5  and  C_25
REMARK    2  A    between atoms: C_14  and  C_15
REMARK    3  A    between atoms: C_14  and  C_19
REMARK    4  A    between atoms: C_14  and  C_20
REMARK    5  A    between atoms: C_14  and  C_21
REMARK    6  A    between atoms: C_15  and  C_16
REMARK    7  A    between atoms: C_19  and  C_25
REMARK    8  A    between atoms: C_27  and  C_29
REMARK                            x       y       z     vdW  Elec       q    Type
REMARK                         _______ _______ _______ _____ _____    ______ ____
ROOT
ATOM      2  O   UNL     1      -3.701   0.180  26.153  0.00  0.00    -0.276 OA
ATOM      3  O   UNL     1      -1.017  -1.334  23.685  0.00  0.00    -0.273 OA
ATOM      4  O   UNL     1       2.293   2.695  22.797  0.00  0.00    -0.270 OA
ATOM      7  N   UNL     1      -2.105   1.215  24.814  0.00  0.00    -0.298 N 
ATOM      8  N   UNL     1       0.630   1.515  23.891  0.00  0.00    -0.283 N 
ATOM      9  N   UNL     1       1.223  -1.320  23.285  0.00  0.00    -0.283 N 
ATOM     10  C   UNL     1       0.263   0.406  24.761  0.00  0.00    +0.180 C 
ATOM     11  C   UNL     1      -0.981   0.706  25.606  0.00  0.00    +0.139 C 
ATOM     12  C   UNL     1      -1.773   2.054  23.660  0.00  0.00    +0.127 C 
ATOM     13  C   UNL     1      -0.350   2.588  23.721  0.00  0.00    +0.128 C 
ATOM     16  C   UNL     1      -3.411   0.885  25.183  0.00  0.00    +0.216 C 
ATOM     17  C   UNL     1       0.079  -0.796  23.849  0.00  0.00    +0.239 C 
ATOM     18  C   UNL     1       1.911   1.673  23.371  0.00  0.00    +0.249 C 
ATOM     22  C   UNL     1       2.878   0.548  23.480  0.00  0.00    +0.059 A 
ATOM     23  C   UNL     1       2.536  -0.806  23.334  0.00  0.00    +0.046 A 
ATOM     24  C   UNL     1       4.235   0.911  23.556  0.00  0.00    +0.023 A 
ATOM     26  C   UNL     1       3.563  -1.757  23.196  0.00  0.00    +0.024 A 
ATOM     27  C   UNL     1       5.241  -0.051  23.466  0.00  0.00    -0.014 A 
ATOM     28  C   UNL     1       4.905  -1.384  23.273  0.00  0.00    +0.010 A 
ATOM     35  H   UNL     1       1.120  -2.240  22.865  0.00  0.00    +0.155 HD
ENDROOT
BRANCH  27  29
ATOM      1  F   UNL     1       7.295  -1.550  22.272  0.00  0.00    -0.205 F 
ATOM     29  C   UNL     1       6.631   0.342  23.550  0.00  0.00    +0.017 A 
ATOM     30  C   UNL     1       7.617  -0.435  22.942  0.00  0.00    +0.131 A 
ATOM     31  C   UNL     1       6.983   1.501  24.242  0.00  0.00    +0.011 A 
ATOM     32  C   UNL     1       8.957  -0.051  23.025  0.00  0.00    +0.039 A 
ATOM     33  C   UNL     1       8.322   1.883  24.325  0.00  0.00    +0.001 A 
ATOM     34  C   UNL     1       9.309   1.107  23.718  0.00  0.00    +0.003 A 
ENDBRANCH  27  29
BRANCH  16  15
ATOM     15  C   UNL     1      -4.510   1.453  24.317  0.00  0.00    +0.103 C 
BRANCH  15  14
ATOM     14  C   UNL     1      -5.680   2.031  25.138  0.00  0.00    -0.017 C 
ATOM     20  C   UNL     1      -5.850   1.151  26.393  0.00  0.00    +0.012 C 
ATOM     21  C   UNL     1      -6.990   1.944  24.325  0.00  0.00    +0.012 C 
BRANCH  14  19
ATOM     19  C   UNL     1      -5.464   3.509  25.543  0.00  0.00    +0.127 C 
BRANCH  19  25
ATOM      6  O   UNL     1      -3.799   4.441  24.054  0.00  0.00    -0.251 OA
ATOM     25  C   UNL     1      -4.108   4.072  25.180  0.00  0.00    +0.305 C 
BRANCH  25   5
ATOM      5  O   UNL     1      -3.257   4.123  26.235  0.00  0.00    -0.481 OA
ATOM     36  H   UNL     1      -3.686   3.828  27.066  0.00  0.00    +0.295 HD
ENDBRANCH  25   5
ENDBRANCH  19  25
ENDBRANCH  14  19
ENDBRANCH  15  14
ENDBRANCH  16  15
TORSDOF 6
ENDMDL
MODEL 4
REMARK VINA RESULT:      14.7     14.910     18.348
REMARK  Name = 7135490
REMARK  8 active torsions:
REMARK  status: ('A' for Active; 'I' for Inactive)
REMARK    1  A    between atoms: O_5  and  C_25
REMARK    2  A    between atoms: C_14  and  C_15
REMARK    3  A    between atoms: C_14  and  C_19
REMARK    4  A    between atoms: C_14  and  C_20
REMARK    5  A    between atoms: C_14  and  C_21
REMARK    6  A    between atoms: C_15  and  C_16
REMARK    7  A    between atoms: C_19  and  C_25
REMARK    8  A    between atoms: C_27  and  C_29
REMARK                            x       y       z     vdW  Elec       q    Type
REMARK                         _______ _______ _______ _____ _____    ______ ____
ROOT
ATOM      2  O   UNL     1       2.720  -5.905  11.710  0.00  0.00    -0.276 OA
ATOM      3  O   UNL     1       0.656  -9.039  10.486  0.00  0.00    -0.273 OA
ATOM      4  O   UNL     1      -2.649 -10.016  14.499  0.00  0.00    -0.270 OA
ATOM      7  N   UNL     1       1.356  -7.382  12.878  0.00  0.00    -0.298 N 
ATOM      8  N   UNL     1      -1.163  -8.783  13.225  0.00  0.00    -0.283 N 
ATOM      9  N   UNL     1      -1.462  -9.871  10.489  0.00  0.00    -0.283 N 
ATOM     10  C   UNL     1      -0.907  -8.014  12.014  0.00  0.00    +0.180 C 
ATOM     11  C   UNL     1       0.132  -6.906  12.227  0.00  0.00    +0.139 C 
ATOM     12  C   UNL     1       1.205  -8.455  13.864  0.00  0.00    +0.127 C 
ATOM     13  C   UNL     1      -0.232  -8.608  14.340  0.00  0.00    +0.128 C 
ATOM     16  C   UNL     1       2.583  -6.809  12.539  0.00  0.00    +0.216 C 
ATOM     17  C   UNL     1      -0.481  -9.026  10.961  0.00  0.00    +0.239 C 
ATOM     18  C   UNL     1      -2.326  -9.521  13.418  0.00  0.00    +0.249 C 
ATOM     22  C   UNL     1      -3.229  -9.759  12.259  0.00  0.00    +0.059 A 
ATOM     23  C   UNL     1      -2.787 -10.016  10.952  0.00  0.00    +0.046 A 
ATOM     24  C   UNL     1      -4.594  -9.907  12.567  0.00  0.00    +0.023 A 
ATOM     26  C   UNL     1      -3.711 -10.483  10.000  0.00  0.00    +0.024 A 
ATOM     27  C   UNL     1      -5.506 -10.325  11.598  0.00  0.00    -0.014 A 
ATOM     28  C   UNL     1      -5.062 -10.625  10.317  0.00  0.00    +0.010 A 
ATOM     35  H   UNL     1      -1.227 -10.383   9.643  0.00  0.00    +0.155 HD
ENDROOT
BRANCH  27  29
ATOM      1  F   UNL     1      -7.525 -10.263   9.645  0.00  0.00    -0.205 F 
ATOM     29  C   UNL     1      -6.907 -10.467  11.932  0.00  0.00    +0.017 A 
ATOM     30  C   UNL     1      -7.875 -10.430  10.928  0.00  0.00    +0.131 A 
ATOM     31  C   UNL     1      -7.288 -10.643  13.263  0.00  0.00    +0.011 A 
ATOM     32  C   UNL     1      -9.224 -10.568  11.256  0.00  0.00    +0.039 A 
ATOM     33  C   UNL     1      -8.637 -10.780  13.590  0.00  0.00    +0.001 A 
ATOM     34  C   UNL     1      -9.605 -10.743  12.587  0.00  0.00    +0.003 A 
ENDBRANCH  27  29
BRANCH  16  15
ATOM     15  C   UNL     1       3.793  -7.354  13.258  0.00  0.00    +0.103 C 
BRANCH  15  14
ATOM     14  C   UNL     1       5.059  -6.504  13.028  0.00  0.00    -0.017 C 
ATOM     20  C   UNL     1       6.131  -6.980  14.029  0.00  0.00    +0.012 C 
ATOM     21  C   UNL     1       4.762  -5.020  13.332  0.00  0.00    +0.012 C 
BRANCH  14  19
ATOM     19  C   UNL     1       5.597  -6.599  11.579  0.00  0.00    +0.127 C 
BRANCH  19  25
ATOM      6  O   UNL     1       6.314  -8.906  11.724  0.00  0.00    -0.251 OA
ATOM     25  C   UNL     1       6.523  -7.767  11.324  0.00  0.00    +0.305 C 
BRANCH  25   5
ATOM      5  O   UNL     1       7.622  -7.423  10.608  0.00  0.00    -0.481 OA
ATOM     36  H   UNL     1       7.547  -6.522  10.232  0.00  0.00    +0.295 HD
ENDBRANCH  25   5
ENDBRANCH  19  25
ENDBRANCH  14  19
ENDBRANCH  15  14
ENDBRANCH  16  15
TORSDOF 6
ENDMDL
MODEL 5
REMARK VINA RESULT:      15.1      1.694      2.353
REMARK  Name = 7135490
REMARK  8 active torsions:
REMARK  status: ('A' for Active; 'I' for Inactive)
REMARK    1  A    between atoms: O_5  and  C_25
REMARK    2  A    between atoms: C_14  and  C_15
REMARK    3  A    between atoms: C_14  and  C_19
REMARK    4  A    between atoms: C_14  and  C_20
REMARK    5  A    between atoms: C_14  and  C_21
REMARK    6  A    between atoms: C_15  and  C_16
REMARK    7  A    between atoms: C_19  and  C_25
REMARK    8  A    between atoms: C_27  and  C_29
REMARK                            x       y       z     vdW  Elec       q    Type
REMARK                         _______ _______ _______ _____ _____    ______ ____
ROOT
ATOM      2  O   UNL     1      -4.343   3.681  28.041  0.00  0.00    -0.276 OA
ATOM      3  O   UNL     1      -3.184   1.261  25.145  0.00  0.00    -0.273 OA
ATOM      4  O   UNL     1       1.259   3.493  23.341  0.00  0.00    -0.270 OA
ATOM      7  N   UNL     1      -2.791   3.979  26.335  0.00  0.00    -0.298 N 
ATOM      8  N   UNL     1      -0.468   3.104  24.831  0.00  0.00    -0.283 N 
ATOM      9  N   UNL     1      -1.303   0.321  24.274  0.00  0.00    -0.283 N 
ATOM     10  C   UNL     1      -1.078   2.228  25.821  0.00  0.00    +0.180 C 
ATOM     11  C   UNL     1      -1.854   3.000  26.895  0.00  0.00    +0.139 C 
ATOM     12  C   UNL     1      -2.390   4.640  25.090  0.00  0.00    +0.127 C 
ATOM     13  C   UNL     1      -0.900   4.502  24.814  0.00  0.00    +0.128 C 
ATOM     16  C   UNL     1      -3.996   4.232  26.993  0.00  0.00    +0.216 C 
ATOM     17  C   UNL     1      -1.956   1.263  25.039  0.00  0.00    +0.239 C 
ATOM     18  C   UNL     1       0.609   2.715  24.040  0.00  0.00    +0.249 C 
ATOM     22  C   UNL     1       0.994   1.278  24.003  0.00  0.00    +0.059 A 
ATOM     23  C   UNL     1       0.079   0.213  24.011  0.00  0.00    +0.046 A 
ATOM     24  C   UNL     1       2.355   1.014  23.765  0.00  0.00    +0.023 A 
ATOM     26  C   UNL     1       0.538  -1.082  23.710  0.00  0.00    +0.024 A 
ATOM     27  C   UNL     1       2.801  -0.284  23.517  0.00  0.00    -0.014 A 
ATOM     28  C   UNL     1       1.890  -1.330  23.476  0.00  0.00    +0.010 A 
ATOM     35  H   UNL     1      -1.882  -0.446  23.938  0.00  0.00    +0.155 HD
ENDROOT
BRANCH  27  29
ATOM      1  F   UNL     1       4.318   1.264  21.728  0.00  0.00    -0.205 F 
ATOM     29  C   UNL     1       4.206  -0.536  23.278  0.00  0.00    +0.017 A 
ATOM     30  C   UNL     1       4.919   0.259  22.380  0.00  0.00    +0.131 A 
ATOM     31  C   UNL     1       4.848  -1.577  23.950  0.00  0.00    +0.011 A 
ATOM     32  C   UNL     1       6.274   0.012  22.154  0.00  0.00    +0.039 A 
ATOM     33  C   UNL     1       6.202  -1.823  23.723  0.00  0.00    +0.001 A 
ATOM     34  C   UNL     1       6.915  -1.030  22.825  0.00  0.00    +0.003 A 
ENDBRANCH  27  29
BRANCH  16  15
ATOM     15  C   UNL     1      -4.901   5.256  26.352  0.00  0.00    +0.103 C 
BRANCH  15  14
ATOM     14  C   UNL     1      -5.840   4.645  25.292  0.00  0.00    -0.017 C 
ATOM     20  C   UNL     1      -4.961   4.096  24.150  0.00  0.00    +0.012 C 
ATOM     21  C   UNL     1      -6.750   5.740  24.697  0.00  0.00    +0.012 C 
BRANCH  14  19
ATOM     19  C   UNL     1      -6.745   3.524  25.859  0.00  0.00    +0.127 C 
BRANCH  19  25
ATOM      6  O   UNL     1      -6.732   1.628  24.355  0.00  0.00    -0.251 OA
ATOM     25  C   UNL     1      -6.375   2.127  25.415  0.00  0.00    +0.305 C 
BRANCH  25   5
ATOM      5  O   UNL     1      -5.606   1.471  26.319  0.00  0.00    -0.481 OA
ATOM     36  H   UNL     1      -4.702   1.846  26.372  0.00  0.00    +0.295 HD
ENDBRANCH  25   5
ENDBRANCH  19  25
ENDBRANCH  14  19
ENDBRANCH  15  14
ENDBRANCH  16  15
TORSDOF 6
ENDMDL
