MODEL 1
REMARK VINA RESULT:      -0.4      0.000      0.000
REMARK  Name = 86768986
REMARK  9 active torsions:
REMARK  status: ('A' for Active; 'I' for Inactive)
REMARK    1  A    between atoms: O_1  and  C_10
REMARK    2  A    between atoms: O_2  and  C_12
REMARK    3  A    between atoms: O_4  and  C_26
REMARK    4  A    between atoms: O_4  and  C_29
REMARK    5  A    between atoms: N_5  and  C_9
REMARK    6  A    between atoms: N_5  and  C_14
REMARK    7  A    between atoms: N_7  and  C_19
REMARK    8  A    between atoms: C_8  and  C_13
REMARK    9  A    between atoms: C_14  and  C_18
REMARK                            x       y       z     vdW  Elec       q    Type
REMARK                         _______ _______ _______ _____ _____    ______ ____
ROOT
ATOM      8  C   UNL     1      -2.526   2.837  24.998  0.00  0.00    +0.042 C 
ATOM      9  C   UNL     1      -3.763   2.162  24.329  0.00  0.00    +0.093 C 
ATOM     10  C   UNL     1      -4.501   3.302  23.611  0.00  0.00    +0.160 C 
ATOM     11  C   UNL     1      -2.622   4.334  24.647  0.00  0.00    +0.043 C 
ATOM     12  C   UNL     1      -4.107   4.550  24.395  0.00  0.00    +0.145 C 
ENDROOT
BRANCH   8  13
ATOM      6  N   UNL     1       1.167   1.971  25.038  0.00  0.00    -0.240 NA
ATOM     13  C   UNL     1      -1.200   2.217  24.612  0.00  0.00    -0.024 A 
ATOM     15  C   UNL     1      -1.100   1.359  23.521  0.00  0.00    +0.009 A 
ATOM     16  C   UNL     1      -0.046   2.488  25.330  0.00  0.00    +0.116 A 
ATOM     17  C   UNL     1       0.132   0.807  23.189  0.00  0.00    +0.044 A 
ATOM     19  C   UNL     1       1.225   1.141  23.972  0.00  0.00    +0.121 A 
BRANCH  19   7
ATOM      3  O   UNL     1       4.854  -0.531  22.662  0.00  0.00    -0.377 OA
ATOM      7  N   UNL     1       2.457   0.578  23.625  0.00  0.00    -0.311 N 
ATOM     20  C   UNL     1       3.420   1.411  22.892  0.00  0.00    +0.134 C 
ATOM     21  C   UNL     1       2.556  -0.863  23.368  0.00  0.00    +0.134 C 
ATOM     24  C   UNL     1       4.824   0.841  23.054  0.00  0.00    +0.178 C 
ATOM     25  C   UNL     1       4.008  -1.312  23.505  0.00  0.00    +0.178 C 
ENDBRANCH  19   7
ENDBRANCH   8  13
BRANCH  10   1
ATOM      1  O   UNL     1      -4.020   3.375  22.270  0.00  0.00    -0.388 OA
ATOM     31  H   UNL     1      -3.477   4.179  22.197  0.00  0.00    +0.210 HD
ENDBRANCH  10   1
BRANCH  12   2
ATOM      2  O   UNL     1      -4.341   5.742  23.674  0.00  0.00    -0.389 OA
ATOM     32  H   UNL     1      -4.193   5.548  22.732  0.00  0.00    +0.210 HD
ENDBRANCH  12   2
BRANCH   9   5
ATOM      5  N   UNL     1      -4.624   1.583  25.362  0.00  0.00    -0.306 NA
ATOM     30  H   UNL     1      -5.381   2.234  25.570  0.00  0.00    +0.123 HD
BRANCH   5  14
ATOM     14  C   UNL     1      -5.202   0.325  24.911  0.00  0.00    +0.116 C 
BRANCH  14  18
ATOM     18  C   UNL     1      -4.155  -0.745  24.747  0.00  0.00    -0.030 A 
ATOM     22  C   UNL     1      -2.919  -0.613  25.379  0.00  0.00    +0.050 A 
ATOM     23  C   UNL     1      -4.422  -1.868  23.962  0.00  0.00    +0.005 A 
ATOM     26  C   UNL     1      -1.949  -1.603  25.227  0.00  0.00    +0.120 A 
ATOM     27  C   UNL     1      -3.451  -2.857  23.809  0.00  0.00    +0.004 A 
ATOM     28  C   UNL     1      -2.215  -2.725  24.442  0.00  0.00    +0.045 A 
BRANCH  26   4
ATOM      4  O   UNL     1      -0.742  -1.474  25.842  0.00  0.00    -0.495 OA
ATOM     29  C   UNL     1       0.262  -2.432  25.508  0.00  0.00    +0.277 C 
ENDBRANCH  26   4
ENDBRANCH  14  18
ENDBRANCH   5  14
ENDBRANCH   9   5
TORSDOF 8
ENDMDL
MODEL 2
REMARK VINA RESULT:       0.3      2.249      4.307
REMARK  Name = 86768986
REMARK  9 active torsions:
REMARK  status: ('A' for Active; 'I' for Inactive)
REMARK    1  A    between atoms: O_1  and  C_10
REMARK    2  A    between atoms: O_2  and  C_12
REMARK    3  A    between atoms: O_4  and  C_26
REMARK    4  A    between atoms: O_4  and  C_29
REMARK    5  A    between atoms: N_5  and  C_9
REMARK    6  A    between atoms: N_5  and  C_14
REMARK    7  A    between atoms: N_7  and  C_19
REMARK    8  A    between atoms: C_8  and  C_13
REMARK    9  A    between atoms: C_14  and  C_18
REMARK                            x       y       z     vdW  Elec       q    Type
REMARK                         _______ _______ _______ _____ _____    ______ ____
ROOT
ATOM      8  C   UNL     1      -2.775   0.149  23.534  0.00  0.00    +0.042 C 
ATOM      9  C   UNL     1      -3.382   0.620  24.892  0.00  0.00    +0.093 C 
ATOM     10  C   UNL     1      -4.318  -0.519  25.326  0.00  0.00    +0.160 C 
ATOM     11  C   UNL     1      -3.403  -1.227  23.245  0.00  0.00    +0.043 C 
ATOM     12  C   UNL     1      -4.715  -1.192  24.016  0.00  0.00    +0.145 C 
ENDROOT
BRANCH   8  13
ATOM      6  N   UNL     1       0.796  -1.094  23.839  0.00  0.00    -0.240 NA
ATOM     13  C   UNL     1      -1.261   0.132  23.508  0.00  0.00    -0.024 A 
ATOM     15  C   UNL     1      -0.538   1.266  23.153  0.00  0.00    +0.009 A 
ATOM     16  C   UNL     1      -0.553  -1.012  23.840  0.00  0.00    +0.116 A 
ATOM     17  C   UNL     1       0.853   1.219  23.141  0.00  0.00    +0.044 A 
ATOM     19  C   UNL     1       1.465   0.027  23.489  0.00  0.00    +0.121 A 
BRANCH  19   7
ATOM      3  O   UNL     1       5.656  -0.123  23.167  0.00  0.00    -0.377 OA
ATOM      7  N   UNL     1       2.864  -0.003  23.472  0.00  0.00    -0.311 N 
ATOM     20  C   UNL     1       3.571   1.021  22.689  0.00  0.00    +0.134 C 
ATOM     21  C   UNL     1       3.569  -1.281  23.609  0.00  0.00    +0.134 C 
ATOM     24  C   UNL     1       5.006   1.148  23.185  0.00  0.00    +0.178 C 
ATOM     25  C   UNL     1       5.006  -1.031  24.056  0.00  0.00    +0.178 C 
ENDBRANCH  19   7
ENDBRANCH   8  13
BRANCH  10   1
ATOM      1  O   UNL     1      -3.580  -1.417  26.153  0.00  0.00    -0.388 OA
ATOM     31  H   UNL     1      -4.124  -1.607  26.936  0.00  0.00    +0.210 HD
ENDBRANCH  10   1
BRANCH  12   2
ATOM      2  O   UNL     1      -5.236  -2.491  24.208  0.00  0.00    -0.389 OA
ATOM     32  H   UNL     1      -4.486  -3.112  24.195  0.00  0.00    +0.210 HD
ENDBRANCH  12   2
BRANCH   9   5
ATOM      5  N   UNL     1      -4.153   1.847  24.685  0.00  0.00    -0.306 NA
ATOM     30  H   UNL     1      -5.148   1.629  24.729  0.00  0.00    +0.123 HD
BRANCH   5  14
ATOM     14  C   UNL     1      -3.846   2.831  25.714  0.00  0.00    +0.116 C 
BRANCH  14  18
ATOM     18  C   UNL     1      -2.449   3.375  25.571  0.00  0.00    -0.030 A 
ATOM     22  C   UNL     1      -1.377   2.706  26.161  0.00  0.00    +0.050 A 
ATOM     23  C   UNL     1      -2.227   4.548  24.849  0.00  0.00    +0.005 A 
ATOM     26  C   UNL     1      -0.083   3.209  26.030  0.00  0.00    +0.120 A 
ATOM     27  C   UNL     1      -0.933   5.052  24.719  0.00  0.00    +0.004 A 
ATOM     28  C   UNL     1       0.138   4.382  25.308  0.00  0.00    +0.045 A 
BRANCH  26   4
ATOM      4  O   UNL     1       0.962   2.557  26.606  0.00  0.00    -0.495 OA
ATOM     29  C   UNL     1       0.977   2.487  28.032  0.00  0.00    +0.277 C 
ENDBRANCH  26   4
ENDBRANCH  14  18
ENDBRANCH   5  14
ENDBRANCH   9   5
TORSDOF 8
ENDMDL
MODEL 3
REMARK VINA RESULT:       1.5      1.824      4.604
REMARK  Name = 86768986
REMARK  9 active torsions:
REMARK  status: ('A' for Active; 'I' for Inactive)
REMARK    1  A    between atoms: O_1  and  C_10
REMARK    2  A    between atoms: O_2  and  C_12
REMARK    3  A    between atoms: O_4  and  C_26
REMARK    4  A    between atoms: O_4  and  C_29
REMARK    5  A    between atoms: N_5  and  C_9
REMARK    6  A    between atoms: N_5  and  C_14
REMARK    7  A    between atoms: N_7  and  C_19
REMARK    8  A    between atoms: C_8  and  C_13
REMARK    9  A    between atoms: C_14  and  C_18
REMARK                            x       y       z     vdW  Elec       q    Type
REMARK                         _______ _______ _______ _____ _____    ______ ____
ROOT
ATOM      8  C   UNL     1      -2.196  -1.269  23.538  0.00  0.00    +0.042 C 
ATOM      9  C   UNL     1      -2.988  -0.343  24.513  0.00  0.00    +0.093 C 
ATOM     10  C   UNL     1      -3.747  -1.301  25.445  0.00  0.00    +0.160 C 
ATOM     11  C   UNL     1      -2.551  -2.712  23.945  0.00  0.00    +0.043 C 
ATOM     12  C   UNL     1      -3.909  -2.572  24.617  0.00  0.00    +0.145 C 
ENDROOT
BRANCH   8  13
ATOM      6  N   UNL     1       1.465  -1.314  24.531  0.00  0.00    -0.240 NA
ATOM     13  C   UNL     1      -0.706  -1.005  23.512  0.00  0.00    -0.024 A 
ATOM     15  C   UNL     1      -0.131  -0.242  22.501  0.00  0.00    +0.009 A 
ATOM     16  C   UNL     1       0.129  -1.513  24.494  0.00  0.00    +0.116 A 
ATOM     17  C   UNL     1       1.242  -0.015  22.505  0.00  0.00    +0.044 A 
ATOM     19  C   UNL     1       1.988  -0.567  23.532  0.00  0.00    +0.121 A 
BRANCH  19   7
ATOM      3  O   UNL     1       6.135   0.063  23.236  0.00  0.00    -0.377 OA
ATOM      7  N   UNL     1       3.366  -0.330  23.522  0.00  0.00    -0.311 N 
ATOM     20  C   UNL     1       3.880   0.741  22.655  0.00  0.00    +0.134 C 
ATOM     21  C   UNL     1       4.300  -1.432  23.771  0.00  0.00    +0.134 C 
ATOM     24  C   UNL     1       5.255   1.182  23.142  0.00  0.00    +0.178 C 
ATOM     25  C   UNL     1       5.654  -0.875  24.199  0.00  0.00    +0.178 C 
ENDBRANCH  19   7
ENDBRANCH   8  13
BRANCH  10   1
ATOM      1  O   UNL     1      -2.938  -1.546  26.594  0.00  0.00    -0.388 OA
ATOM     31  H   UNL     1      -3.094  -0.821  27.222  0.00  0.00    +0.210 HD
ENDBRANCH  10   1
BRANCH  12   2
ATOM      2  O   UNL     1      -4.212  -3.702  25.409  0.00  0.00    -0.389 OA
ATOM     32  H   UNL     1      -4.206  -4.479  24.824  0.00  0.00    +0.210 HD
ENDBRANCH  12   2
BRANCH   9   5
ATOM      5  N   UNL     1      -3.939   0.470  23.753  0.00  0.00    -0.306 NA
ATOM     30  H   UNL     1      -4.646  -0.138  23.342  0.00  0.00    +0.123 HD
BRANCH   5  14
ATOM     14  C   UNL     1      -4.602   1.436  24.618  0.00  0.00    +0.116 C 
BRANCH  14  18
ATOM     18  C   UNL     1      -3.696   2.586  24.972  0.00  0.00    -0.030 A 
ATOM     22  C   UNL     1      -2.382   2.607  24.504  0.00  0.00    +0.050 A 
ATOM     23  C   UNL     1      -4.170   3.629  25.769  0.00  0.00    +0.005 A 
ATOM     26  C   UNL     1      -1.542   3.670  24.832  0.00  0.00    +0.120 A 
ATOM     27  C   UNL     1      -3.328   4.692  26.098  0.00  0.00    +0.004 A 
ATOM     28  C   UNL     1      -2.015   4.713  25.630  0.00  0.00    +0.045 A 
BRANCH  26   4
ATOM      4  O   UNL     1      -0.260   3.690  24.377  0.00  0.00    -0.495 OA
ATOM     29  C   UNL     1       0.535   2.531  24.625  0.00  0.00    +0.277 C 
ENDBRANCH  26   4
ENDBRANCH  14  18
ENDBRANCH   5  14
ENDBRANCH   9   5
TORSDOF 8
ENDMDL
MODEL 4
REMARK VINA RESULT:       2.5      1.779      4.990
REMARK  Name = 86768986
REMARK  9 active torsions:
REMARK  status: ('A' for Active; 'I' for Inactive)
REMARK    1  A    between atoms: O_1  and  C_10
REMARK    2  A    between atoms: O_2  and  C_12
REMARK    3  A    between atoms: O_4  and  C_26
REMARK    4  A    between atoms: O_4  and  C_29
REMARK    5  A    between atoms: N_5  and  C_9
REMARK    6  A    between atoms: N_5  and  C_14
REMARK    7  A    between atoms: N_7  and  C_19
REMARK    8  A    between atoms: C_8  and  C_13
REMARK    9  A    between atoms: C_14  and  C_18
REMARK                            x       y       z     vdW  Elec       q    Type
REMARK                         _______ _______ _______ _____ _____    ______ ____
ROOT
ATOM      8  C   UNL     1      -2.000  -1.350  23.532  0.00  0.00    +0.042 C 
ATOM      9  C   UNL     1      -2.828  -0.352  24.398  0.00  0.00    +0.093 C 
ATOM     10  C   UNL     1      -3.606  -1.232  25.389  0.00  0.00    +0.160 C 
ATOM     11  C   UNL     1      -2.354  -2.756  24.054  0.00  0.00    +0.043 C 
ATOM     12  C   UNL     1      -3.732  -2.573  24.671  0.00  0.00    +0.145 C 
ENDROOT
BRANCH   8  13
ATOM      6  N   UNL     1       1.666  -1.461  24.500  0.00  0.00    -0.240 NA
ATOM     13  C   UNL     1      -0.511  -1.073  23.524  0.00  0.00    -0.024 A 
ATOM     15  C   UNL     1       0.053  -0.212  22.589  0.00  0.00    +0.009 A 
ATOM     16  C   UNL     1       0.331  -1.666  24.450  0.00  0.00    +0.116 A 
ATOM     17  C   UNL     1       1.423   0.025  22.609  0.00  0.00    +0.044 A 
ATOM     19  C   UNL     1       2.178  -0.618  23.576  0.00  0.00    +0.121 A 
BRANCH  19   7
ATOM      3  O   UNL     1       6.323   0.055  23.329  0.00  0.00    -0.377 OA
ATOM      7  N   UNL     1       3.555  -0.369  23.583  0.00  0.00    -0.311 N 
ATOM     20  C   UNL     1       4.066   0.735  22.758  0.00  0.00    +0.134 C 
ATOM     21  C   UNL     1       4.496  -1.473  23.800  0.00  0.00    +0.134 C 
ATOM     24  C   UNL     1       5.434   1.170  23.269  0.00  0.00    +0.178 C 
ATOM     25  C   UNL     1       5.843  -0.920  24.255  0.00  0.00    +0.178 C 
ENDBRANCH  19   7
ENDBRANCH   8  13
BRANCH  10   1
ATOM      1  O   UNL     1      -2.829  -1.366  26.578  0.00  0.00    -0.388 OA
ATOM     31  H   UNL     1      -2.574  -0.473  26.863  0.00  0.00    +0.210 HD
ENDBRANCH  10   1
BRANCH  12   2
ATOM      2  O   UNL     1      -4.049  -3.632  25.551  0.00  0.00    -0.389 OA
ATOM     32  H   UNL     1      -4.732  -3.309  26.164  0.00  0.00    +0.210 HD
ENDBRANCH  12   2
BRANCH   9   5
ATOM      5  N   UNL     1      -3.763   0.381  23.542  0.00  0.00    -0.306 NA
ATOM     30  H   UNL     1      -4.549   0.704  24.106  0.00  0.00    +0.123 HD
BRANCH   5  14
ATOM     14  C   UNL     1      -3.116   1.538  22.938  0.00  0.00    +0.116 C 
BRANCH  14  18
ATOM     18  C   UNL     1      -2.839   2.617  23.952  0.00  0.00    -0.030 A 
ATOM     22  C   UNL     1      -3.885   3.159  24.697  0.00  0.00    +0.050 A 
ATOM     23  C   UNL     1      -1.535   3.075  24.144  0.00  0.00    +0.005 A 
ATOM     26  C   UNL     1      -3.630   4.159  25.634  0.00  0.00    +0.120 A 
ATOM     27  C   UNL     1      -1.279   4.076  25.081  0.00  0.00    +0.004 A 
ATOM     28  C   UNL     1      -2.326   4.617  25.826  0.00  0.00    +0.045 A 
BRANCH  26   4
ATOM      4  O   UNL     1      -4.651   4.689  26.360  0.00  0.00    -0.495 OA
ATOM     29  C   UNL     1      -5.960   4.602  25.798  0.00  0.00    +0.277 C 
ENDBRANCH  26   4
ENDBRANCH  14  18
ENDBRANCH   5  14
ENDBRANCH   9   5
TORSDOF 8
ENDMDL
MODEL 5
REMARK VINA RESULT:       3.2      1.803      4.642
REMARK  Name = 86768986
REMARK  9 active torsions:
REMARK  status: ('A' for Active; 'I' for Inactive)
REMARK    1  A    between atoms: O_1  and  C_10
REMARK    2  A    between atoms: O_2  and  C_12
REMARK    3  A    between atoms: O_4  and  C_26
REMARK    4  A    between atoms: O_4  and  C_29
REMARK    5  A    between atoms: N_5  and  C_9
REMARK    6  A    between atoms: N_5  and  C_14
REMARK    7  A    between atoms: N_7  and  C_19
REMARK    8  A    between atoms: C_8  and  C_13
REMARK    9  A    between atoms: C_14  and  C_18
REMARK                            x       y       z     vdW  Elec       q    Type
REMARK                         _______ _______ _______ _____ _____    ______ ____
ROOT
ATOM      8  C   UNL     1      -2.715  -0.458  23.904  0.00  0.00    +0.042 C 
ATOM      9  C   UNL     1      -3.245  -0.675  25.356  0.00  0.00    +0.093 C 
ATOM     10  C   UNL     1      -4.140  -1.921  25.272  0.00  0.00    +0.160 C 
ATOM     11  C   UNL     1      -3.344  -1.578  23.054  0.00  0.00    +0.043 C 
ATOM     12  C   UNL     1      -4.607  -1.944  23.819  0.00  0.00    +0.145 C 
ENDROOT
BRANCH   8  13
ATOM      6  N   UNL     1       0.766   0.665  22.899  0.00  0.00    -0.240 NA
ATOM     13  C   UNL     1      -1.205  -0.406  23.800  0.00  0.00    -0.024 A 
ATOM     15  C   UNL     1      -0.408  -1.331  24.465  0.00  0.00    +0.009 A 
ATOM     16  C   UNL     1      -0.574   0.563  23.036  0.00  0.00    +0.116 A 
ATOM     17  C   UNL     1       0.976  -1.259  24.347  0.00  0.00    +0.044 A 
ATOM     19  C   UNL     1       1.508  -0.252  23.560  0.00  0.00    +0.121 A 
BRANCH  19   7
ATOM      3  O   UNL     1       5.671  -0.156  22.970  0.00  0.00    -0.377 OA
ATOM      7  N   UNL     1       2.902  -0.193  23.452  0.00  0.00    -0.311 N 
ATOM     20  C   UNL     1       3.486   0.810  22.549  0.00  0.00    +0.134 C 
ATOM     21  C   UNL     1       3.702  -1.408  23.637  0.00  0.00    +0.134 C 
ATOM     24  C   UNL     1       4.937   1.068  22.937  0.00  0.00    +0.178 C 
ATOM     25  C   UNL     1       5.143  -1.031  23.966  0.00  0.00    +0.178 C 
ENDBRANCH  19   7
ENDBRANCH   8  13
BRANCH  10   1
ATOM      1  O   UNL     1      -3.344  -3.068  25.565  0.00  0.00    -0.388 OA
ATOM     31  H   UNL     1      -3.785  -3.839  25.169  0.00  0.00    +0.210 HD
ENDBRANCH  10   1
BRANCH  12   2
ATOM      2  O   UNL     1      -5.101  -3.208  23.427  0.00  0.00    -0.389 OA
ATOM     32  H   UNL     1      -5.005  -3.273  22.461  0.00  0.00    +0.210 HD
ENDBRANCH  12   2
BRANCH   9   5
ATOM      5  N   UNL     1      -4.040   0.484  25.766  0.00  0.00    -0.306 NA
ATOM     30  H   UNL     1      -3.796   0.734  26.724  0.00  0.00    +0.123 HD
BRANCH   5  14
ATOM     14  C   UNL     1      -3.774   1.627  24.903  0.00  0.00    +0.116 C 
BRANCH  14  18
ATOM     18  C   UNL     1      -2.456   2.279  25.229  0.00  0.00    -0.030 A 
ATOM     22  C   UNL     1      -2.137   3.518  24.675  0.00  0.00    +0.050 A 
ATOM     23  C   UNL     1      -1.555   1.643  26.083  0.00  0.00    +0.005 A 
ATOM     26  C   UNL     1      -0.917   4.123  24.975  0.00  0.00    +0.120 A 
ATOM     27  C   UNL     1      -0.334   2.248  26.382  0.00  0.00    +0.004 A 
ATOM     28  C   UNL     1      -0.015   3.487  25.829  0.00  0.00    +0.045 A 
BRANCH  26   4
ATOM      4  O   UNL     1      -0.604   5.331  24.433  0.00  0.00    -0.495 OA
ATOM     29  C   UNL     1      -1.405   6.446  24.827  0.00  0.00    +0.277 C 
ENDBRANCH  26   4
ENDBRANCH  14  18
ENDBRANCH   5  14
ENDBRANCH   9   5
TORSDOF 8
ENDMDL
