MODEL 1
REMARK VINA RESULT:      -4.3      0.000      0.000
REMARK  Name = 38027663
REMARK  13 active torsions:
REMARK  status: ('A' for Active; 'I' for Inactive)
REMARK    1  A    between atoms: O_3  and  C_23
REMARK    2  A    between atoms: O_3  and  C_28
REMARK    3  A    between atoms: N_4  and  C_14
REMARK    4  A    between atoms: N_5  and  C_21
REMARK    5  A    between atoms: C_7  and  C_11
REMARK    6  A    between atoms: C_8  and  C_14
REMARK    7  A    between atoms: C_10  and  C_15
REMARK    8  A    between atoms: C_11  and  C_16
REMARK    9  A    between atoms: C_11  and  C_17
REMARK   10  A    between atoms: C_12  and  C_18
REMARK   11  A    between atoms: C_15  and  C_19
REMARK   12  A    between atoms: C_20  and  C_22
REMARK   13  A    between atoms: C_21  and  C_23
REMARK                            x       y       z     vdW  Elec       q    Type
REMARK                         _______ _______ _______ _____ _____    ______ ____
ROOT
ATOM      7  C   UNL     1      -1.574   0.429  24.925  0.00  0.00    +0.000 C 
ATOM      8  C   UNL     1      -0.981  -0.908  24.416  0.00  0.00    +0.032 C 
ATOM      9  C   UNL     1      -2.740   0.167  25.891  0.00  0.00    +0.012 C 
ATOM     10  C   UNL     1      -3.869  -0.648  25.232  0.00  0.00    +0.023 C 
ATOM     12  C   UNL     1      -3.332  -1.847  24.477  0.00  0.00    -0.073 C 
ATOM     13  C   UNL     1      -2.035  -1.953  24.133  0.00  0.00    -0.022 C 
ATOM     18  C   UNL     1      -4.309  -2.946  24.167  0.00  0.00    +0.039 C 
ENDROOT
BRANCH   7  11
ATOM     11  C   UNL     1      -0.514   1.294  25.616  0.00  0.00    -0.013 C 
ATOM     16  C   UNL     1       0.182   2.195  24.600  0.00  0.00    +0.007 C 
ATOM     17  C   UNL     1      -1.146   2.122  26.730  0.00  0.00    +0.007 C 
ENDBRANCH   7  11
BRANCH   8  14
ATOM     14  C   UNL     1      -0.126  -0.692  23.162  0.00  0.00    +0.112 C 
BRANCH  14   4
ATOM      2  O   UNL     1       2.047  -0.160  21.363  0.00  0.00    -0.270 OA
ATOM      4  N   UNL     1       1.258  -0.595  23.502  0.00  0.00    -0.311 N 
ATOM     20  C   UNL     1       2.254  -0.332  22.561  0.00  0.00    +0.246 C 
ATOM     29  H   UNL     1       1.499  -0.640  24.487  0.00  0.00    +0.149 HD
BRANCH  20  22
ATOM      6  N   UNL     1       5.477  -1.412  24.184  0.00  0.00    -0.263 NA
ATOM     22  C   UNL     1       3.648  -0.288  23.071  0.00  0.00    +0.055 A 
ATOM     24  C   UNL     1       4.425   0.859  22.937  0.00  0.00    +0.016 A 
ATOM     25  C   UNL     1       4.216  -1.386  23.696  0.00  0.00    +0.123 A 
ATOM     26  C   UNL     1       5.727   0.869  23.425  0.00  0.00    +0.020 A 
ATOM     27  C   UNL     1       6.202  -0.281  24.034  0.00  0.00    +0.111 A 
ENDBRANCH  20  22
ENDBRANCH  14   4
ENDBRANCH   8  14
BRANCH  10  15
ATOM     15  C   UNL     1      -4.728   0.235  24.320  0.00  0.00    +0.103 C 
BRANCH  15  19
ATOM      1  O   UNL     1      -6.052   1.528  25.878  0.00  0.00    -0.276 OA
ATOM      5  N   UNL     1      -4.482   2.602  24.541  0.00  0.00    -0.313 N 
ATOM     19  C   UNL     1      -5.179   1.500  25.014  0.00  0.00    +0.214 C 
ATOM     30  H   UNL     1      -3.776   2.479  23.822  0.00  0.00    +0.149 HD
BRANCH   5  21
ATOM     21  C   UNL     1      -4.709   3.945  25.026  0.00  0.00    +0.132 C 
BRANCH  21  23
ATOM     23  C   UNL     1      -3.456   4.531  25.651  0.00  0.00    +0.178 C 
BRANCH  23   3
ATOM      3  O   UNL     1      -2.390   4.476  24.712  0.00  0.00    -0.381 OA
ATOM     28  C   UNL     1      -1.334   5.357  25.069  0.00  0.00    +0.194 C 
ENDBRANCH  23   3
ENDBRANCH  21  23
ENDBRANCH   5  21
ENDBRANCH  15  19
ENDBRANCH  10  15
TORSDOF 9
ENDMDL
MODEL 2
REMARK VINA RESULT:      -3.2      2.241      6.599
REMARK  Name = 38027663
REMARK  13 active torsions:
REMARK  status: ('A' for Active; 'I' for Inactive)
REMARK    1  A    between atoms: O_3  and  C_23
REMARK    2  A    between atoms: O_3  and  C_28
REMARK    3  A    between atoms: N_4  and  C_14
REMARK    4  A    between atoms: N_5  and  C_21
REMARK    5  A    between atoms: C_7  and  C_11
REMARK    6  A    between atoms: C_8  and  C_14
REMARK    7  A    between atoms: C_10  and  C_15
REMARK    8  A    between atoms: C_11  and  C_16
REMARK    9  A    between atoms: C_11  and  C_17
REMARK   10  A    between atoms: C_12  and  C_18
REMARK   11  A    between atoms: C_15  and  C_19
REMARK   12  A    between atoms: C_20  and  C_22
REMARK   13  A    between atoms: C_21  and  C_23
REMARK                            x       y       z     vdW  Elec       q    Type
REMARK                         _______ _______ _______ _____ _____    ______ ____
ROOT
ATOM      7  C   UNL     1      -4.091   3.204  25.655  0.00  0.00    +0.000 C 
ATOM      8  C   UNL     1      -3.916   3.884  24.274  0.00  0.00    +0.032 C 
ATOM      9  C   UNL     1      -3.232   3.913  26.714  0.00  0.00    +0.012 C 
ATOM     10  C   UNL     1      -1.735   3.903  26.352  0.00  0.00    +0.023 C 
ATOM     12  C   UNL     1      -1.502   4.307  24.910  0.00  0.00    -0.073 C 
ATOM     13  C   UNL     1      -2.491   4.306  23.998  0.00  0.00    -0.022 C 
ATOM     18  C   UNL     1      -0.114   4.759  24.549  0.00  0.00    +0.039 C 
ENDROOT
BRANCH   7  11
ATOM     11  C   UNL     1      -5.556   3.192  26.101  0.00  0.00    -0.013 C 
ATOM     16  C   UNL     1      -6.300   4.390  25.519  0.00  0.00    +0.007 C 
ATOM     17  C   UNL     1      -6.228   1.886  25.689  0.00  0.00    +0.007 C 
ENDBRANCH   7  11
BRANCH   8  14
ATOM     14  C   UNL     1      -4.406   2.972  23.143  0.00  0.00    +0.112 C 
BRANCH  14   4
ATOM      2  O   UNL     1      -1.991   1.421  23.133  0.00  0.00    -0.270 OA
ATOM      4  N   UNL     1      -4.274   1.596  23.508  0.00  0.00    -0.311 N 
ATOM     20  C   UNL     1      -3.057   0.916  23.474  0.00  0.00    +0.246 C 
ATOM     29  H   UNL     1      -5.096   1.134  23.883  0.00  0.00    +0.149 HD
BRANCH  20  22
ATOM      6  N   UNL     1      -1.921  -2.460  24.698  0.00  0.00    -0.263 NA
ATOM     22  C   UNL     1      -3.092  -0.518  23.858  0.00  0.00    +0.055 A 
ATOM     24  C   UNL     1      -4.263  -1.261  23.752  0.00  0.00    +0.016 A 
ATOM     25  C   UNL     1      -1.959  -1.159  24.333  0.00  0.00    +0.123 A 
ATOM     26  C   UNL     1      -4.264  -2.602  24.120  0.00  0.00    +0.020 A 
ATOM     27  C   UNL     1      -3.078  -3.150  24.582  0.00  0.00    +0.111 A 
ENDBRANCH  20  22
ENDBRANCH  14   4
ENDBRANCH   8  14
BRANCH  10  15
ATOM     15  C   UNL     1      -1.104   2.538  26.647  0.00  0.00    +0.103 C 
BRANCH  15  19
ATOM      1  O   UNL     1       1.289   2.873  26.519  0.00  0.00    -0.276 OA
ATOM      5  N   UNL     1       0.208   1.680  24.842  0.00  0.00    -0.313 N 
ATOM     19  C   UNL     1       0.268   2.401  26.026  0.00  0.00    +0.214 C 
ATOM     30  H   UNL     1      -0.686   1.328  24.514  0.00  0.00    +0.149 HD
BRANCH   5  21
ATOM     21  C   UNL     1       1.371   1.396  24.033  0.00  0.00    +0.132 C 
BRANCH  21  23
ATOM     23  C   UNL     1       1.163   0.163  23.171  0.00  0.00    +0.178 C 
BRANCH  23   3
ATOM      3  O   UNL     1       2.275   0.003  22.300  0.00  0.00    -0.381 OA
ATOM     28  C   UNL     1       3.395   0.760  22.740  0.00  0.00    +0.194 C 
ENDBRANCH  23   3
ENDBRANCH  21  23
ENDBRANCH   5  21
ENDBRANCH  15  19
ENDBRANCH  10  15
TORSDOF 9
ENDMDL
MODEL 3
REMARK VINA RESULT:      -2.1      1.550      3.030
REMARK  Name = 38027663
REMARK  13 active torsions:
REMARK  status: ('A' for Active; 'I' for Inactive)
REMARK    1  A    between atoms: O_3  and  C_23
REMARK    2  A    between atoms: O_3  and  C_28
REMARK    3  A    between atoms: N_4  and  C_14
REMARK    4  A    between atoms: N_5  and  C_21
REMARK    5  A    between atoms: C_7  and  C_11
REMARK    6  A    between atoms: C_8  and  C_14
REMARK    7  A    between atoms: C_10  and  C_15
REMARK    8  A    between atoms: C_11  and  C_16
REMARK    9  A    between atoms: C_11  and  C_17
REMARK   10  A    between atoms: C_12  and  C_18
REMARK   11  A    between atoms: C_15  and  C_19
REMARK   12  A    between atoms: C_20  and  C_22
REMARK   13  A    between atoms: C_21  and  C_23
REMARK                            x       y       z     vdW  Elec       q    Type
REMARK                         _______ _______ _______ _____ _____    ______ ____
ROOT
ATOM      7  C   UNL     1      -3.272  -0.202  24.962  0.00  0.00    +0.000 C 
ATOM      8  C   UNL     1      -2.071   0.597  24.400  0.00  0.00    +0.032 C 
ATOM      9  C   UNL     1      -4.485  -0.077  24.027  0.00  0.00    +0.012 C 
ATOM     10  C   UNL     1      -4.922   1.387  23.833  0.00  0.00    +0.023 C 
ATOM     12  C   UNL     1      -3.743   2.292  23.537  0.00  0.00    -0.073 C 
ATOM     13  C   UNL     1      -2.475   1.917  23.784  0.00  0.00    -0.022 C 
ATOM     18  C   UNL     1      -4.051   3.621  22.907  0.00  0.00    +0.039 C 
ENDROOT
BRANCH   7  11
ATOM     11  C   UNL     1      -2.926  -1.681  25.166  0.00  0.00    -0.013 C 
ATOM     16  C   UNL     1      -3.107  -2.073  26.629  0.00  0.00    +0.007 C 
ATOM     17  C   UNL     1      -3.782  -2.559  24.260  0.00  0.00    +0.007 C 
ENDBRANCH   7  11
BRANCH   8  14
ATOM     14  C   UNL     1      -1.013   0.842  25.483  0.00  0.00    +0.112 C 
BRANCH  14   4
ATOM      2  O   UNL     1      -0.000  -0.970  23.500  0.00  0.00    -0.270 OA
ATOM      4  N   UNL     1       0.300   0.843  24.918  0.00  0.00    -0.311 N 
ATOM     20  C   UNL     1       0.711  -0.078  23.954  0.00  0.00    +0.246 C 
ATOM     29  H   UNL     1       0.918   1.603  25.181  0.00  0.00    +0.149 HD
BRANCH  20  22
ATOM      6  N   UNL     1       4.292  -0.976  23.206  0.00  0.00    -0.263 NA
ATOM     22  C   UNL     1       2.116   0.040  23.486  0.00  0.00    +0.055 A 
ATOM     24  C   UNL     1       2.584   1.218  22.912  0.00  0.00    +0.016 A 
ATOM     25  C   UNL     1       3.002  -1.018  23.609  0.00  0.00    +0.123 A 
ATOM     26  C   UNL     1       3.904   1.298  22.485  0.00  0.00    +0.020 A 
ATOM     27  C   UNL     1       4.710   0.183  22.652  0.00  0.00    +0.111 A 
ENDBRANCH  20  22
ENDBRANCH  14   4
ENDBRANCH   8  14
BRANCH  10  15
ATOM     15  C   UNL     1      -5.711   1.894  25.045  0.00  0.00    +0.103 C 
BRANCH  15  19
ATOM      1  O   UNL     1      -5.822   4.287  25.383  0.00  0.00    -0.276 OA
ATOM      5  N   UNL     1      -3.974   3.106  26.154  0.00  0.00    -0.313 N 
ATOM     19  C   UNL     1      -5.208   3.234  25.531  0.00  0.00    +0.214 C 
ATOM     30  H   UNL     1      -3.543   2.189  26.228  0.00  0.00    +0.149 HD
BRANCH   5  21
ATOM     21  C   UNL     1      -3.254   4.226  26.715  0.00  0.00    +0.132 C 
BRANCH  21  23
ATOM     23  C   UNL     1      -2.382   4.905  25.675  0.00  0.00    +0.178 C 
BRANCH  23   3
ATOM      3  O   UNL     1      -1.135   4.227  25.589  0.00  0.00    -0.381 OA
ATOM     28  C   UNL     1      -0.368   4.685  24.483  0.00  0.00    +0.194 C 
ENDBRANCH  23   3
ENDBRANCH  21  23
ENDBRANCH   5  21
ENDBRANCH  15  19
ENDBRANCH  10  15
TORSDOF 9
ENDMDL
MODEL 4
REMARK VINA RESULT:      -1.7      1.780      7.710
REMARK  Name = 38027663
REMARK  13 active torsions:
REMARK  status: ('A' for Active; 'I' for Inactive)
REMARK    1  A    between atoms: O_3  and  C_23
REMARK    2  A    between atoms: O_3  and  C_28
REMARK    3  A    between atoms: N_4  and  C_14
REMARK    4  A    between atoms: N_5  and  C_21
REMARK    5  A    between atoms: C_7  and  C_11
REMARK    6  A    between atoms: C_8  and  C_14
REMARK    7  A    between atoms: C_10  and  C_15
REMARK    8  A    between atoms: C_11  and  C_16
REMARK    9  A    between atoms: C_11  and  C_17
REMARK   10  A    between atoms: C_12  and  C_18
REMARK   11  A    between atoms: C_15  and  C_19
REMARK   12  A    between atoms: C_20  and  C_22
REMARK   13  A    between atoms: C_21  and  C_23
REMARK                            x       y       z     vdW  Elec       q    Type
REMARK                         _______ _______ _______ _____ _____    ______ ____
ROOT
ATOM      7  C   UNL     1      -1.790  -1.775  24.467  0.00  0.00    +0.000 C 
ATOM      8  C   UNL     1      -2.553  -1.128  25.650  0.00  0.00    +0.032 C 
ATOM      9  C   UNL     1      -0.276  -1.560  24.624  0.00  0.00    +0.012 C 
ATOM     10  C   UNL     1       0.097  -0.067  24.687  0.00  0.00    +0.023 C 
ATOM     12  C   UNL     1      -0.798   0.697  25.642  0.00  0.00    -0.073 C 
ATOM     13  C   UNL     1      -1.972   0.201  26.073  0.00  0.00    -0.022 C 
ATOM     18  C   UNL     1      -0.290   2.025  26.129  0.00  0.00    +0.039 C 
ENDROOT
BRANCH   7  11
ATOM     11  C   UNL     1      -2.090  -3.272  24.347  0.00  0.00    -0.013 C 
ATOM     16  C   UNL     1      -3.596  -3.511  24.304  0.00  0.00    +0.007 C 
ATOM     17  C   UNL     1      -1.415  -3.854  23.110  0.00  0.00    +0.007 C 
ENDBRANCH   7  11
BRANCH   8  14
ATOM     14  C   UNL     1      -4.040  -0.954  25.319  0.00  0.00    +0.112 C 
BRANCH  14   4
ATOM      2  O   UNL     1      -3.588   1.089  23.354  0.00  0.00    -0.270 OA
ATOM      4  N   UNL     1      -4.422   0.420  25.414  0.00  0.00    -0.311 N 
ATOM     20  C   UNL     1      -4.163   1.350  24.407  0.00  0.00    +0.246 C 
ATOM     29  H   UNL     1      -4.978   0.693  26.218  0.00  0.00    +0.149 HD
BRANCH  20  22
ATOM      6  N   UNL     1      -6.123   4.256  25.788  0.00  0.00    -0.263 NA
ATOM     22  C   UNL     1      -4.602   2.745  24.669  0.00  0.00    +0.055 A 
ATOM     24  C   UNL     1      -3.952   3.824  24.078  0.00  0.00    +0.016 A 
ATOM     25  C   UNL     1      -5.671   3.012  25.509  0.00  0.00    +0.123 A 
ATOM     26  C   UNL     1      -4.388   5.118  24.342  0.00  0.00    +0.020 A 
ATOM     27  C   UNL     1      -5.467   5.279  25.197  0.00  0.00    +0.111 A 
ENDBRANCH  20  22
ENDBRANCH  14   4
ENDBRANCH   8  14
BRANCH  10  15
ATOM     15  C   UNL     1       0.078   0.567  23.292  0.00  0.00    +0.103 C 
BRANCH  15  19
ATOM      1  O   UNL     1       1.235  -0.545  21.481  0.00  0.00    -0.276 OA
ATOM      5  N   UNL     1       2.444   0.737  22.997  0.00  0.00    -0.313 N 
ATOM     19  C   UNL     1       1.288   0.177  22.474  0.00  0.00    +0.214 C 
ATOM     30  H   UNL     1       2.388   1.322  23.825  0.00  0.00    +0.149 HD
BRANCH   5  21
ATOM     21  C   UNL     1       3.752   0.531  22.418  0.00  0.00    +0.132 C 
BRANCH  21  23
ATOM     23  C   UNL     1       4.856   0.799  23.424  0.00  0.00    +0.178 C 
BRANCH  23   3
ATOM      3  O   UNL     1       5.654  -0.369  23.571  0.00  0.00    -0.381 OA
ATOM     28  C   UNL     1       4.869  -1.492  23.949  0.00  0.00    +0.194 C 
ENDBRANCH  23   3
ENDBRANCH  21  23
ENDBRANCH   5  21
ENDBRANCH  15  19
ENDBRANCH  10  15
TORSDOF 9
ENDMDL
MODEL 5
REMARK VINA RESULT:      -1.6      2.152      7.081
REMARK  Name = 38027663
REMARK  13 active torsions:
REMARK  status: ('A' for Active; 'I' for Inactive)
REMARK    1  A    between atoms: O_3  and  C_23
REMARK    2  A    between atoms: O_3  and  C_28
REMARK    3  A    between atoms: N_4  and  C_14
REMARK    4  A    between atoms: N_5  and  C_21
REMARK    5  A    between atoms: C_7  and  C_11
REMARK    6  A    between atoms: C_8  and  C_14
REMARK    7  A    between atoms: C_10  and  C_15
REMARK    8  A    between atoms: C_11  and  C_16
REMARK    9  A    between atoms: C_11  and  C_17
REMARK   10  A    between atoms: C_12  and  C_18
REMARK   11  A    between atoms: C_15  and  C_19
REMARK   12  A    between atoms: C_20  and  C_22
REMARK   13  A    between atoms: C_21  and  C_23
REMARK                            x       y       z     vdW  Elec       q    Type
REMARK                         _______ _______ _______ _____ _____    ______ ____
ROOT
ATOM      7  C   UNL     1      -2.107   3.355  25.059  0.00  0.00    +0.000 C 
ATOM      8  C   UNL     1      -3.359   3.243  24.155  0.00  0.00    +0.032 C 
ATOM      9  C   UNL     1      -0.846   3.570  24.206  0.00  0.00    +0.012 C 
ATOM     10  C   UNL     1      -0.622   2.424  23.202  0.00  0.00    +0.023 C 
ATOM     12  C   UNL     1      -1.893   2.072  22.455  0.00  0.00    -0.073 C 
ATOM     13  C   UNL     1      -3.106   2.458  22.888  0.00  0.00    -0.022 C 
ATOM     18  C   UNL     1      -1.734   1.306  21.172  0.00  0.00    +0.039 C 
ENDROOT
BRANCH   7  11
ATOM     11  C   UNL     1      -2.241   4.491  26.079  0.00  0.00    -0.013 C 
ATOM     16  C   UNL     1      -2.088   5.844  25.391  0.00  0.00    +0.007 C 
ATOM     17  C   UNL     1      -3.579   4.400  26.804  0.00  0.00    +0.007 C 
ENDBRANCH   7  11
BRANCH   8  14
ATOM     14  C   UNL     1      -4.536   2.620  24.915  0.00  0.00    +0.112 C 
BRANCH  14   4
ATOM      2  O   UNL     1      -2.549   0.742  25.791  0.00  0.00    -0.270 OA
ATOM      4  N   UNL     1      -4.563   1.203  24.734  0.00  0.00    -0.311 N 
ATOM     20  C   UNL     1      -3.551   0.360  25.193  0.00  0.00    +0.246 C 
ATOM     29  H   UNL     1      -5.401   0.802  24.324  0.00  0.00    +0.149 HD
BRANCH  20  22
ATOM      6  N   UNL     1      -4.620  -2.818  23.477  0.00  0.00    -0.263 NA
ATOM     22  C   UNL     1      -3.715  -1.088  24.903  0.00  0.00    +0.055 A 
ATOM     24  C   UNL     1      -3.155  -2.053  25.733  0.00  0.00    +0.016 A 
ATOM     25  C   UNL     1      -4.432  -1.519  23.798  0.00  0.00    +0.123 A 
ATOM     26  C   UNL     1      -3.327  -3.401  25.435  0.00  0.00    +0.020 A 
ATOM     27  C   UNL     1      -4.061  -3.728  24.306  0.00  0.00    +0.111 A 
ENDBRANCH  20  22
ENDBRANCH  14   4
ENDBRANCH   8  14
BRANCH  10  15
ATOM     15  C   UNL     1      -0.032   1.190  23.892  0.00  0.00    +0.103 C 
BRANCH  15  19
ATOM      1  O   UNL     1       0.753  -0.458  22.304  0.00  0.00    -0.276 OA
ATOM      5  N   UNL     1       2.250   1.086  23.187  0.00  0.00    -0.313 N 
ATOM     19  C   UNL     1       1.002   0.498  23.034  0.00  0.00    +0.214 C 
ATOM     30  H   UNL     1       2.358   1.875  23.816  0.00  0.00    +0.149 HD
BRANCH   5  21
ATOM     21  C   UNL     1       3.429   0.627  22.488  0.00  0.00    +0.132 C 
BRANCH  21  23
ATOM     23  C   UNL     1       4.697   0.979  23.243  0.00  0.00    +0.178 C 
BRANCH  23   3
ATOM      3  O   UNL     1       5.609  -0.110  23.167  0.00  0.00    -0.381 OA
ATOM     28  C   UNL     1       5.411  -1.029  24.232  0.00  0.00    +0.194 C 
ENDBRANCH  23   3
ENDBRANCH  21  23
ENDBRANCH   5  21
ENDBRANCH  15  19
ENDBRANCH  10  15
TORSDOF 9
ENDMDL
