MODEL 1
REMARK VINA RESULT:      -5.5      0.000      0.000
REMARK  Name = 75536852
REMARK  6 active torsions:
REMARK  status: ('A' for Active; 'I' for Inactive)
REMARK    1  A    between atoms: O_5  and  C_10
REMARK    2  A    between atoms: O_5  and  C_19
REMARK    3  A    between atoms: C_15  and  C_16
REMARK    4  A    between atoms: C_17  and  C_21
REMARK    5  A    between atoms: C_20  and  C_23
REMARK    6  A    between atoms: C_24  and  C_27
REMARK                            x       y       z     vdW  Elec       q    Type
REMARK                         _______ _______ _______ _____ _____    ______ ____
ROOT
ATOM      4  O   UNL     1      -1.421   5.720  25.372  0.00  0.00    -0.375 OA
ATOM      7  O   UNL     1      -5.400   3.001  25.097  0.00  0.00    -0.270 OA
ATOM      8  N   UNL     1      -3.136   3.116  25.690  0.00  0.00    -0.292 N 
ATOM     10  C   UNL     1      -0.608   3.457  25.790  0.00  0.00    +0.218 C 
ATOM     11  C   UNL     1      -1.801   2.506  25.662  0.00  0.00    +0.155 C 
ATOM     12  C   UNL     1      -3.284   4.436  26.305  0.00  0.00    +0.136 C 
ATOM     13  C   UNL     1      -0.674   4.638  24.824  0.00  0.00    +0.206 C 
ATOM     14  C   UNL     1      -2.833   5.538  25.355  0.00  0.00    +0.179 C 
ATOM     15  C   UNL     1      -4.271   2.512  25.124  0.00  0.00    +0.250 C 
ENDROOT
BRANCH  15  16
ATOM      6  O   UNL     1      -3.537  -0.399  23.023  0.00  0.00    -0.455 OA
ATOM     16  C   UNL     1      -4.121   1.185  24.506  0.00  0.00    +0.087 A 
ATOM     17  C   UNL     1      -3.502   0.930  23.304  0.00  0.00    +0.220 A 
ATOM     18  C   UNL     1      -4.564  -0.067  24.994  0.00  0.00    +0.058 A 
ATOM     20  C   UNL     1      -4.185  -0.998  24.056  0.00  0.00    +0.103 A 
ATOM     23  C   UNL     1      -4.340  -2.457  23.967  0.00  0.00    +0.086 C 
BRANCH  17  21
ATOM      1  F   UNL     1      -1.600   2.243  22.688  0.00  0.00    -0.163 F 
ATOM      2  F   UNL     1      -2.610   1.169  21.097  0.00  0.00    -0.163 F 
ATOM      3  F   UNL     1      -3.549   2.913  21.995  0.00  0.00    -0.163 F 
ATOM     21  C   UNL     1      -2.837   1.782  22.307  0.00  0.00    +0.451 C 
ENDBRANCH  17  21
ENDBRANCH  15  16
BRANCH  10   5
ATOM      5  O   UNL     1       0.564   2.690  25.508  0.00  0.00    -0.469 OA
BRANCH   5  19
ATOM      9  N   UNL     1       1.027   1.214  23.781  0.00  0.00    -0.218 NA
ATOM     19  C   UNL     1       0.367   1.465  24.934  0.00  0.00    +0.215 A 
ATOM     22  C   UNL     1      -0.484   0.563  25.553  0.00  0.00    +0.067 A 
ATOM     24  C   UNL     1       0.822  -0.001  23.224  0.00  0.00    +0.042 A 
ATOM     25  C   UNL     1      -0.670  -0.676  24.949  0.00  0.00    +0.007 A 
ATOM     26  C   UNL     1      -0.008  -0.971  23.763  0.00  0.00    +0.023 A 
ATOM     27  C   UNL     1       1.546  -0.282  21.950  0.00  0.00    +0.066 C 
ENDBRANCH   5  19
ENDBRANCH  10   5
TORSDOF 4
ENDMDL
MODEL 2
REMARK VINA RESULT:      -4.6      2.380      5.864
REMARK  Name = 75536852
REMARK  6 active torsions:
REMARK  status: ('A' for Active; 'I' for Inactive)
REMARK    1  A    between atoms: O_5  and  C_10
REMARK    2  A    between atoms: O_5  and  C_19
REMARK    3  A    between atoms: C_15  and  C_16
REMARK    4  A    between atoms: C_17  and  C_21
REMARK    5  A    between atoms: C_20  and  C_23
REMARK    6  A    between atoms: C_24  and  C_27
REMARK                            x       y       z     vdW  Elec       q    Type
REMARK                         _______ _______ _______ _____ _____    ______ ____
ROOT
ATOM      4  O   UNL     1      -4.228  -2.951  24.063  0.00  0.00    -0.375 OA
ATOM      7  O   UNL     1       0.419  -1.776  24.633  0.00  0.00    -0.270 OA
ATOM      8  N   UNL     1      -1.808  -1.316  25.200  0.00  0.00    -0.292 N 
ATOM     10  C   UNL     1      -4.310  -0.811  25.233  0.00  0.00    +0.218 C 
ATOM     11  C   UNL     1      -2.869  -0.323  25.406  0.00  0.00    +0.155 C 
ATOM     12  C   UNL     1      -2.147  -2.734  25.334  0.00  0.00    +0.136 C 
ATOM     13  C   UNL     1      -4.535  -1.567  23.925  0.00  0.00    +0.206 C 
ATOM     14  C   UNL     1      -2.837  -3.253  24.079  0.00  0.00    +0.179 C 
ATOM     15  C   UNL     1      -0.491  -0.976  24.846  0.00  0.00    +0.250 C 
ENDROOT
BRANCH  15  16
ATOM      6  O   UNL     1       0.894   2.314  24.019  0.00  0.00    -0.455 OA
ATOM     16  C   UNL     1      -0.151   0.449  24.712  0.00  0.00    +0.087 A 
ATOM     17  C   UNL     1       0.842   0.960  23.909  0.00  0.00    +0.220 A 
ATOM     18  C   UNL     1      -0.747   1.559  25.356  0.00  0.00    +0.058 A 
ATOM     20  C   UNL     1      -0.076   2.670  24.901  0.00  0.00    +0.103 A 
ATOM     23  C   UNL     1      -0.208   4.108  25.176  0.00  0.00    +0.086 C 
BRANCH  17  21
ATOM      1  F   UNL     1       2.473  -0.742  23.507  0.00  0.00    -0.163 F 
ATOM      2  F   UNL     1       1.281  -0.103  21.812  0.00  0.00    -0.163 F 
ATOM      3  F   UNL     1       2.819   1.209  22.614  0.00  0.00    -0.163 F 
ATOM     21  C   UNL     1       1.818   0.351  22.993  0.00  0.00    +0.451 C 
ENDBRANCH  17  21
ENDBRANCH  15  16
BRANCH  10   5
ATOM      5  O   UNL     1      -5.142   0.350  25.249  0.00  0.00    -0.469 OA
BRANCH   5  19
ATOM      9  N   UNL     1      -3.865   1.399  23.623  0.00  0.00    -0.218 NA
ATOM     19  C   UNL     1      -4.593   1.502  24.758  0.00  0.00    +0.215 A 
ATOM     22  C   UNL     1      -4.807   2.691  25.437  0.00  0.00    +0.067 A 
ATOM     24  C   UNL     1      -3.327   2.545  23.149  0.00  0.00    +0.042 A 
ATOM     25  C   UNL     1      -4.235   3.848  24.919  0.00  0.00    +0.007 A 
ATOM     26  C   UNL     1      -3.481   3.782  23.753  0.00  0.00    +0.023 A 
ATOM     27  C   UNL     1      -2.520   2.437  21.898  0.00  0.00    +0.066 C 
ENDBRANCH   5  19
ENDBRANCH  10   5
TORSDOF 4
ENDMDL
MODEL 3
REMARK VINA RESULT:      -4.0      1.799      4.849
REMARK  Name = 75536852
REMARK  6 active torsions:
REMARK  status: ('A' for Active; 'I' for Inactive)
REMARK    1  A    between atoms: O_5  and  C_10
REMARK    2  A    between atoms: O_5  and  C_19
REMARK    3  A    between atoms: C_15  and  C_16
REMARK    4  A    between atoms: C_17  and  C_21
REMARK    5  A    between atoms: C_20  and  C_23
REMARK    6  A    between atoms: C_24  and  C_27
REMARK                            x       y       z     vdW  Elec       q    Type
REMARK                         _______ _______ _______ _____ _____    ______ ____
ROOT
ATOM      4  O   UNL     1       1.254  -0.909  22.918  0.00  0.00    -0.375 OA
ATOM      7  O   UNL     1       0.350   3.801  23.471  0.00  0.00    -0.270 OA
ATOM      8  N   UNL     1       0.286   1.662  24.426  0.00  0.00    -0.292 N 
ATOM     10  C   UNL     1      -0.066  -0.808  24.968  0.00  0.00    +0.218 C 
ATOM     11  C   UNL     1      -0.456   0.655  25.195  0.00  0.00    +0.155 C 
ATOM     12  C   UNL     1       1.605   1.304  23.904  0.00  0.00    +0.136 C 
ATOM     13  C   UNL     1      -0.018  -1.194  23.492  0.00  0.00    +0.206 C 
ATOM     14  C   UNL     1       1.485   0.467  22.637  0.00  0.00    +0.179 C 
ATOM     15  C   UNL     1      -0.222   2.940  24.137  0.00  0.00    +0.250 C 
ENDROOT
BRANCH  15  16
ATOM      6  O   UNL     1      -3.780   3.546  24.774  0.00  0.00    -0.455 OA
ATOM     16  C   UNL     1      -1.549   3.299  24.663  0.00  0.00    +0.087 A 
ATOM     17  C   UNL     1      -2.745   3.103  24.013  0.00  0.00    +0.220 A 
ATOM     18  C   UNL     1      -1.869   3.901  25.903  0.00  0.00    +0.058 A 
ATOM     20  C   UNL     1      -3.238   4.031  25.923  0.00  0.00    +0.103 A 
ATOM     23  C   UNL     1      -4.183   4.569  26.911  0.00  0.00    +0.086 C 
BRANCH  17  21
ATOM      1  F   UNL     1      -2.134   2.654  21.745  0.00  0.00    -0.163 F 
ATOM      2  F   UNL     1      -3.381   1.183  22.736  0.00  0.00    -0.163 F 
ATOM      3  F   UNL     1      -4.223   3.101  22.151  0.00  0.00    -0.163 F 
ATOM     21  C   UNL     1      -3.106   2.529  22.707  0.00  0.00    +0.451 C 
ENDBRANCH  17  21
ENDBRANCH  15  16
BRANCH  10   5
ATOM      5  O   UNL     1      -1.053  -1.604  25.627  0.00  0.00    -0.469 OA
BRANCH   5  19
ATOM      9  N   UNL     1      -3.062  -0.460  25.470  0.00  0.00    -0.218 NA
ATOM     19  C   UNL     1      -2.323  -1.538  25.126  0.00  0.00    +0.215 A 
ATOM     22  C   UNL     1      -2.777  -2.562  24.309  0.00  0.00    +0.067 A 
ATOM     24  C   UNL     1      -4.317  -0.408  24.969  0.00  0.00    +0.042 A 
ATOM     25  C   UNL     1      -4.073  -2.473  23.815  0.00  0.00    +0.007 A 
ATOM     26  C   UNL     1      -4.864  -1.379  24.145  0.00  0.00    +0.023 A 
ATOM     27  C   UNL     1      -5.139   0.779  25.347  0.00  0.00    +0.066 C 
ENDBRANCH   5  19
ENDBRANCH  10   5
TORSDOF 4
ENDMDL
MODEL 4
REMARK VINA RESULT:      -3.9      1.829      5.704
REMARK  Name = 75536852
REMARK  6 active torsions:
REMARK  status: ('A' for Active; 'I' for Inactive)
REMARK    1  A    between atoms: O_5  and  C_10
REMARK    2  A    between atoms: O_5  and  C_19
REMARK    3  A    between atoms: C_15  and  C_16
REMARK    4  A    between atoms: C_17  and  C_21
REMARK    5  A    between atoms: C_20  and  C_23
REMARK    6  A    between atoms: C_24  and  C_27
REMARK                            x       y       z     vdW  Elec       q    Type
REMARK                         _______ _______ _______ _____ _____    ______ ____
ROOT
ATOM      4  O   UNL     1      -3.132  -2.942  24.270  0.00  0.00    -0.375 OA
ATOM      7  O   UNL     1       0.618  -0.007  23.479  0.00  0.00    -0.270 OA
ATOM      8  N   UNL     1      -1.252  -0.492  24.805  0.00  0.00    -0.292 N 
ATOM     10  C   UNL     1      -3.569  -1.036  25.730  0.00  0.00    +0.218 C 
ATOM     11  C   UNL     1      -2.453  -0.013  25.501  0.00  0.00    +0.155 C 
ATOM     12  C   UNL     1      -0.971  -1.929  24.813  0.00  0.00    +0.136 C 
ATOM     13  C   UNL     1      -3.956  -1.796  24.464  0.00  0.00    +0.206 C 
ATOM     14  C   UNL     1      -1.824  -2.660  23.784  0.00  0.00    +0.179 C 
ATOM     15  C   UNL     1      -0.379   0.355  24.101  0.00  0.00    +0.250 C 
ENDROOT
BRANCH  15  16
ATOM      6  O   UNL     1      -1.636   3.757  23.575  0.00  0.00    -0.455 OA
ATOM     16  C   UNL     1      -0.662   1.798  24.094  0.00  0.00    +0.087 A 
ATOM     17  C   UNL     1      -1.642   2.416  23.352  0.00  0.00    +0.220 A 
ATOM     18  C   UNL     1      -0.013   2.825  24.821  0.00  0.00    +0.058 A 
ATOM     20  C   UNL     1      -0.642   3.997  24.471  0.00  0.00    +0.103 A 
ATOM     23  C   UNL     1      -0.450   5.399  24.867  0.00  0.00    +0.086 C 
BRANCH  17  21
ATOM      1  F   UNL     1      -2.153   1.579  21.171  0.00  0.00    -0.163 F 
ATOM      2  F   UNL     1      -3.328   0.804  22.821  0.00  0.00    -0.163 F 
ATOM      3  F   UNL     1      -3.637   2.844  22.132  0.00  0.00    -0.163 F 
ATOM     21  C   UNL     1      -2.653   1.926  22.402  0.00  0.00    +0.451 C 
ENDBRANCH  17  21
ENDBRANCH  15  16
BRANCH  10   5
ATOM      5  O   UNL     1      -4.704  -0.308  26.202  0.00  0.00    -0.469 OA
BRANCH   5  19
ATOM      9  N   UNL     1      -3.986   1.894  26.296  0.00  0.00    -0.218 NA
ATOM     19  C   UNL     1      -4.828   0.980  25.763  0.00  0.00    +0.215 A 
ATOM     22  C   UNL     1      -5.793   1.276  24.813  0.00  0.00    +0.067 A 
ATOM     24  C   UNL     1      -4.120   3.165  25.854  0.00  0.00    +0.042 A 
ATOM     25  C   UNL     1      -5.901   2.595  24.384  0.00  0.00    +0.007 A 
ATOM     26  C   UNL     1      -5.052   3.562  24.909  0.00  0.00    +0.023 A 
ATOM     27  C   UNL     1      -3.195   4.177  26.442  0.00  0.00    +0.066 C 
ENDBRANCH   5  19
ENDBRANCH  10   5
TORSDOF 4
ENDMDL
MODEL 5
REMARK VINA RESULT:      -2.7      1.891      4.440
REMARK  Name = 75536852
REMARK  6 active torsions:
REMARK  status: ('A' for Active; 'I' for Inactive)
REMARK    1  A    between atoms: O_5  and  C_10
REMARK    2  A    between atoms: O_5  and  C_19
REMARK    3  A    between atoms: C_15  and  C_16
REMARK    4  A    between atoms: C_17  and  C_21
REMARK    5  A    between atoms: C_20  and  C_23
REMARK    6  A    between atoms: C_24  and  C_27
REMARK                            x       y       z     vdW  Elec       q    Type
REMARK                         _______ _______ _______ _____ _____    ______ ____
ROOT
ATOM      4  O   UNL     1       1.807  -0.206  23.209  0.00  0.00    -0.375 OA
ATOM      7  O   UNL     1      -0.163   4.149  23.884  0.00  0.00    -0.270 OA
ATOM      8  N   UNL     1       0.027   1.940  24.641  0.00  0.00    -0.292 N 
ATOM     10  C   UNL     1       0.099  -0.599  24.907  0.00  0.00    +0.218 C 
ATOM     11  C   UNL     1      -0.630   0.727  25.146  0.00  0.00    +0.155 C 
ATOM     12  C   UNL     1       1.471   1.902  24.408  0.00  0.00    +0.136 C 
ATOM     13  C   UNL     1       0.533  -0.793  23.457  0.00  0.00    +0.206 C 
ATOM     14  C   UNL     1       1.796   1.213  23.089  0.00  0.00    +0.179 C 
ATOM     15  C   UNL     1      -0.667   3.123  24.338  0.00  0.00    +0.250 C 
ENDROOT
BRANCH  15  16
ATOM      6  O   UNL     1      -4.322   2.873  24.231  0.00  0.00    -0.455 OA
ATOM     16  C   UNL     1      -2.119   3.160  24.573  0.00  0.00    +0.087 A 
ATOM     17  C   UNL     1      -3.080   2.684  23.712  0.00  0.00    +0.220 A 
ATOM     18  C   UNL     1      -2.815   3.674  25.694  0.00  0.00    +0.058 A 
ATOM     20  C   UNL     1      -4.151   3.476  25.437  0.00  0.00    +0.103 A 
ATOM     23  C   UNL     1      -5.377   3.778  26.190  0.00  0.00    +0.086 C 
BRANCH  17  21
ATOM      1  F   UNL     1      -1.755   1.774  21.941  0.00  0.00    -0.163 F 
ATOM      2  F   UNL     1      -3.663   0.821  22.329  0.00  0.00    -0.163 F 
ATOM      3  F   UNL     1      -3.601   2.783  21.395  0.00  0.00    -0.163 F 
ATOM     21  C   UNL     1      -3.025   2.037  22.392  0.00  0.00    +0.451 C 
ENDBRANCH  17  21
ENDBRANCH  15  16
BRANCH  10   5
ATOM      5  O   UNL     1      -0.813  -1.639  25.264  0.00  0.00    -0.469 OA
BRANCH   5  19
ATOM      9  N   UNL     1      -2.772  -2.222  24.170  0.00  0.00    -0.218 NA
ATOM     19  C   UNL     1      -2.138  -1.395  25.032  0.00  0.00    +0.215 A 
ATOM     22  C   UNL     1      -2.749  -0.334  25.681  0.00  0.00    +0.067 A 
ATOM     24  C   UNL     1      -4.081  -1.969  23.949  0.00  0.00    +0.042 A 
ATOM     25  C   UNL     1      -4.097  -0.105  25.426  0.00  0.00    +0.007 A 
ATOM     26  C   UNL     1      -4.783  -0.934  24.546  0.00  0.00    +0.023 A 
ATOM     27  C   UNL     1      -4.785  -2.876  22.996  0.00  0.00    +0.066 C 
ENDBRANCH   5  19
ENDBRANCH  10   5
TORSDOF 4
ENDMDL
MODEL 6
REMARK VINA RESULT:      -2.5      2.472      4.885
REMARK  Name = 75536852
REMARK  6 active torsions:
REMARK  status: ('A' for Active; 'I' for Inactive)
REMARK    1  A    between atoms: O_5  and  C_10
REMARK    2  A    between atoms: O_5  and  C_19
REMARK    3  A    between atoms: C_15  and  C_16
REMARK    4  A    between atoms: C_17  and  C_21
REMARK    5  A    between atoms: C_20  and  C_23
REMARK    6  A    between atoms: C_24  and  C_27
REMARK                            x       y       z     vdW  Elec       q    Type
REMARK                         _______ _______ _______ _____ _____    ______ ____
ROOT
ATOM      4  O   UNL     1      -2.297  -2.896  25.054  0.00  0.00    -0.375 OA
ATOM      7  O   UNL     1      -5.368   0.758  24.329  0.00  0.00    -0.270 OA
ATOM      8  N   UNL     1      -3.191  -0.065  24.049  0.00  0.00    -0.292 N 
ATOM     10  C   UNL     1      -0.858  -1.064  24.325  0.00  0.00    +0.218 C 
ATOM     11  C   UNL     1      -1.744   0.169  24.127  0.00  0.00    +0.155 C 
ATOM     12  C   UNL     1      -3.661  -1.400  23.677  0.00  0.00    +0.136 C 
ATOM     13  C   UNL     1      -1.316  -1.954  25.478  0.00  0.00    +0.206 C 
ATOM     14  C   UNL     1      -3.600  -2.354  24.863  0.00  0.00    +0.179 C 
ATOM     15  C   UNL     1      -4.148   0.919  24.350  0.00  0.00    +0.250 C 
ENDROOT
BRANCH  15  16
ATOM      6  O   UNL     1      -3.701   4.365  25.516  0.00  0.00    -0.455 OA
ATOM     16  C   UNL     1      -3.675   2.261  24.724  0.00  0.00    +0.087 A 
ATOM     17  C   UNL     1      -4.443   3.247  25.300  0.00  0.00    +0.220 A 
ATOM     18  C   UNL     1      -2.379   2.809  24.577  0.00  0.00    +0.058 A 
ATOM     20  C   UNL     1      -2.446   4.090  25.073  0.00  0.00    +0.103 A 
ATOM     23  C   UNL     1      -1.458   5.169  25.211  0.00  0.00    +0.086 C 
BRANCH  17  21
ATOM      1  F   UNL     1      -6.727   2.691  24.857  0.00  0.00    -0.163 F 
ATOM      2  F   UNL     1      -6.118   2.760  26.937  0.00  0.00    -0.163 F 
ATOM      3  F   UNL     1      -6.327   4.606  25.806  0.00  0.00    -0.163 F 
ATOM     21  C   UNL     1      -5.854   3.321  25.710  0.00  0.00    +0.451 C 
ENDBRANCH  17  21
ENDBRANCH  15  16
BRANCH  10   5
ATOM      5  O   UNL     1       0.459  -0.585  24.600  0.00  0.00    -0.469 OA
BRANCH   5  19
ATOM      9  N   UNL     1       2.526   0.059  23.771  0.00  0.00    -0.218 NA
ATOM     19  C   UNL     1       1.269  -0.374  23.520  0.00  0.00    +0.215 A 
ATOM     22  C   UNL     1       0.769  -0.609  22.249  0.00  0.00    +0.067 A 
ATOM     24  C   UNL     1       3.316   0.265  22.694  0.00  0.00    +0.042 A 
ATOM     25  C   UNL     1       1.613  -0.384  21.167  0.00  0.00    +0.007 A 
ATOM     26  C   UNL     1       2.912   0.060  21.385  0.00  0.00    +0.023 A 
ATOM     27  C   UNL     1       4.703   0.745  22.965  0.00  0.00    +0.066 C 
ENDBRANCH   5  19
ENDBRANCH  10   5
TORSDOF 4
ENDMDL
MODEL 7
REMARK VINA RESULT:      -2.4      1.751      4.503
REMARK  Name = 75536852
REMARK  6 active torsions:
REMARK  status: ('A' for Active; 'I' for Inactive)
REMARK    1  A    between atoms: O_5  and  C_10
REMARK    2  A    between atoms: O_5  and  C_19
REMARK    3  A    between atoms: C_15  and  C_16
REMARK    4  A    between atoms: C_17  and  C_21
REMARK    5  A    between atoms: C_20  and  C_23
REMARK    6  A    between atoms: C_24  and  C_27
REMARK                            x       y       z     vdW  Elec       q    Type
REMARK                         _______ _______ _______ _____ _____    ______ ____
ROOT
ATOM      4  O   UNL     1      -0.527  -2.048  25.667  0.00  0.00    -0.375 OA
ATOM      7  O   UNL     1      -4.935  -0.928  24.048  0.00  0.00    -0.270 OA
ATOM      8  N   UNL     1      -2.669  -0.340  24.144  0.00  0.00    -0.292 N 
ATOM     10  C   UNL     1      -0.276   0.230  24.830  0.00  0.00    +0.218 C 
ATOM     11  C   UNL     1      -1.652   0.699  24.347  0.00  0.00    +0.155 C 
ATOM     12  C   UNL     1      -2.222  -1.718  23.932  0.00  0.00    +0.136 C 
ATOM     13  C   UNL     1      -0.349  -0.687  26.048  0.00  0.00    +0.206 C 
ATOM     14  C   UNL     1      -1.847  -2.382  25.250  0.00  0.00    +0.179 C 
ATOM     15  C   UNL     1      -4.050  -0.084  24.180  0.00  0.00    +0.250 C 
ENDROOT
BRANCH  15  16
ATOM      6  O   UNL     1      -4.748   3.512  24.075  0.00  0.00    -0.455 OA
ATOM     16  C   UNL     1      -4.498   1.301  24.393  0.00  0.00    +0.087 A 
ATOM     17  C   UNL     1      -4.172   2.376  23.600  0.00  0.00    +0.220 A 
ATOM     18  C   UNL     1      -5.328   1.808  25.422  0.00  0.00    +0.058 A 
ATOM     20  C   UNL     1      -5.450   3.157  25.184  0.00  0.00    +0.103 A 
ATOM     23  C   UNL     1      -6.168   4.239  25.872  0.00  0.00    +0.086 C 
BRANCH  17  21
ATOM      1  F   UNL     1      -2.067   2.949  22.619  0.00  0.00    -0.163 F 
ATOM      2  F   UNL     1      -3.204   1.374  21.655  0.00  0.00    -0.163 F 
ATOM      3  F   UNL     1      -3.863   3.441  21.498  0.00  0.00    -0.163 F 
ATOM     21  C   UNL     1      -3.354   2.528  22.387  0.00  0.00    +0.451 C 
ENDBRANCH  17  21
ENDBRANCH  15  16
BRANCH  10   5
ATOM      5  O   UNL     1       0.461   1.404  25.175  0.00  0.00    -0.469 OA
BRANCH   5  19
ATOM      9  N   UNL     1      -1.223   2.698  26.104  0.00  0.00    -0.218 NA
ATOM     19  C   UNL     1      -0.235   2.580  25.188  0.00  0.00    +0.215 A 
ATOM     22  C   UNL     1       0.102   3.570  24.279  0.00  0.00    +0.067 A 
ATOM     24  C   UNL     1      -1.904   3.866  26.105  0.00  0.00    +0.042 A 
ATOM     25  C   UNL     1      -0.623   4.757  24.311  0.00  0.00    +0.007 A 
ATOM     26  C   UNL     1      -1.645   4.915  25.239  0.00  0.00    +0.023 A 
ATOM     27  C   UNL     1      -2.997   4.000  27.112  0.00  0.00    +0.066 C 
ENDBRANCH   5  19
ENDBRANCH  10   5
TORSDOF 4
ENDMDL
MODEL 8
REMARK VINA RESULT:      -2.1      2.549      4.836
REMARK  Name = 75536852
REMARK  6 active torsions:
REMARK  status: ('A' for Active; 'I' for Inactive)
REMARK    1  A    between atoms: O_5  and  C_10
REMARK    2  A    between atoms: O_5  and  C_19
REMARK    3  A    between atoms: C_15  and  C_16
REMARK    4  A    between atoms: C_17  and  C_21
REMARK    5  A    between atoms: C_20  and  C_23
REMARK    6  A    between atoms: C_24  and  C_27
REMARK                            x       y       z     vdW  Elec       q    Type
REMARK                         _______ _______ _______ _____ _____    ______ ____
ROOT
ATOM      4  O   UNL     1       1.776  -0.527  22.910  0.00  0.00    -0.375 OA
ATOM      7  O   UNL     1      -0.524   3.701  23.282  0.00  0.00    -0.270 OA
ATOM      8  N   UNL     1      -0.074   1.616  24.254  0.00  0.00    -0.292 N 
ATOM     10  C   UNL     1       0.249  -0.860  24.784  0.00  0.00    +0.218 C 
ATOM     11  C   UNL     1      -0.576   0.420  24.942  0.00  0.00    +0.155 C 
ATOM     12  C   UNL     1       1.345   1.670  23.899  0.00  0.00    +0.136 C 
ATOM     13  C   UNL     1       0.584  -1.184  23.330  0.00  0.00    +0.206 C 
ATOM     14  C   UNL     1       1.626   0.863  22.639  0.00  0.00    +0.179 C 
ATOM     15  C   UNL     1      -0.895   2.696  23.887  0.00  0.00    +0.250 C 
ENDROOT
BRANCH  15  16
ATOM      6  O   UNL     1      -4.245   3.064  25.327  0.00  0.00    -0.455 OA
ATOM     16  C   UNL     1      -2.321   2.641  24.244  0.00  0.00    +0.087 A 
ATOM     17  C   UNL     1      -2.916   3.342  25.267  0.00  0.00    +0.220 A 
ATOM     18  C   UNL     1      -3.351   1.882  23.637  0.00  0.00    +0.058 A 
ATOM     20  C   UNL     1      -4.501   2.174  24.332  0.00  0.00    +0.103 A 
ATOM     23  C   UNL     1      -5.895   1.726  24.204  0.00  0.00    +0.086 C 
BRANCH  17  21
ATOM      1  F   UNL     1      -1.704   5.349  25.740  0.00  0.00    -0.163 F 
ATOM      2  F   UNL     1      -3.391   4.895  27.023  0.00  0.00    -0.163 F 
ATOM      3  F   UNL     1      -1.563   3.729  27.182  0.00  0.00    -0.163 F 
ATOM     21  C   UNL     1      -2.412   4.297  26.266  0.00  0.00    +0.451 C 
ENDBRANCH  17  21
ENDBRANCH  15  16
BRANCH  10   5
ATOM      5  O   UNL     1      -0.533  -1.924  25.330  0.00  0.00    -0.469 OA
BRANCH   5  19
ATOM      9  N   UNL     1      -2.461  -2.571  24.218  0.00  0.00    -0.218 NA
ATOM     19  C   UNL     1      -1.888  -1.821  25.186  0.00  0.00    +0.215 A 
ATOM     22  C   UNL     1      -2.590  -0.967  26.023  0.00  0.00    +0.067 A 
ATOM     24  C   UNL     1      -3.802  -2.459  24.085  0.00  0.00    +0.042 A 
ATOM     25  C   UNL     1      -3.967  -0.878  25.855  0.00  0.00    +0.007 A 
ATOM     26  C   UNL     1      -4.592  -1.635  24.871  0.00  0.00    +0.023 A 
ATOM     27  C   UNL     1      -4.439  -3.283  23.017  0.00  0.00    +0.066 C 
ENDBRANCH   5  19
ENDBRANCH  10   5
TORSDOF 4
ENDMDL
MODEL 9
REMARK VINA RESULT:      -2.0      2.229      2.611
REMARK  Name = 75536852
REMARK  6 active torsions:
REMARK  status: ('A' for Active; 'I' for Inactive)
REMARK    1  A    between atoms: O_5  and  C_10
REMARK    2  A    between atoms: O_5  and  C_19
REMARK    3  A    between atoms: C_15  and  C_16
REMARK    4  A    between atoms: C_17  and  C_21
REMARK    5  A    between atoms: C_20  and  C_23
REMARK    6  A    between atoms: C_24  and  C_27
REMARK                            x       y       z     vdW  Elec       q    Type
REMARK                         _______ _______ _______ _____ _____    ______ ____
ROOT
ATOM      4  O   UNL     1      -0.178   5.486  24.479  0.00  0.00    -0.375 OA
ATOM      7  O   UNL     1      -4.819   4.190  24.188  0.00  0.00    -0.270 OA
ATOM      8  N   UNL     1      -2.741   3.839  25.214  0.00  0.00    -0.292 N 
ATOM     10  C   UNL     1      -0.286   3.421  25.774  0.00  0.00    +0.218 C 
ATOM     11  C   UNL     1      -1.721   2.895  25.688  0.00  0.00    +0.155 C 
ATOM     12  C   UNL     1      -2.466   5.273  25.322  0.00  0.00    +0.136 C 
ATOM     13  C   UNL     1       0.180   4.107  24.493  0.00  0.00    +0.206 C 
ATOM     14  C   UNL     1      -1.550   5.742  24.199  0.00  0.00    +0.179 C 
ATOM     15  C   UNL     1      -3.952   3.435  24.627  0.00  0.00    +0.250 C 
ENDROOT
BRANCH  15  16
ATOM      6  O   UNL     1      -5.224   0.004  24.840  0.00  0.00    -0.455 OA
ATOM     16  C   UNL     1      -4.228   1.994  24.519  0.00  0.00    +0.087 A 
ATOM     17  C   UNL     1      -5.251   1.327  25.152  0.00  0.00    +0.220 A 
ATOM     18  C   UNL     1      -3.528   1.019  23.768  0.00  0.00    +0.058 A 
ATOM     20  C   UNL     1      -4.172  -0.174  23.997  0.00  0.00    +0.103 A 
ATOM     23  C   UNL     1      -3.948  -1.546  23.520  0.00  0.00    +0.086 C 
BRANCH  17  21
ATOM      1  F   UNL     1      -7.513   2.046  25.445  0.00  0.00    -0.163 F 
ATOM      2  F   UNL     1      -6.661   0.817  27.016  0.00  0.00    -0.163 F 
ATOM      3  F   UNL     1      -6.015   2.880  26.781  0.00  0.00    -0.163 F 
ATOM     21  C   UNL     1      -6.323   1.751  26.065  0.00  0.00    +0.451 C 
ENDBRANCH  17  21
ENDBRANCH  15  16
BRANCH  10   5
ATOM      5  O   UNL     1       0.551   2.291  26.028  0.00  0.00    -0.469 OA
BRANCH   5  19
ATOM      9  N   UNL     1       0.871   1.012  24.122  0.00  0.00    -0.218 NA
ATOM     19  C   UNL     1       0.271   1.153  25.325  0.00  0.00    +0.215 A 
ATOM     22  C   UNL     1      -0.599   0.223  25.872  0.00  0.00    +0.067 A 
ATOM     24  C   UNL     1       0.584  -0.117  23.436  0.00  0.00    +0.042 A 
ATOM     25  C   UNL     1      -0.870  -0.925  25.136  0.00  0.00    +0.007 A 
ATOM     26  C   UNL     1      -0.271  -1.106  23.895  0.00  0.00    +0.023 A 
ATOM     27  C   UNL     1       1.242  -0.277  22.107  0.00  0.00    +0.066 C 
ENDBRANCH   5  19
ENDBRANCH  10   5
TORSDOF 4
ENDMDL
MODEL 10
REMARK VINA RESULT:      -1.9      2.725      6.081
REMARK  Name = 75536852
REMARK  6 active torsions:
REMARK  status: ('A' for Active; 'I' for Inactive)
REMARK    1  A    between atoms: O_5  and  C_10
REMARK    2  A    between atoms: O_5  and  C_19
REMARK    3  A    between atoms: C_15  and  C_16
REMARK    4  A    between atoms: C_17  and  C_21
REMARK    5  A    between atoms: C_20  and  C_23
REMARK    6  A    between atoms: C_24  and  C_27
REMARK                            x       y       z     vdW  Elec       q    Type
REMARK                         _______ _______ _______ _____ _____    ______ ____
ROOT
ATOM      4  O   UNL     1      -3.521  -2.651  24.064  0.00  0.00    -0.375 OA
ATOM      7  O   UNL     1       0.772  -0.452  24.273  0.00  0.00    -0.270 OA
ATOM      8  N   UNL     1      -1.420  -0.567  25.095  0.00  0.00    -0.292 N 
ATOM     10  C   UNL     1      -3.950  -0.668  25.420  0.00  0.00    +0.218 C 
ATOM     11  C   UNL     1      -2.648   0.134  25.492  0.00  0.00    +0.155 C 
ATOM     12  C   UNL     1      -1.410  -2.030  25.137  0.00  0.00    +0.136 C 
ATOM     13  C   UNL     1      -4.148  -1.373  24.080  0.00  0.00    +0.206 C 
ATOM     14  C   UNL     1      -2.105  -2.618  23.916  0.00  0.00    +0.179 C 
ATOM     15  C   UNL     1      -0.266   0.095  24.644  0.00  0.00    +0.250 C 
ENDROOT
BRANCH  15  16
ATOM      6  O   UNL     1      -0.196   3.699  25.308  0.00  0.00    -0.455 OA
ATOM     16  C   UNL     1      -0.276   1.566  24.603  0.00  0.00    +0.087 A 
ATOM     17  C   UNL     1      -0.141   2.396  25.691  0.00  0.00    +0.220 A 
ATOM     18  C   UNL     1      -0.423   2.413  23.478  0.00  0.00    +0.058 A 
ATOM     20  C   UNL     1      -0.368   3.700  23.959  0.00  0.00    +0.103 A 
ATOM     23  C   UNL     1      -0.453   5.019  23.317  0.00  0.00    +0.086 C 
BRANCH  17  21
ATOM      1  F   UNL     1      -0.156   0.854  27.519  0.00  0.00    -0.163 F 
ATOM      2  F   UNL     1       1.300   2.458  27.600  0.00  0.00    -0.163 F 
ATOM      3  F   UNL     1      -0.807   2.889  27.919  0.00  0.00    -0.163 F 
ATOM     21  C   UNL     1       0.044   2.156  27.131  0.00  0.00    +0.451 C 
ENDBRANCH  17  21
ENDBRANCH  15  16
BRANCH  10   5
ATOM      5  O   UNL     1      -5.017   0.261  25.620  0.00  0.00    -0.469 OA
BRANCH   5  19
ATOM      9  N   UNL     1      -4.263   1.683  23.952  0.00  0.00    -0.218 NA
ATOM     19  C   UNL     1      -4.804   1.538  25.183  0.00  0.00    +0.215 A 
ATOM     22  C   UNL     1      -5.146   2.597  26.010  0.00  0.00    +0.067 A 
ATOM     24  C   UNL     1      -4.056   2.952  23.533  0.00  0.00    +0.042 A 
ATOM     25  C   UNL     1      -4.917   3.887  25.543  0.00  0.00    +0.007 A 
ATOM     26  C   UNL     1      -4.363   4.076  24.283  0.00  0.00    +0.023 A 
ATOM     27  C   UNL     1      -3.457   3.118  22.176  0.00  0.00    +0.066 C 
ENDBRANCH   5  19
ENDBRANCH  10   5
TORSDOF 4
ENDMDL
