MODEL 1
REMARK VINA RESULT:       5.1      0.000      0.000
REMARK  Name = 11884107
REMARK  9 active torsions:
REMARK  status: ('A' for Active; 'I' for Inactive)
REMARK    1  A    between atoms: S_1  and  N_8
REMARK    2  A    between atoms: S_1  and  C_17
REMARK    3  A    between atoms: O_4  and  C_14
REMARK    4  A    between atoms: O_4  and  C_18
REMARK    5  A    between atoms: N_8  and  C_13
REMARK    6  A    between atoms: N_9  and  C_23
REMARK    7  A    between atoms: C_28  and  C_30
REMARK    8  A    between atoms: C_30  and  C_34
REMARK    9  A    between atoms: C_30  and  C_35
REMARK                            x       y       z     vdW  Elec       q    Type
REMARK                         _______ _______ _______ _____ _____    ______ ____
ROOT
ATOM      2  O   UNL     1      -2.498   0.042  23.763  0.00  0.00    -0.369 OA
ATOM      3  O   UNL     1      -5.067  -1.519  24.413  0.00  0.00    -0.368 OA
ATOM     11  C   UNL     1      -4.354  -0.497  25.140  0.00  0.00    +0.171 C 
ATOM     12  C   UNL     1      -2.875  -0.742  24.907  0.00  0.00    +0.191 C 
ATOM     13  C   UNL     1      -4.604   0.851  24.511  0.00  0.00    +0.133 C 
ATOM     14  C   UNL     1      -2.830  -2.222  24.610  0.00  0.00    +0.235 C 
ATOM     15  C   UNL     1      -3.593   0.888  23.381  0.00  0.00    +0.183 C 
ATOM     16  C   UNL     1      -4.116  -2.431  23.844  0.00  0.00    +0.207 C 
ENDROOT
BRANCH  13   8
ATOM      8  N   UNL     1      -4.304   1.928  25.484  0.00  0.00    -0.182 NA
ATOM     36  H   UNL     1      -4.130   1.656  26.459  0.00  0.00    +0.148 HD
BRANCH   8   1
ATOM      1  S   UNL     1      -4.643   3.543  25.086  0.00  0.00    +0.061 S 
ATOM      5  O   UNL     1      -5.356   4.172  26.181  0.00  0.00    -0.153 OA
ATOM      6  O   UNL     1      -5.186   3.588  23.741  0.00  0.00    -0.153 OA
BRANCH   1  17
ATOM     10  N   UNL     1      -2.066   2.231  25.811  0.00  0.00    -0.253 NA
ATOM     17  C   UNL     1      -3.024   4.248  25.011  0.00  0.00    +0.131 A 
ATOM     19  C   UNL     1      -1.920   3.500  25.388  0.00  0.00    +0.097 A 
ATOM     20  C   UNL     1      -2.920   5.563  24.566  0.00  0.00    +0.031 A 
ATOM     21  C   UNL     1      -0.653   4.117  25.308  0.00  0.00    +0.002 A 
ATOM     22  C   UNL     1      -1.670   6.164  24.490  0.00  0.00    +0.003 A 
ATOM     24  C   UNL     1      -0.537   5.444  24.859  0.00  0.00    +0.010 A 
ATOM     25  C   UNL     1       0.470   3.369  25.686  0.00  0.00    +0.011 A 
ATOM     29  C   UNL     1      -0.957   1.543  26.167  0.00  0.00    +0.111 A 
ATOM     31  C   UNL     1       0.322   2.061  26.123  0.00  0.00    +0.020 A 
ENDBRANCH   1  17
ENDBRANCH   8   1
ENDBRANCH  13   8
BRANCH  14   4
ATOM      4  O   UNL     1      -1.699  -2.612  23.865  0.00  0.00    -0.442 OA
BRANCH   4  18
ATOM      7  O   UNL     1      -0.115  -2.288  25.482  0.00  0.00    -0.226 OA
ATOM      9  N   UNL     1       0.232  -1.610  23.268  0.00  0.00    -0.251 N 
ATOM     18  C   UNL     1      -0.472  -2.171  24.317  0.00  0.00    +0.405 C 
ATOM     37  H   UNL     1      -0.237  -1.605  22.365  0.00  0.00    +0.158 HD
BRANCH   9  23
ATOM     23  C   UNL     1       1.524  -1.039  23.295  0.00  0.00    +0.036 A 
ATOM     26  C   UNL     1       1.700   0.262  22.851  0.00  0.00    +0.024 A 
ATOM     27  C   UNL     1       2.590  -1.791  23.762  0.00  0.00    +0.024 A 
ATOM     28  C   UNL     1       4.059   0.082  23.344  0.00  0.00    -0.045 A 
ATOM     32  C   UNL     1       2.976   0.826  22.875  0.00  0.00    +0.006 A 
ATOM     33  C   UNL     1       3.866  -1.227  23.788  0.00  0.00    +0.006 A 
BRANCH  28  30
ATOM     30  C   UNL     1       5.423   0.684  23.371  0.00  0.00    +0.013 C 
ATOM     34  C   UNL     1       5.846   1.119  24.786  0.00  0.00    +0.012 C 
ATOM     35  C   UNL     1       6.491  -0.249  22.769  0.00  0.00    +0.012 C 
ENDBRANCH  28  30
ENDBRANCH   9  23
ENDBRANCH   4  18
ENDBRANCH  14   4
TORSDOF 7
ENDMDL
MODEL 2
REMARK VINA RESULT:       5.7      1.458      2.087
REMARK  Name = 11884107
REMARK  9 active torsions:
REMARK  status: ('A' for Active; 'I' for Inactive)
REMARK    1  A    between atoms: S_1  and  N_8
REMARK    2  A    between atoms: S_1  and  C_17
REMARK    3  A    between atoms: O_4  and  C_14
REMARK    4  A    between atoms: O_4  and  C_18
REMARK    5  A    between atoms: N_8  and  C_13
REMARK    6  A    between atoms: N_9  and  C_23
REMARK    7  A    between atoms: C_28  and  C_30
REMARK    8  A    between atoms: C_30  and  C_34
REMARK    9  A    between atoms: C_30  and  C_35
REMARK                            x       y       z     vdW  Elec       q    Type
REMARK                         _______ _______ _______ _____ _____    ______ ____
ROOT
ATOM      2  O   UNL     1      -3.869  -0.569  23.657  0.00  0.00    -0.369 OA
ATOM      3  O   UNL     1      -4.238  -0.826  26.700  0.00  0.00    -0.368 OA
ATOM     11  C   UNL     1      -4.197   0.325  25.831  0.00  0.00    +0.171 C 
ATOM     12  C   UNL     1      -3.166   0.029  24.758  0.00  0.00    +0.191 C 
ATOM     13  C   UNL     1      -5.494   0.440  25.068  0.00  0.00    +0.133 C 
ATOM     14  C   UNL     1      -2.253  -0.959  25.443  0.00  0.00    +0.235 C 
ATOM     15  C   UNL     1      -5.283  -0.504  23.901  0.00  0.00    +0.183 C 
ATOM     16  C   UNL     1      -3.223  -1.754  26.288  0.00  0.00    +0.207 C 
ENDROOT
BRANCH  13   8
ATOM      8  N   UNL     1      -5.665   1.824  24.567  0.00  0.00    -0.182 NA
ATOM     36  H   UNL     1      -5.707   1.962  23.551  0.00  0.00    +0.148 HD
BRANCH   8   1
ATOM      1  S   UNL     1      -5.389   3.138  25.606  0.00  0.00    +0.061 S 
ATOM      5  O   UNL     1      -5.722   2.758  26.965  0.00  0.00    -0.153 OA
ATOM      6  O   UNL     1      -5.973   4.329  25.018  0.00  0.00    -0.153 OA
BRANCH   1  17
ATOM     10  N   UNL     1      -3.652   2.616  23.240  0.00  0.00    -0.253 NA
ATOM     17  C   UNL     1      -3.633   3.321  25.505  0.00  0.00    +0.131 A 
ATOM     19  C   UNL     1      -2.970   3.034  24.322  0.00  0.00    +0.097 A 
ATOM     20  C   UNL     1      -2.970   3.756  26.648  0.00  0.00    +0.031 A 
ATOM     21  C   UNL     1      -1.569   3.199  24.302  0.00  0.00    +0.002 A 
ATOM     22  C   UNL     1      -1.590   3.916  26.621  0.00  0.00    +0.003 A 
ATOM     24  C   UNL     1      -0.890   3.638  25.450  0.00  0.00    +0.010 A 
ATOM     25  C   UNL     1      -0.889   2.912  23.111  0.00  0.00    +0.011 A 
ATOM     29  C   UNL     1      -2.958   2.350  22.109  0.00  0.00    +0.111 A 
ATOM     31  C   UNL     1      -1.589   2.480  21.993  0.00  0.00    +0.020 A 
ENDBRANCH   1  17
ENDBRANCH   8   1
ENDBRANCH  13   8
BRANCH  14   4
ATOM      4  O   UNL     1      -1.537  -1.778  24.547  0.00  0.00    -0.442 OA
BRANCH   4  18
ATOM      7  O   UNL     1       0.424  -2.510  25.469  0.00  0.00    -0.226 OA
ATOM      9  N   UNL     1       0.389  -0.883  23.785  0.00  0.00    -0.251 N 
ATOM     18  C   UNL     1      -0.163  -1.787  24.673  0.00  0.00    +0.405 C 
ATOM     37  H   UNL     1      -0.267  -0.371  23.201  0.00  0.00    +0.158 HD
BRANCH   9  23
ATOM     23  C   UNL     1       1.756  -0.580  23.589  0.00  0.00    +0.036 A 
ATOM     26  C   UNL     1       2.715  -1.521  23.929  0.00  0.00    +0.024 A 
ATOM     27  C   UNL     1       2.110   0.651  23.064  0.00  0.00    +0.024 A 
ATOM     28  C   UNL     1       4.436   0.013  23.208  0.00  0.00    -0.045 A 
ATOM     32  C   UNL     1       4.064  -1.222  23.738  0.00  0.00    +0.006 A 
ATOM     33  C   UNL     1       3.459   0.951  22.870  0.00  0.00    +0.006 A 
BRANCH  28  30
ATOM     30  C   UNL     1       5.878   0.334  23.002  0.00  0.00    +0.013 C 
ATOM     34  C   UNL     1       6.464   1.172  24.154  0.00  0.00    +0.012 C 
ATOM     35  C   UNL     1       6.736  -0.925  22.782  0.00  0.00    +0.012 C 
ENDBRANCH  28  30
ENDBRANCH   9  23
ENDBRANCH   4  18
ENDBRANCH  14   4
TORSDOF 7
ENDMDL
MODEL 3
REMARK VINA RESULT:       6.1      1.437      2.023
REMARK  Name = 11884107
REMARK  9 active torsions:
REMARK  status: ('A' for Active; 'I' for Inactive)
REMARK    1  A    between atoms: S_1  and  N_8
REMARK    2  A    between atoms: S_1  and  C_17
REMARK    3  A    between atoms: O_4  and  C_14
REMARK    4  A    between atoms: O_4  and  C_18
REMARK    5  A    between atoms: N_8  and  C_13
REMARK    6  A    between atoms: N_9  and  C_23
REMARK    7  A    between atoms: C_28  and  C_30
REMARK    8  A    between atoms: C_30  and  C_34
REMARK    9  A    between atoms: C_30  and  C_35
REMARK                            x       y       z     vdW  Elec       q    Type
REMARK                         _______ _______ _______ _____ _____    ______ ____
ROOT
ATOM      2  O   UNL     1      -3.066   0.003  23.810  0.00  0.00    -0.369 OA
ATOM      3  O   UNL     1      -3.589  -2.451  25.590  0.00  0.00    -0.368 OA
ATOM     11  C   UNL     1      -3.472  -1.047  25.899  0.00  0.00    +0.171 C 
ATOM     12  C   UNL     1      -2.400  -0.483  24.987  0.00  0.00    +0.191 C 
ATOM     13  C   UNL     1      -4.726  -0.321  25.480  0.00  0.00    +0.133 C 
ATOM     14  C   UNL     1      -1.550  -1.695  24.690  0.00  0.00    +0.235 C 
ATOM     15  C   UNL     1      -4.487  -0.061  24.005  0.00  0.00    +0.183 C 
ATOM     16  C   UNL     1      -2.582  -2.798  24.627  0.00  0.00    +0.207 C 
ENDROOT
BRANCH  13   8
ATOM      8  N   UNL     1      -4.833   0.967  26.204  0.00  0.00    -0.182 NA
ATOM     36  H   UNL     1      -4.781   0.944  27.229  0.00  0.00    +0.148 HD
BRANCH   8   1
ATOM      1  S   UNL     1      -5.424   2.340  25.400  0.00  0.00    +0.061 S 
ATOM      5  O   UNL     1      -5.553   3.434  26.342  0.00  0.00    -0.153 OA
ATOM      6  O   UNL     1      -6.553   1.950  24.576  0.00  0.00    -0.153 OA
BRANCH   1  17
ATOM     10  N   UNL     1      -2.576   2.852  26.120  0.00  0.00    -0.253 NA
ATOM     17  C   UNL     1      -4.092   2.721  24.300  0.00  0.00    +0.131 A 
ATOM     19  C   UNL     1      -2.817   2.934  24.798  0.00  0.00    +0.097 A 
ATOM     20  C   UNL     1      -4.387   2.795  22.942  0.00  0.00    +0.031 A 
ATOM     21  C   UNL     1      -1.795   3.235  23.873  0.00  0.00    +0.002 A 
ATOM     22  C   UNL     1      -3.376   3.092  22.037  0.00  0.00    +0.003 A 
ATOM     24  C   UNL     1      -2.082   3.312  22.500  0.00  0.00    +0.010 A 
ATOM     25  C   UNL     1      -0.501   3.452  24.367  0.00  0.00    +0.011 A 
ATOM     29  C   UNL     1      -1.314   3.068  26.556  0.00  0.00    +0.111 A 
ATOM     31  C   UNL     1      -0.251   3.369  25.729  0.00  0.00    +0.020 A 
ENDBRANCH   1  17
ENDBRANCH   8   1
ENDBRANCH  13   8
BRANCH  14   4
ATOM      4  O   UNL     1      -0.815  -1.587  23.492  0.00  0.00    -0.442 OA
BRANCH   4  18
ATOM      7  O   UNL     1       0.079   0.517  23.550  0.00  0.00    -0.226 OA
ATOM      9  N   UNL     1       1.430  -1.389  23.395  0.00  0.00    -0.251 N 
ATOM     18  C   UNL     1       0.238  -0.696  23.484  0.00  0.00    +0.405 C 
ATOM     37  H   UNL     1       1.357  -2.402  23.349  0.00  0.00    +0.158 HD
BRANCH   9  23
ATOM     23  C   UNL     1       2.741  -0.863  23.356  0.00  0.00    +0.036 A 
ATOM     26  C   UNL     1       3.778  -1.582  23.931  0.00  0.00    +0.024 A 
ATOM     27  C   UNL     1       2.965   0.361  22.747  0.00  0.00    +0.024 A 
ATOM     28  C   UNL     1       5.313   0.168  23.284  0.00  0.00    -0.045 A 
ATOM     32  C   UNL     1       5.072  -1.062  23.895  0.00  0.00    +0.006 A 
ATOM     33  C   UNL     1       4.259   0.880  22.709  0.00  0.00    +0.006 A 
BRANCH  28  30
ATOM     30  C   UNL     1       6.696   0.724  23.244  0.00  0.00    +0.013 C 
ATOM     34  C   UNL     1       6.979   1.681  24.417  0.00  0.00    +0.012 C 
ATOM     35  C   UNL     1       7.772  -0.376  23.195  0.00  0.00    +0.012 C 
ENDBRANCH  28  30
ENDBRANCH   9  23
ENDBRANCH   4  18
ENDBRANCH  14   4
TORSDOF 7
ENDMDL
MODEL 4
REMARK VINA RESULT:       6.7      2.385      6.657
REMARK  Name = 11884107
REMARK  9 active torsions:
REMARK  status: ('A' for Active; 'I' for Inactive)
REMARK    1  A    between atoms: S_1  and  N_8
REMARK    2  A    between atoms: S_1  and  C_17
REMARK    3  A    between atoms: O_4  and  C_14
REMARK    4  A    between atoms: O_4  and  C_18
REMARK    5  A    between atoms: N_8  and  C_13
REMARK    6  A    between atoms: N_9  and  C_23
REMARK    7  A    between atoms: C_28  and  C_30
REMARK    8  A    between atoms: C_30  and  C_34
REMARK    9  A    between atoms: C_30  and  C_35
REMARK                            x       y       z     vdW  Elec       q    Type
REMARK                         _______ _______ _______ _____ _____    ______ ____
ROOT
ATOM      2  O   UNL     1      -3.520   3.642  24.110  0.00  0.00    -0.369 OA
ATOM      3  O   UNL     1      -2.825   5.570  26.403  0.00  0.00    -0.368 OA
ATOM     11  C   UNL     1      -2.172   4.378  25.919  0.00  0.00    +0.171 C 
ATOM     12  C   UNL     1      -3.268   3.414  25.506  0.00  0.00    +0.191 C 
ATOM     13  C   UNL     1      -1.445   4.676  24.632  0.00  0.00    +0.133 C 
ATOM     14  C   UNL     1      -4.431   3.851  26.363  0.00  0.00    +0.235 C 
ATOM     15  C   UNL     1      -2.540   4.554  23.590  0.00  0.00    +0.183 C 
ATOM     16  C   UNL     1      -4.243   5.351  26.413  0.00  0.00    +0.207 C 
ENDROOT
BRANCH  13   8
ATOM      8  N   UNL     1      -0.405   3.649  24.388  0.00  0.00    -0.182 NA
ATOM     36  H   UNL     1      -0.013   3.582  23.442  0.00  0.00    +0.148 HD
BRANCH   8   1
ATOM      1  S   UNL     1      -0.184   2.390  25.505  0.00  0.00    +0.061 S 
ATOM      5  O   UNL     1      -1.415   2.174  26.240  0.00  0.00    -0.153 OA
ATOM      6  O   UNL     1       1.061   2.610  26.217  0.00  0.00    -0.153 OA
BRANCH   1  17
ATOM     10  N   UNL     1       2.158   1.871  23.735  0.00  0.00    -0.253 NA
ATOM     17  C   UNL     1       0.069   0.999  24.443  0.00  0.00    +0.131 A 
ATOM     19  C   UNL     1       1.220   0.907  23.678  0.00  0.00    +0.097 A 
ATOM     20  C   UNL     1      -0.927   0.027  24.417  0.00  0.00    +0.031 A 
ATOM     21  C   UNL     1       1.366  -0.225  22.849  0.00  0.00    +0.002 A 
ATOM     22  C   UNL     1      -0.776  -1.086  23.598  0.00  0.00    +0.003 A 
ATOM     24  C   UNL     1       0.368  -1.213  22.815  0.00  0.00    +0.010 A 
ATOM     25  C   UNL     1       2.528  -0.328  22.071  0.00  0.00    +0.011 A 
ATOM     29  C   UNL     1       3.264   1.734  22.969  0.00  0.00    +0.111 A 
ATOM     31  C   UNL     1       3.495   0.665  22.128  0.00  0.00    +0.020 A 
ENDBRANCH   1  17
ENDBRANCH   8   1
ENDBRANCH  13   8
BRANCH  14   4
ATOM      4  O   UNL     1      -5.687   3.491  25.835  0.00  0.00    -0.442 OA
BRANCH   4  18
ATOM      7  O   UNL     1      -6.810   1.832  24.732  0.00  0.00    -0.226 OA
ATOM      9  N   UNL     1      -4.635   1.518  25.540  0.00  0.00    -0.251 N 
ATOM     18  C   UNL     1      -5.802   2.221  25.308  0.00  0.00    +0.405 C 
ATOM     37  H   UNL     1      -3.903   2.016  26.040  0.00  0.00    +0.158 HD
BRANCH   9  23
ATOM     23  C   UNL     1      -4.333   0.188  25.169  0.00  0.00    +0.036 A 
ATOM     26  C   UNL     1      -3.821  -0.682  26.119  0.00  0.00    +0.024 A 
ATOM     27  C   UNL     1      -4.553  -0.221  23.864  0.00  0.00    +0.024 A 
ATOM     28  C   UNL     1      -3.738  -2.420  24.443  0.00  0.00    -0.045 A 
ATOM     32  C   UNL     1      -3.520  -1.994  25.753  0.00  0.00    +0.006 A 
ATOM     33  C   UNL     1      -4.254  -1.533  23.498  0.00  0.00    +0.006 A 
BRANCH  28  30
ATOM     30  C   UNL     1      -3.418  -3.823  24.051  0.00  0.00    +0.013 C 
ATOM     34  C   UNL     1      -4.451  -4.411  23.072  0.00  0.00    +0.012 C 
ATOM     35  C   UNL     1      -2.001  -3.962  23.463  0.00  0.00    +0.012 C 
ENDBRANCH  28  30
ENDBRANCH   9  23
ENDBRANCH   4  18
ENDBRANCH  14   4
TORSDOF 7
ENDMDL
MODEL 5
REMARK VINA RESULT:       7.6      0.870      1.882
REMARK  Name = 11884107
REMARK  9 active torsions:
REMARK  status: ('A' for Active; 'I' for Inactive)
REMARK    1  A    between atoms: S_1  and  N_8
REMARK    2  A    between atoms: S_1  and  C_17
REMARK    3  A    between atoms: O_4  and  C_14
REMARK    4  A    between atoms: O_4  and  C_18
REMARK    5  A    between atoms: N_8  and  C_13
REMARK    6  A    between atoms: N_9  and  C_23
REMARK    7  A    between atoms: C_28  and  C_30
REMARK    8  A    between atoms: C_30  and  C_34
REMARK    9  A    between atoms: C_30  and  C_35
REMARK                            x       y       z     vdW  Elec       q    Type
REMARK                         _______ _______ _______ _____ _____    ______ ____
ROOT
ATOM      2  O   UNL     1      -2.852  -0.016  23.751  0.00  0.00    -0.369 OA
ATOM      3  O   UNL     1      -4.698  -2.360  24.497  0.00  0.00    -0.368 OA
ATOM     11  C   UNL     1      -4.262  -1.206  25.244  0.00  0.00    +0.171 C 
ATOM     12  C   UNL     1      -2.822  -0.944  24.847  0.00  0.00    +0.191 C 
ATOM     13  C   UNL     1      -4.999   0.022  24.770  0.00  0.00    +0.133 C 
ATOM     14  C   UNL     1      -2.348  -2.310  24.411  0.00  0.00    +0.235 C 
ATOM     15  C   UNL     1      -4.197   0.449  23.556  0.00  0.00    +0.183 C 
ATOM     16  C   UNL     1      -3.585  -2.881  23.756  0.00  0.00    +0.207 C 
ENDROOT
BRANCH  13   8
ATOM      8  N   UNL     1      -4.939   1.080  25.806  0.00  0.00    -0.182 NA
ATOM     36  H   UNL     1      -5.340   0.869  26.728  0.00  0.00    +0.148 HD
BRANCH   8   1
ATOM      1  S   UNL     1      -4.603   2.682  25.358  0.00  0.00    +0.061 S 
ATOM      5  O   UNL     1      -5.140   3.587  26.356  0.00  0.00    -0.153 OA
ATOM      6  O   UNL     1      -4.943   2.856  23.957  0.00  0.00    -0.153 OA
BRANCH   1  17
ATOM     10  N   UNL     1      -2.817   4.986  24.733  0.00  0.00    -0.253 NA
ATOM     17  C   UNL     1      -2.839   2.731  25.469  0.00  0.00    +0.131 A 
ATOM     19  C   UNL     1      -2.152   3.888  25.139  0.00  0.00    +0.097 A 
ATOM     20  C   UNL     1      -2.195   1.573  25.894  0.00  0.00    +0.031 A 
ATOM     21  C   UNL     1      -0.746   3.867  25.247  0.00  0.00    +0.002 A 
ATOM     22  C   UNL     1      -0.809   1.559  25.997  0.00  0.00    +0.003 A 
ATOM     24  C   UNL     1      -0.084   2.703  25.675  0.00  0.00    +0.010 A 
ATOM     25  C   UNL     1      -0.041   5.032  24.915  0.00  0.00    +0.011 A 
ATOM     29  C   UNL     1      -2.099   6.090  24.423  0.00  0.00    +0.111 A 
ATOM     31  C   UNL     1      -0.723   6.165  24.496  0.00  0.00    +0.020 A 
ENDBRANCH   1  17
ENDBRANCH   8   1
ENDBRANCH  13   8
BRANCH  14   4
ATOM      4  O   UNL     1      -1.250  -2.269  23.527  0.00  0.00    -0.442 OA
BRANCH   4  18
ATOM      7  O   UNL     1       0.212  -1.894  25.245  0.00  0.00    -0.226 OA
ATOM      9  N   UNL     1       0.765  -1.386  23.027  0.00  0.00    -0.251 N 
ATOM     18  C   UNL     1      -0.045  -1.845  24.048  0.00  0.00    +0.405 C 
ATOM     37  H   UNL     1       0.371  -1.426  22.090  0.00  0.00    +0.158 HD
BRANCH   9  23
ATOM     23  C   UNL     1       2.075  -0.865  23.123  0.00  0.00    +0.036 A 
ATOM     26  C   UNL     1       2.334   0.411  22.646  0.00  0.00    +0.024 A 
ATOM     27  C   UNL     1       3.074  -1.639  23.690  0.00  0.00    +0.024 A 
ATOM     28  C   UNL     1       4.644   0.158  23.308  0.00  0.00    -0.045 A 
ATOM     32  C   UNL     1       3.627   0.925  22.738  0.00  0.00    +0.006 A 
ATOM     33  C   UNL     1       4.367  -1.124  23.784  0.00  0.00    +0.006 A 
BRANCH  28  30
ATOM     30  C   UNL     1       6.026   0.708  23.408  0.00  0.00    +0.013 C 
ATOM     34  C   UNL     1       6.292   1.391  24.762  0.00  0.00    +0.012 C 
ATOM     35  C   UNL     1       7.105  -0.358  23.139  0.00  0.00    +0.012 C 
ENDBRANCH  28  30
ENDBRANCH   9  23
ENDBRANCH   4  18
ENDBRANCH  14   4
TORSDOF 7
ENDMDL
MODEL 6
REMARK VINA RESULT:       7.8      2.287      5.438
REMARK  Name = 11884107
REMARK  9 active torsions:
REMARK  status: ('A' for Active; 'I' for Inactive)
REMARK    1  A    between atoms: S_1  and  N_8
REMARK    2  A    between atoms: S_1  and  C_17
REMARK    3  A    between atoms: O_4  and  C_14
REMARK    4  A    between atoms: O_4  and  C_18
REMARK    5  A    between atoms: N_8  and  C_13
REMARK    6  A    between atoms: N_9  and  C_23
REMARK    7  A    between atoms: C_28  and  C_30
REMARK    8  A    between atoms: C_30  and  C_34
REMARK    9  A    between atoms: C_30  and  C_35
REMARK                            x       y       z     vdW  Elec       q    Type
REMARK                         _______ _______ _______ _____ _____    ______ ____
ROOT
ATOM      2  O   UNL     1      -3.520   3.287  26.521  0.00  0.00    -0.369 OA
ATOM      3  O   UNL     1      -6.232   4.382  25.568  0.00  0.00    -0.368 OA
ATOM     11  C   UNL     1      -5.541   3.147  25.286  0.00  0.00    +0.171 C 
ATOM     12  C   UNL     1      -4.064   3.478  25.205  0.00  0.00    +0.191 C 
ATOM     13  C   UNL     1      -5.643   2.218  26.470  0.00  0.00    +0.133 C 
ATOM     14  C   UNL     1      -4.074   4.936  24.811  0.00  0.00    +0.235 C 
ATOM     15  C   UNL     1      -4.517   2.694  27.368  0.00  0.00    +0.183 C 
ATOM     16  C   UNL     1      -5.281   5.458  25.557  0.00  0.00    +0.207 C 
ENDROOT
BRANCH  13   8
ATOM      8  N   UNL     1      -5.386   0.823  26.042  0.00  0.00    -0.182 NA
ATOM     36  H   UNL     1      -5.014   0.170  26.742  0.00  0.00    +0.148 HD
BRANCH   8   1
ATOM      1  S   UNL     1      -5.322   0.445  24.388  0.00  0.00    +0.061 S 
ATOM      5  O   UNL     1      -4.642   1.509  23.676  0.00  0.00    -0.153 OA
ATOM      6  O   UNL     1      -6.636   0.003  23.959  0.00  0.00    -0.153 OA
BRANCH   1  17
ATOM     10  N   UNL     1      -2.591   0.209  25.561  0.00  0.00    -0.253 NA
ATOM     17  C   UNL     1      -4.272  -0.977  24.379  0.00  0.00    +0.131 A 
ATOM     19  C   UNL     1      -3.020  -0.923  24.971  0.00  0.00    +0.097 A 
ATOM     20  C   UNL     1      -4.757  -2.124  23.758  0.00  0.00    +0.031 A 
ATOM     21  C   UNL     1      -2.227  -2.089  24.931  0.00  0.00    +0.002 A 
ATOM     22  C   UNL     1      -3.970  -3.269  23.722  0.00  0.00    +0.003 A 
ATOM     24  C   UNL     1      -2.707  -3.253  24.308  0.00  0.00    +0.010 A 
ATOM     25  C   UNL     1      -0.959  -2.045  25.527  0.00  0.00    +0.011 A 
ATOM     29  C   UNL     1      -1.362   0.209  26.125  0.00  0.00    +0.111 A 
ATOM     31  C   UNL     1      -0.514  -0.880  26.135  0.00  0.00    +0.020 A 
ENDBRANCH   1  17
ENDBRANCH   8   1
ENDBRANCH  13   8
BRANCH  14   4
ATOM      4  O   UNL     1      -2.895   5.623  25.163  0.00  0.00    -0.442 OA
BRANCH   4  18
ATOM      7  O   UNL     1      -0.619   5.585  24.939  0.00  0.00    -0.226 OA
ATOM      9  N   UNL     1      -1.937   3.720  24.421  0.00  0.00    -0.251 N 
ATOM     18  C   UNL     1      -1.699   5.014  24.842  0.00  0.00    +0.405 C 
ATOM     37  H   UNL     1      -2.910   3.424  24.409  0.00  0.00    +0.158 HD
BRANCH   9  23
ATOM     23  C   UNL     1      -0.994   2.754  24.001  0.00  0.00    +0.036 A 
ATOM     26  C   UNL     1      -1.384   1.768  23.109  0.00  0.00    +0.024 A 
ATOM     27  C   UNL     1       0.301   2.811  24.491  0.00  0.00    +0.024 A 
ATOM     28  C   UNL     1       0.853   0.859  23.179  0.00  0.00    -0.045 A 
ATOM     32  C   UNL     1      -0.455   0.813  22.696  0.00  0.00    +0.006 A 
ATOM     33  C   UNL     1       1.231   1.858  24.077  0.00  0.00    +0.006 A 
BRANCH  28  30
ATOM     30  C   UNL     1       1.848  -0.160  22.737  0.00  0.00    +0.013 C 
ATOM     34  C   UNL     1       1.528  -0.730  21.343  0.00  0.00    +0.012 C 
ATOM     35  C   UNL     1       3.292   0.374  22.766  0.00  0.00    +0.012 C 
ENDBRANCH  28  30
ENDBRANCH   9  23
ENDBRANCH   4  18
ENDBRANCH  14   4
TORSDOF 7
ENDMDL
