MODEL 1
REMARK VINA RESULT:       4.6      0.000      0.000
REMARK  Name = 11943013
REMARK  7 active torsions:
REMARK  status: ('A' for Active; 'I' for Inactive)
REMARK    1  A    between atoms: O_7  and  C_29
REMARK    2  A    between atoms: O_7  and  C_37
REMARK    3  A    between atoms: N_8  and  C_15
REMARK    4  A    between atoms: N_9  and  C_16
REMARK    5  A    between atoms: N_10  and  C_22
REMARK    6  A    between atoms: C_21  and  C_25
REMARK    7  A    between atoms: C_28  and  C_33
REMARK                            x       y       z     vdW  Elec       q    Type
REMARK                         _______ _______ _______ _____ _____    ______ ____
ROOT
ATOM      4  O   UNL     1      -3.314   4.165  27.194  0.00  0.00    -0.370 OA
ATOM      5  O   UNL     1      -2.020   4.739  24.413  0.00  0.00    -0.370 OA
ATOM     13  C   UNL     1      -3.148   3.951  24.830  0.00  0.00    +0.171 C 
ATOM     14  C   UNL     1      -2.787   3.318  26.159  0.00  0.00    +0.171 C 
ATOM     15  C   UNL     1      -4.321   4.845  25.153  0.00  0.00    +0.130 C 
ATOM     16  C   UNL     1      -1.276   3.341  26.180  0.00  0.00    +0.131 C 
ATOM     17  C   UNL     1      -4.053   5.239  26.594  0.00  0.00    +0.185 C 
ATOM     18  C   UNL     1      -0.958   4.583  25.367  0.00  0.00    +0.185 C 
ENDROOT
BRANCH  15   8
ATOM      8  N   UNL     1      -5.556   4.096  25.060  0.00  0.00    -0.306 N 
ATOM     11  N   UNL     1      -4.429   2.068  24.983  0.00  0.00    -0.214 NA
ATOM     12  N   UNL     1      -6.835   2.166  24.898  0.00  0.00    -0.223 NA
ATOM     19  C   UNL     1      -5.608   2.717  24.977  0.00  0.00    +0.216 A 
ATOM     21  C   UNL     1      -4.518   0.724  24.901  0.00  0.00    +0.080 A 
ATOM     23  C   UNL     1      -6.850   0.819  24.819  0.00  0.00    +0.116 A 
ATOM     24  C   UNL     1      -5.712   0.038  24.816  0.00  0.00    +0.048 A 
ATOM     38  H   UNL     1      -6.440   4.588  25.109  0.00  0.00    +0.149 HD
BRANCH  21  25
ATOM     25  C   UNL     1      -3.256   0.024  24.908  0.00  0.00    +0.042 A 
ATOM     29  C   UNL     1      -2.493  -0.088  23.745  0.00  0.00    +0.129 A 
ATOM     30  C   UNL     1      -2.800  -0.545  26.097  0.00  0.00    +0.013 A 
ATOM     34  C   UNL     1      -1.276  -0.769  23.771  0.00  0.00    +0.046 A 
ATOM     35  C   UNL     1      -1.582  -1.226  26.124  0.00  0.00    +0.001 A 
ATOM     36  C   UNL     1      -0.821  -1.337  24.961  0.00  0.00    +0.004 A 
BRANCH  29   7
ATOM      7  O   UNL     1      -2.914   0.458  22.568  0.00  0.00    -0.494 OA
ATOM     37  C   UNL     1      -2.421   1.756  22.245  0.00  0.00    +0.277 C 
ENDBRANCH  29   7
ENDBRANCH  21  25
ENDBRANCH  15   8
BRANCH  16   9
ATOM      6  O   UNL     1       0.980   3.215  24.419  0.00  0.00    -0.252 OA
ATOM      9  N   UNL     1      -0.727   2.157  25.564  0.00  0.00    -0.292 N 
ATOM     10  N   UNL     1       0.686   0.891  24.270  0.00  0.00    -0.269 N 
ATOM     20  C   UNL     1       0.384   2.182  24.711  0.00  0.00    +0.304 C 
ATOM     39  H   UNL     1      -1.123   1.256  25.812  0.00  0.00    +0.151 HD
ATOM     40  H   UNL     1       0.089   0.141  24.607  0.00  0.00    +0.156 HD
BRANCH  10  22
ATOM     22  C   UNL     1       1.729   0.493  23.400  0.00  0.00    +0.035 A 
ATOM     26  C   UNL     1       3.050   0.497  23.847  0.00  0.00    +0.035 A 
ATOM     27  C   UNL     1       1.435   0.097  22.095  0.00  0.00    +0.023 A 
ATOM     28  C   UNL     1       4.077   0.104  22.989  0.00  0.00    +0.057 A 
ATOM     31  C   UNL     1       2.462  -0.296  21.238  0.00  0.00    +0.002 A 
ATOM     32  C   UNL     1       3.784  -0.292  21.684  0.00  0.00    +0.012 A 
BRANCH  28  33
ATOM      1  F   UNL     1       5.714  -0.727  24.523  0.00  0.00    -0.166 F 
ATOM      2  F   UNL     1       6.390  -0.278  22.513  0.00  0.00    -0.166 F 
ATOM      3  F   UNL     1       5.902   1.341  23.880  0.00  0.00    -0.166 F 
ATOM     33  C   UNL     1       5.490   0.108  23.466  0.00  0.00    +0.417 C 
ENDBRANCH  28  33
ENDBRANCH  10  22
ENDBRANCH  16   9
TORSDOF 6
ENDMDL
MODEL 2
REMARK VINA RESULT:       5.3      1.773      4.163
REMARK  Name = 11943013
REMARK  7 active torsions:
REMARK  status: ('A' for Active; 'I' for Inactive)
REMARK    1  A    between atoms: O_7  and  C_29
REMARK    2  A    between atoms: O_7  and  C_37
REMARK    3  A    between atoms: N_8  and  C_15
REMARK    4  A    between atoms: N_9  and  C_16
REMARK    5  A    between atoms: N_10  and  C_22
REMARK    6  A    between atoms: C_21  and  C_25
REMARK    7  A    between atoms: C_28  and  C_33
REMARK                            x       y       z     vdW  Elec       q    Type
REMARK                         _______ _______ _______ _____ _____    ______ ____
ROOT
ATOM      4  O   UNL     1      -4.541  -0.933  23.614  0.00  0.00    -0.370 OA
ATOM      5  O   UNL     1      -3.413  -0.830  26.522  0.00  0.00    -0.370 OA
ATOM     13  C   UNL     1      -3.400   0.102  25.427  0.00  0.00    +0.171 C 
ATOM     14  C   UNL     1      -3.229  -0.702  24.153  0.00  0.00    +0.171 C 
ATOM     15  C   UNL     1      -4.755   0.751  25.275  0.00  0.00    +0.130 C 
ATOM     16  C   UNL     1      -2.616  -2.003  24.619  0.00  0.00    +0.131 C 
ATOM     17  C   UNL     1      -5.511  -0.252  24.423  0.00  0.00    +0.185 C 
ATOM     18  C   UNL     1      -3.196  -2.155  26.013  0.00  0.00    +0.185 C 
ENDROOT
BRANCH  15   8
ATOM      8  N   UNL     1      -4.626   2.009  24.572  0.00  0.00    -0.306 N 
ATOM     11  N   UNL     1      -2.694   2.567  25.732  0.00  0.00    -0.214 NA
ATOM     12  N   UNL     1      -3.619   4.037  24.061  0.00  0.00    -0.223 NA
ATOM     19  C   UNL     1      -3.602   2.909  24.798  0.00  0.00    +0.216 A 
ATOM     21  C   UNL     1      -1.709   3.469  25.926  0.00  0.00    +0.080 A 
ATOM     23  C   UNL     1      -2.606   4.894  24.307  0.00  0.00    +0.116 A 
ATOM     24  C   UNL     1      -1.613   4.660  25.236  0.00  0.00    +0.048 A 
ATOM     38  H   UNL     1      -5.283   2.236  23.834  0.00  0.00    +0.149 HD
BRANCH  21  25
ATOM     25  C   UNL     1      -0.734   3.105  26.925  0.00  0.00    +0.042 A 
ATOM     29  C   UNL     1       0.560   2.731  26.560  0.00  0.00    +0.129 A 
ATOM     30  C   UNL     1      -1.097   3.131  28.272  0.00  0.00    +0.013 A 
ATOM     34  C   UNL     1       1.489   2.384  27.541  0.00  0.00    +0.046 A 
ATOM     35  C   UNL     1      -0.168   2.782  29.253  0.00  0.00    +0.001 A 
ATOM     36  C   UNL     1       1.125   2.409  28.886  0.00  0.00    +0.004 A 
BRANCH  29   7
ATOM      7  O   UNL     1       0.943   2.698  25.251  0.00  0.00    -0.494 OA
ATOM     37  C   UNL     1       0.129   1.941  24.359  0.00  0.00    +0.277 C 
ENDBRANCH  29   7
ENDBRANCH  21  25
ENDBRANCH  15   8
BRANCH  16   9
ATOM      6  O   UNL     1      -0.936  -0.548  22.811  0.00  0.00    -0.252 OA
ATOM      9  N   UNL     1      -1.176  -1.918  24.657  0.00  0.00    -0.292 N 
ATOM     10  N   UNL     1       0.937  -1.283  24.020  0.00  0.00    -0.269 N 
ATOM     20  C   UNL     1      -0.426  -1.181  23.732  0.00  0.00    +0.304 C 
ATOM     39  H   UNL     1      -0.687  -2.359  25.431  0.00  0.00    +0.151 HD
ATOM     40  H   UNL     1       1.194  -1.852  24.822  0.00  0.00    +0.156 HD
BRANCH  10  22
ATOM     22  C   UNL     1       2.017  -0.689  23.325  0.00  0.00    +0.035 A 
ATOM     26  C   UNL     1       3.280  -0.635  23.915  0.00  0.00    +0.035 A 
ATOM     27  C   UNL     1       1.819  -0.158  22.051  0.00  0.00    +0.023 A 
ATOM     28  C   UNL     1       4.345  -0.050  23.229  0.00  0.00    +0.057 A 
ATOM     31  C   UNL     1       2.884   0.427  21.366  0.00  0.00    +0.002 A 
ATOM     32  C   UNL     1       4.147   0.482  21.955  0.00  0.00    +0.012 A 
BRANCH  28  33
ATOM      1  F   UNL     1       6.029   1.246  24.328  0.00  0.00    -0.166 F 
ATOM      2  F   UNL     1       5.836  -0.828  24.930  0.00  0.00    -0.166 F 
ATOM      3  F   UNL     1       6.693  -0.336  22.993  0.00  0.00    -0.166 F 
ATOM     33  C   UNL     1       5.695   0.008  23.858  0.00  0.00    +0.417 C 
ENDBRANCH  28  33
ENDBRANCH  10  22
ENDBRANCH  16   9
TORSDOF 6
ENDMDL
MODEL 3
REMARK VINA RESULT:       5.8      1.501      3.610
REMARK  Name = 11943013
REMARK  7 active torsions:
REMARK  status: ('A' for Active; 'I' for Inactive)
REMARK    1  A    between atoms: O_7  and  C_29
REMARK    2  A    between atoms: O_7  and  C_37
REMARK    3  A    between atoms: N_8  and  C_15
REMARK    4  A    between atoms: N_9  and  C_16
REMARK    5  A    between atoms: N_10  and  C_22
REMARK    6  A    between atoms: C_21  and  C_25
REMARK    7  A    between atoms: C_28  and  C_33
REMARK                            x       y       z     vdW  Elec       q    Type
REMARK                         _______ _______ _______ _____ _____    ______ ____
ROOT
ATOM      4  O   UNL     1      -4.908  -0.747  23.595  0.00  0.00    -0.370 OA
ATOM      5  O   UNL     1      -3.578  -1.142  26.391  0.00  0.00    -0.370 OA
ATOM     13  C   UNL     1      -4.066   0.013  25.687  0.00  0.00    +0.171 C 
ATOM     14  C   UNL     1      -3.741  -0.184  24.219  0.00  0.00    +0.171 C 
ATOM     15  C   UNL     1      -5.575   0.054  25.730  0.00  0.00    +0.130 C 
ATOM     16  C   UNL     1      -2.612  -1.187  24.223  0.00  0.00    +0.131 C 
ATOM     17  C   UNL     1      -5.965  -0.833  24.562  0.00  0.00    +0.185 C 
ATOM     18  C   UNL     1      -2.914  -2.012  25.461  0.00  0.00    +0.185 C 
ENDROOT
BRANCH  15   8
ATOM      8  N   UNL     1      -6.041   1.406  25.510  0.00  0.00    -0.306 N 
ATOM     11  N   UNL     1      -3.877   2.245  25.468  0.00  0.00    -0.214 NA
ATOM     12  N   UNL     1      -5.784   3.688  25.176  0.00  0.00    -0.223 NA
ATOM     19  C   UNL     1      -5.197   2.493  25.379  0.00  0.00    +0.216 A 
ATOM     21  C   UNL     1      -3.083   3.328  25.335  0.00  0.00    +0.080 A 
ATOM     23  C   UNL     1      -4.932   4.728  25.052  0.00  0.00    +0.116 A 
ATOM     24  C   UNL     1      -3.559   4.606  25.123  0.00  0.00    +0.048 A 
ATOM     38  H   UNL     1      -7.033   1.577  25.392  0.00  0.00    +0.149 HD
BRANCH  21  25
ATOM     25  C   UNL     1      -1.667   3.067  25.430  0.00  0.00    +0.042 A 
ATOM     29  C   UNL     1      -0.865   3.047  24.288  0.00  0.00    +0.129 A 
ATOM     30  C   UNL     1      -1.101   2.831  26.683  0.00  0.00    +0.013 A 
ATOM     34  C   UNL     1       0.502   2.793  24.399  0.00  0.00    +0.046 A 
ATOM     35  C   UNL     1       0.266   2.576  26.794  0.00  0.00    +0.001 A 
ATOM     36  C   UNL     1       1.067   2.557  25.652  0.00  0.00    +0.004 A 
BRANCH  29   7
ATOM      7  O   UNL     1      -1.392   3.274  23.050  0.00  0.00    -0.494 OA
ATOM     37  C   UNL     1      -2.123   2.206  22.453  0.00  0.00    +0.277 C 
ENDBRANCH  29   7
ENDBRANCH  21  25
ENDBRANCH  15   8
BRANCH  16   9
ATOM      6  O   UNL     1      -0.357  -1.536  22.491  0.00  0.00    -0.252 OA
ATOM      9  N   UNL     1      -1.331  -0.532  24.331  0.00  0.00    -0.292 N 
ATOM     10  N   UNL     1       0.834   0.013  23.790  0.00  0.00    -0.269 N 
ATOM     20  C   UNL     1      -0.276  -0.759  23.439  0.00  0.00    +0.304 C 
ATOM     39  H   UNL     1      -1.210   0.177  25.048  0.00  0.00    +0.151 HD
ATOM     40  H   UNL     1       0.736   0.608  24.610  0.00  0.00    +0.156 HD
BRANCH  10  22
ATOM     22  C   UNL     1       2.092   0.070  23.146  0.00  0.00    +0.035 A 
ATOM     26  C   UNL     1       3.265   0.054  23.901  0.00  0.00    +0.035 A 
ATOM     27  C   UNL     1       2.159   0.144  21.754  0.00  0.00    +0.023 A 
ATOM     28  C   UNL     1       4.504   0.111  23.264  0.00  0.00    +0.057 A 
ATOM     31  C   UNL     1       3.399   0.200  21.118  0.00  0.00    +0.002 A 
ATOM     32  C   UNL     1       4.572   0.184  21.873  0.00  0.00    +0.012 A 
BRANCH  28  33
ATOM      1  F   UNL     1       5.784  -0.886  25.024  0.00  0.00    -0.166 F 
ATOM      2  F   UNL     1       6.886  -0.109  23.325  0.00  0.00    -0.166 F 
ATOM      3  F   UNL     1       5.968   1.262  24.742  0.00  0.00    -0.166 F 
ATOM     33  C   UNL     1       5.758   0.093  24.071  0.00  0.00    +0.417 C 
ENDBRANCH  28  33
ENDBRANCH  10  22
ENDBRANCH  16   9
TORSDOF 6
ENDMDL
MODEL 4
REMARK VINA RESULT:       6.6      1.845      4.043
REMARK  Name = 11943013
REMARK  7 active torsions:
REMARK  status: ('A' for Active; 'I' for Inactive)
REMARK    1  A    between atoms: O_7  and  C_29
REMARK    2  A    between atoms: O_7  and  C_37
REMARK    3  A    between atoms: N_8  and  C_15
REMARK    4  A    between atoms: N_9  and  C_16
REMARK    5  A    between atoms: N_10  and  C_22
REMARK    6  A    between atoms: C_21  and  C_25
REMARK    7  A    between atoms: C_28  and  C_33
REMARK                            x       y       z     vdW  Elec       q    Type
REMARK                         _______ _______ _______ _____ _____    ______ ____
ROOT
ATOM      4  O   UNL     1      -3.997  -2.529  24.115  0.00  0.00    -0.370 OA
ATOM      5  O   UNL     1      -1.957  -1.266  26.110  0.00  0.00    -0.370 OA
ATOM     13  C   UNL     1      -3.026  -0.720  25.317  0.00  0.00    +0.171 C 
ATOM     14  C   UNL     1      -3.035  -1.469  23.998  0.00  0.00    +0.171 C 
ATOM     15  C   UNL     1      -4.361  -1.052  25.939  0.00  0.00    +0.130 C 
ATOM     16  C   UNL     1      -1.638  -2.036  23.888  0.00  0.00    +0.131 C 
ATOM     17  C   UNL     1      -4.649  -2.437  25.390  0.00  0.00    +0.185 C 
ATOM     18  C   UNL     1      -1.261  -2.259  25.341  0.00  0.00    +0.185 C 
ENDROOT
BRANCH  15   8
ATOM      8  N   UNL     1      -5.365  -0.114  25.486  0.00  0.00    -0.306 N 
ATOM     11  N   UNL     1      -3.786   1.547  25.120  0.00  0.00    -0.214 NA
ATOM     12  N   UNL     1      -6.124   1.927  24.681  0.00  0.00    -0.223 NA
ATOM     19  C   UNL     1      -5.079   1.175  25.078  0.00  0.00    +0.216 A 
ATOM     21  C   UNL     1      -3.542   2.810  24.716  0.00  0.00    +0.080 A 
ATOM     23  C   UNL     1      -5.810   3.179  24.290  0.00  0.00    +0.116 A 
ATOM     24  C   UNL     1      -4.524   3.680  24.285  0.00  0.00    +0.048 A 
ATOM     38  H   UNL     1      -6.329  -0.418  25.407  0.00  0.00    +0.149 HD
BRANCH  21  25
ATOM     25  C   UNL     1      -2.157   3.213  24.758  0.00  0.00    +0.042 A 
ATOM     29  C   UNL     1      -1.203   2.579  23.961  0.00  0.00    +0.129 A 
ATOM     30  C   UNL     1      -1.776   4.249  25.611  0.00  0.00    +0.013 A 
ATOM     34  C   UNL     1       0.131   2.983  24.017  0.00  0.00    +0.046 A 
ATOM     35  C   UNL     1      -0.441   4.652  25.667  0.00  0.00    +0.001 A 
ATOM     36  C   UNL     1       0.511   4.019  24.870  0.00  0.00    +0.004 A 
BRANCH  29   7
ATOM      7  O   UNL     1      -1.548   1.563  23.118  0.00  0.00    -0.494 OA
ATOM     37  C   UNL     1      -2.306   1.912  21.963  0.00  0.00    +0.277 C 
ENDBRANCH  29   7
ENDBRANCH  21  25
ENDBRANCH  15   8
BRANCH  16   9
ATOM      6  O   UNL     1       1.128  -1.621  24.507  0.00  0.00    -0.252 OA
ATOM      9  N   UNL     1      -0.742  -1.100  23.253  0.00  0.00    -0.292 N 
ATOM     10  N   UNL     1       1.218   0.019  22.830  0.00  0.00    -0.269 N 
ATOM     20  C   UNL     1       0.602  -0.958  23.616  0.00  0.00    +0.304 C 
ATOM     39  H   UNL     1      -1.086  -0.565  22.461  0.00  0.00    +0.151 HD
ATOM     40  H   UNL     1       0.637   0.478  22.133  0.00  0.00    +0.156 HD
BRANCH  10  22
ATOM     22  C   UNL     1       2.562   0.457  22.885  0.00  0.00    +0.035 A 
ATOM     26  C   UNL     1       3.558  -0.400  23.354  0.00  0.00    +0.035 A 
ATOM     27  C   UNL     1       2.892   1.748  22.468  0.00  0.00    +0.023 A 
ATOM     28  C   UNL     1       4.882   0.034  23.407  0.00  0.00    +0.057 A 
ATOM     31  C   UNL     1       4.217   2.180  22.522  0.00  0.00    +0.002 A 
ATOM     32  C   UNL     1       5.212   1.324  22.992  0.00  0.00    +0.012 A 
BRANCH  28  33
ATOM      1  F   UNL     1       7.179  -0.635  23.374  0.00  0.00    -0.166 F 
ATOM      2  F   UNL     1       6.129  -0.821  25.261  0.00  0.00    -0.166 F 
ATOM      3  F   UNL     1       5.685  -2.192  23.633  0.00  0.00    -0.166 F 
ATOM     33  C   UNL     1       5.947  -0.882  23.909  0.00  0.00    +0.417 C 
ENDBRANCH  28  33
ENDBRANCH  10  22
ENDBRANCH  16   9
TORSDOF 6
ENDMDL
