MODEL 1
REMARK VINA RESULT:      10.9      0.000      0.000
REMARK  Name = 7165018
REMARK  7 active torsions:
REMARK  status: ('A' for Active; 'I' for Inactive)
REMARK    1  A    between atoms: N_9  and  C_17
REMARK    2  A    between atoms: C_12  and  C_16
REMARK    3  A    between atoms: C_17  and  C_20
REMARK    4  A    between atoms: C_17  and  C_25
REMARK    5  A    between atoms: C_18  and  C_22
REMARK    6  A    between atoms: C_19  and  C_23
REMARK    7  A    between atoms: C_20  and  C_21
REMARK                            x       y       z     vdW  Elec       q    Type
REMARK                         _______ _______ _______ _____ _____    ______ ____
ROOT
ATOM      4  O   UNL     1      -1.868   3.245  26.559  0.00  0.00    -0.269 OA
ATOM      5  O   UNL     1       1.666  -0.400  21.289  0.00  0.00    -0.270 OA
ATOM      7  N   UNL     1      -0.906   2.516  24.580  0.00  0.00    -0.283 N 
ATOM      8  N   UNL     1       1.053   0.911  23.122  0.00  0.00    -0.294 N 
ATOM     12  C   UNL     1       0.088   1.709  25.293  0.00  0.00    +0.179 C 
ATOM     13  C   UNL     1       1.343   1.434  24.467  0.00  0.00    +0.140 C 
ATOM     14  C   UNL     1      -0.822   2.532  23.111  0.00  0.00    +0.128 C 
ATOM     15  C   UNL     1      -0.248   1.242  22.546  0.00  0.00    +0.127 C 
ATOM     18  C   UNL     1      -1.826   3.284  25.328  0.00  0.00    +0.254 C 
ATOM     19  C   UNL     1       1.914   0.083  22.393  0.00  0.00    +0.247 C 
ENDROOT
BRANCH  19  23
ATOM      2  F   UNL     1       6.405   1.374  23.700  0.00  0.00    -0.205 F 
ATOM     23  C   UNL     1       3.226  -0.242  22.975  0.00  0.00    +0.040 A 
ATOM     29  C   UNL     1       4.213   0.739  23.063  0.00  0.00    +0.051 A 
ATOM     30  C   UNL     1       3.484  -1.534  23.437  0.00  0.00    +0.013 A 
ATOM     37  C   UNL     1       5.457   0.431  23.615  0.00  0.00    +0.124 A 
ATOM     38  C   UNL     1       4.727  -1.841  23.988  0.00  0.00    +0.004 A 
ATOM     39  C   UNL     1       5.714  -0.859  24.077  0.00  0.00    +0.038 A 
ENDBRANCH  19  23
BRANCH  18  22
ATOM      1  S   UNL     1      -2.427   5.810  24.461  0.00  0.00    -0.092 S 
ATOM     22  C   UNL     1      -2.752   4.134  24.586  0.00  0.00    +0.074 A 
ATOM     28  C   UNL     1      -3.914   3.783  23.932  0.00  0.00    +0.021 A 
ATOM     33  C   UNL     1      -4.544   4.905  23.321  0.00  0.00    +0.008 A 
ATOM     36  C   UNL     1      -3.841   6.071  23.531  0.00  0.00    +0.046 A 
ENDBRANCH  18  22
BRANCH  12  16
ATOM      3  O   UNL     1      -0.946   0.232  26.862  0.00  0.00    -0.274 OA
ATOM      9  N   UNL     1      -0.724  -0.454  24.648  0.00  0.00    -0.302 N 
ATOM     16  C   UNL     1      -0.589   0.431  25.704  0.00  0.00    +0.236 C 
ATOM     40  H   UNL     1      -0.377  -0.198  23.729  0.00  0.00    +0.150 HD
BRANCH   9  17
ATOM     17  C   UNL     1      -1.322  -1.761  24.786  0.00  0.00    +0.163 C 
BRANCH  17  25
ATOM      6  O   UNL     1      -0.476  -3.842  25.714  0.00  0.00    -0.274 OA
ATOM     11  N   UNL     1       0.977  -2.080  25.461  0.00  0.00    -0.328 N 
ATOM     25  C   UNL     1      -0.263  -2.678  25.381  0.00  0.00    +0.231 C 
ATOM     42  H   UNL     1       1.776  -2.587  25.827  0.00  0.00    +0.145 HD
ATOM     43  H   UNL     1       1.144  -1.126  25.160  0.00  0.00    +0.145 HD
ENDBRANCH  17  25
BRANCH  17  20
ATOM     20  C   UNL     1      -2.572  -1.738  25.675  0.00  0.00    +0.069 C 
BRANCH  20  21
ATOM     10  N   UNL     1      -5.476  -1.021  23.537  0.00  0.00    -0.360 N 
ATOM     21  C   UNL     1      -3.789  -1.213  24.967  0.00  0.00    -0.020 A 
ATOM     24  C   UNL     1      -4.504  -0.023  25.279  0.00  0.00    +0.003 A 
ATOM     26  C   UNL     1      -4.410  -1.804  23.891  0.00  0.00    +0.087 A 
ATOM     27  C   UNL     1      -5.558   0.073  24.368  0.00  0.00    +0.047 A 
ATOM     31  C   UNL     1      -4.355   0.985  26.253  0.00  0.00    +0.010 A 
ATOM     32  C   UNL     1      -6.474   1.131  24.383  0.00  0.00    +0.026 A 
ATOM     34  C   UNL     1      -5.264   2.048  26.280  0.00  0.00    +0.001 A 
ATOM     35  C   UNL     1      -6.306   2.118  25.357  0.00  0.00    +0.002 A 
ATOM     41  H   UNL     1      -6.112  -1.218  22.777  0.00  0.00    +0.165 HD
ENDBRANCH  20  21
ENDBRANCH  17  20
ENDBRANCH   9  17
ENDBRANCH  12  16
TORSDOF 7
ENDMDL
MODEL 2
REMARK VINA RESULT:      10.9      2.695      6.237
REMARK  Name = 7165018
REMARK  7 active torsions:
REMARK  status: ('A' for Active; 'I' for Inactive)
REMARK    1  A    between atoms: N_9  and  C_17
REMARK    2  A    between atoms: C_12  and  C_16
REMARK    3  A    between atoms: C_17  and  C_20
REMARK    4  A    between atoms: C_17  and  C_25
REMARK    5  A    between atoms: C_18  and  C_22
REMARK    6  A    between atoms: C_19  and  C_23
REMARK    7  A    between atoms: C_20  and  C_21
REMARK                            x       y       z     vdW  Elec       q    Type
REMARK                         _______ _______ _______ _____ _____    ______ ____
ROOT
ATOM      4  O   UNL     1       1.336  -0.452  21.530  0.00  0.00    -0.269 OA
ATOM      5  O   UNL     1      -1.570   3.421  27.017  0.00  0.00    -0.270 OA
ATOM      7  N   UNL     1       0.938   0.913  23.361  0.00  0.00    -0.283 N 
ATOM      8  N   UNL     1      -0.824   2.611  24.957  0.00  0.00    -0.294 N 
ATOM     12  C   UNL     1      -0.434   1.190  22.930  0.00  0.00    +0.179 C 
ATOM     13  C   UNL     1      -0.992   2.493  23.500  0.00  0.00    +0.140 C 
ATOM     14  C   UNL     1       1.401   1.583  24.586  0.00  0.00    +0.128 C 
ATOM     15  C   UNL     1       0.268   1.854  25.565  0.00  0.00    +0.127 C 
ATOM     18  C   UNL     1       1.757   0.094  22.551  0.00  0.00    +0.254 C 
ATOM     19  C   UNL     1      -1.669   3.351  25.792  0.00  0.00    +0.247 C 
ENDROOT
BRANCH  19  23
ATOM      2  F   UNL     1      -6.276   4.872  25.757  0.00  0.00    -0.205 F 
ATOM     23  C   UNL     1      -2.764   4.116  25.175  0.00  0.00    +0.040 A 
ATOM     29  C   UNL     1      -4.026   4.131  25.770  0.00  0.00    +0.051 A 
ATOM     30  C   UNL     1      -2.541   4.825  23.994  0.00  0.00    +0.013 A 
ATOM     37  C   UNL     1      -5.064   4.857  25.185  0.00  0.00    +0.124 A 
ATOM     38  C   UNL     1      -3.579   5.550  23.410  0.00  0.00    +0.004 A 
ATOM     39  C   UNL     1      -4.841   5.566  24.005  0.00  0.00    +0.038 A 
ENDBRANCH  19  23
BRANCH  18  22
ATOM      1  S   UNL     1       4.291   1.126  22.639  0.00  0.00    -0.092 S 
ATOM     22  C   UNL     1       3.142  -0.098  22.972  0.00  0.00    +0.074 A 
ATOM     28  C   UNL     1       3.704  -1.170  23.632  0.00  0.00    +0.021 A 
ATOM     33  C   UNL     1       5.096  -0.983  23.867  0.00  0.00    +0.008 A 
ATOM     36  C   UNL     1       5.546   0.224  23.378  0.00  0.00    +0.046 A 
ENDBRANCH  18  22
BRANCH  12  16
ATOM      3  O   UNL     1      -2.453  -0.088  23.007  0.00  0.00    -0.274 OA
ATOM      9  N   UNL     1      -0.568  -0.893  24.112  0.00  0.00    -0.302 N 
ATOM     16  C   UNL     1      -1.274   0.010  23.336  0.00  0.00    +0.236 C 
ATOM     40  H   UNL     1       0.403  -0.708  24.342  0.00  0.00    +0.150 HD
BRANCH   9  17
ATOM     17  C   UNL     1      -1.153  -2.100  24.648  0.00  0.00    +0.163 C 
BRANCH  17  25
ATOM      6  O   UNL     1      -0.057  -4.080  25.532  0.00  0.00    -0.274 OA
ATOM     11  N   UNL     1       1.016  -2.056  25.713  0.00  0.00    -0.328 N 
ATOM     25  C   UNL     1      -0.041  -2.865  25.349  0.00  0.00    +0.231 C 
ATOM     42  H   UNL     1       1.831  -2.443  26.177  0.00  0.00    +0.145 HD
ATOM     43  H   UNL     1       1.026  -1.058  25.535  0.00  0.00    +0.145 HD
ENDBRANCH  17  25
BRANCH  17  20
ATOM     20  C   UNL     1      -2.300  -1.805  25.625  0.00  0.00    +0.069 C 
BRANCH  20  21
ATOM     10  N   UNL     1      -5.362  -1.639  23.599  0.00  0.00    -0.360 N 
ATOM     21  C   UNL     1      -3.596  -1.490  24.935  0.00  0.00    -0.020 A 
ATOM     24  C   UNL     1      -4.410  -0.342  25.144  0.00  0.00    +0.003 A 
ATOM     26  C   UNL     1      -4.207  -2.268  23.979  0.00  0.00    +0.087 A 
ATOM     27  C   UNL     1      -5.512  -0.461  24.294  0.00  0.00    +0.047 A 
ATOM     31  C   UNL     1      -4.315   0.790  25.977  0.00  0.00    +0.010 A 
ATOM     32  C   UNL     1      -6.528   0.500  24.237  0.00  0.00    +0.026 A 
ATOM     34  C   UNL     1      -5.324   1.759  25.931  0.00  0.00    +0.001 A 
ATOM     35  C   UNL     1      -6.412   1.614  25.073  0.00  0.00    +0.002 A 
ATOM     41  H   UNL     1      -6.012  -1.989  22.908  0.00  0.00    +0.165 HD
ENDBRANCH  20  21
ENDBRANCH  17  20
ENDBRANCH   9  17
ENDBRANCH  12  16
TORSDOF 7
ENDMDL
MODEL 3
REMARK VINA RESULT:      11.2      2.732      6.307
REMARK  Name = 7165018
REMARK  7 active torsions:
REMARK  status: ('A' for Active; 'I' for Inactive)
REMARK    1  A    between atoms: N_9  and  C_17
REMARK    2  A    between atoms: C_12  and  C_16
REMARK    3  A    between atoms: C_17  and  C_20
REMARK    4  A    between atoms: C_17  and  C_25
REMARK    5  A    between atoms: C_18  and  C_22
REMARK    6  A    between atoms: C_19  and  C_23
REMARK    7  A    between atoms: C_20  and  C_21
REMARK                            x       y       z     vdW  Elec       q    Type
REMARK                         _______ _______ _______ _____ _____    ______ ____
ROOT
ATOM      4  O   UNL     1       1.294  -1.327  22.219  0.00  0.00    -0.269 OA
ATOM      5  O   UNL     1      -0.856   4.586  25.956  0.00  0.00    -0.270 OA
ATOM      7  N   UNL     1       1.146   0.676  23.375  0.00  0.00    -0.283 N 
ATOM      8  N   UNL     1      -0.382   2.977  24.330  0.00  0.00    -0.294 N 
ATOM     12  C   UNL     1      -0.266   0.844  23.019  0.00  0.00    +0.179 C 
ATOM     13  C   UNL     1      -0.730   2.299  23.071  0.00  0.00    +0.140 C 
ATOM     14  C   UNL     1       1.765   1.749  24.169  0.00  0.00    +0.128 C 
ATOM     15  C   UNL     1       0.766   2.458  25.070  0.00  0.00    +0.127 C 
ATOM     18  C   UNL     1       1.846  -0.447  22.881  0.00  0.00    +0.254 C 
ATOM     19  C   UNL     1      -1.106   4.040  24.881  0.00  0.00    +0.247 C 
ENDROOT
BRANCH  19  23
ATOM      2  F   UNL     1      -4.900   3.361  21.935  0.00  0.00    -0.205 F 
ATOM     23  C   UNL     1      -2.258   4.563  24.130  0.00  0.00    +0.040 A 
ATOM     29  C   UNL     1      -3.049   3.698  23.373  0.00  0.00    +0.051 A 
ATOM     30  C   UNL     1      -2.560   5.925  24.172  0.00  0.00    +0.013 A 
ATOM     37  C   UNL     1      -4.141   4.193  22.661  0.00  0.00    +0.124 A 
ATOM     38  C   UNL     1      -3.651   6.419  23.459  0.00  0.00    +0.004 A 
ATOM     39  C   UNL     1      -4.442   5.554  22.704  0.00  0.00    +0.038 A 
ENDBRANCH  19  23
BRANCH  18  22
ATOM      1  S   UNL     1       4.316   0.718  22.699  0.00  0.00    -0.092 S 
ATOM     22  C   UNL     1       3.269  -0.543  23.193  0.00  0.00    +0.074 A 
ATOM     28  C   UNL     1       3.943  -1.543  23.859  0.00  0.00    +0.021 A 
ATOM     33  C   UNL     1       5.337  -1.271  23.965  0.00  0.00    +0.008 A 
ATOM     36  C   UNL     1       5.676  -0.072  23.376  0.00  0.00    +0.046 A 
ENDBRANCH  18  22
BRANCH  12  16
ATOM      3  O   UNL     1      -0.585  -0.472  24.989  0.00  0.00    -0.274 OA
ATOM      9  N   UNL     1      -2.351  -0.243  23.488  0.00  0.00    -0.302 N 
ATOM     16  C   UNL     1      -1.066  -0.021  23.953  0.00  0.00    +0.236 C 
ATOM     40  H   UNL     1      -2.645   0.164  22.606  0.00  0.00    +0.150 HD
BRANCH   9  17
ATOM     17  C   UNL     1      -3.314  -1.060  24.190  0.00  0.00    +0.163 C 
BRANCH  17  25
ATOM      6  O   UNL     1      -1.734  -2.866  23.804  0.00  0.00    -0.274 OA
ATOM     11  N   UNL     1      -3.119  -2.990  25.632  0.00  0.00    -0.328 N 
ATOM     25  C   UNL     1      -2.640  -2.392  24.486  0.00  0.00    +0.231 C 
ATOM     42  H   UNL     1      -2.745  -3.877  25.951  0.00  0.00    +0.145 HD
ATOM     43  H   UNL     1      -3.852  -2.576  26.199  0.00  0.00    +0.145 HD
ENDBRANCH  17  25
BRANCH  17  20
ATOM     20  C   UNL     1      -3.795  -0.402  25.491  0.00  0.00    +0.069 C 
BRANCH  20  21
ATOM     10  N   UNL     1      -6.689   1.683  24.602  0.00  0.00    -0.360 N 
ATOM     21  C   UNL     1      -4.835   0.658  25.265  0.00  0.00    -0.020 A 
ATOM     24  C   UNL     1      -4.776   2.010  25.701  0.00  0.00    +0.003 A 
ATOM     26  C   UNL     1      -6.023   0.487  24.592  0.00  0.00    +0.087 A 
ATOM     27  C   UNL     1      -5.951   2.631  25.273  0.00  0.00    +0.047 A 
ATOM     31  C   UNL     1      -3.832   2.769  26.422  0.00  0.00    +0.010 A 
ATOM     32  C   UNL     1      -6.230   3.978  25.531  0.00  0.00    +0.026 A 
ATOM     34  C   UNL     1      -4.097   4.117  26.687  0.00  0.00    +0.001 A 
ATOM     35  C   UNL     1      -5.279   4.710  26.247  0.00  0.00    +0.002 A 
ATOM     41  H   UNL     1      -7.593   1.847  24.179  0.00  0.00    +0.165 HD
ENDBRANCH  20  21
ENDBRANCH  17  20
ENDBRANCH   9  17
ENDBRANCH  12  16
TORSDOF 7
ENDMDL
MODEL 4
REMARK VINA RESULT:      11.6      1.651      2.186
REMARK  Name = 7165018
REMARK  7 active torsions:
REMARK  status: ('A' for Active; 'I' for Inactive)
REMARK    1  A    between atoms: N_9  and  C_17
REMARK    2  A    between atoms: C_12  and  C_16
REMARK    3  A    between atoms: C_17  and  C_20
REMARK    4  A    between atoms: C_17  and  C_25
REMARK    5  A    between atoms: C_18  and  C_22
REMARK    6  A    between atoms: C_19  and  C_23
REMARK    7  A    between atoms: C_20  and  C_21
REMARK                            x       y       z     vdW  Elec       q    Type
REMARK                         _______ _______ _______ _____ _____    ______ ____
ROOT
ATOM      4  O   UNL     1      -1.938   1.435  26.427  0.00  0.00    -0.269 OA
ATOM      5  O   UNL     1       3.569   1.740  21.617  0.00  0.00    -0.270 OA
ATOM      7  N   UNL     1      -0.208   2.068  25.020  0.00  0.00    -0.283 N 
ATOM      8  N   UNL     1       2.209   1.457  23.495  0.00  0.00    -0.294 N 
ATOM     12  C   UNL     1       0.392   0.732  25.062  0.00  0.00    +0.179 C 
ATOM     13  C   UNL     1       1.884   0.732  24.734  0.00  0.00    +0.140 C 
ATOM     14  C   UNL     1       0.501   3.093  24.238  0.00  0.00    +0.128 C 
ATOM     15  C   UNL     1       1.279   2.502  23.072  0.00  0.00    +0.127 C 
ATOM     18  C   UNL     1      -1.370   2.319  25.783  0.00  0.00    +0.254 C 
ATOM     19  C   UNL     1       3.311   1.175  22.679  0.00  0.00    +0.247 C 
ENDROOT
BRANCH  19  23
ATOM      2  F   UNL     1       7.821  -0.357  23.597  0.00  0.00    -0.205 F 
ATOM     23  C   UNL     1       4.248   0.126  23.112  0.00  0.00    +0.040 A 
ATOM     29  C   UNL     1       5.617   0.386  23.150  0.00  0.00    +0.051 A 
ATOM     30  C   UNL     1       3.766  -1.130  23.485  0.00  0.00    +0.013 A 
ATOM     37  C   UNL     1       6.506  -0.607  23.561  0.00  0.00    +0.124 A 
ATOM     38  C   UNL     1       4.655  -2.123  23.895  0.00  0.00    +0.004 A 
ATOM     39  C   UNL     1       6.024  -1.862  23.933  0.00  0.00    +0.038 A 
ENDBRANCH  19  23
BRANCH  18  22
ATOM      1  S   UNL     1      -1.255   4.818  24.671  0.00  0.00    -0.092 S 
ATOM     22  C   UNL     1      -1.896   3.681  25.779  0.00  0.00    +0.074 A 
ATOM     28  C   UNL     1      -2.883   4.229  26.569  0.00  0.00    +0.021 A 
ATOM     33  C   UNL     1      -3.116   5.600  26.260  0.00  0.00    +0.008 A 
ATOM     36  C   UNL     1      -2.298   6.048  25.246  0.00  0.00    +0.046 A 
ENDBRANCH  18  22
BRANCH  12  16
ATOM      3  O   UNL     1       0.015  -0.341  22.959  0.00  0.00    -0.274 OA
ATOM      9  N   UNL     1      -1.552  -0.614  24.660  0.00  0.00    -0.302 N 
ATOM     16  C   UNL     1      -0.380  -0.132  24.103  0.00  0.00    +0.236 C 
ATOM     40  H   UNL     1      -1.796  -0.366  25.614  0.00  0.00    +0.150 HD
BRANCH   9  17
ATOM     17  C   UNL     1      -2.484  -1.449  23.939  0.00  0.00    +0.163 C 
BRANCH  17  25
ATOM      6  O   UNL     1      -1.343  -3.324  24.983  0.00  0.00    -0.274 OA
ATOM     11  N   UNL     1      -3.593  -3.507  24.553  0.00  0.00    -0.328 N 
ATOM     25  C   UNL     1      -2.382  -2.847  24.531  0.00  0.00    +0.231 C 
ATOM     42  H   UNL     1      -3.667  -4.444  24.936  0.00  0.00    +0.145 HD
ATOM     43  H   UNL     1      -4.447  -3.092  24.198  0.00  0.00    +0.145 HD
ENDBRANCH  17  25
BRANCH  17  20
ATOM     20  C   UNL     1      -3.924  -0.930  24.035  0.00  0.00    +0.069 C 
BRANCH  20  21
ATOM     10  N   UNL     1      -3.715   2.614  23.083  0.00  0.00    -0.360 N 
ATOM     21  C   UNL     1      -4.027   0.558  23.859  0.00  0.00    -0.020 A 
ATOM     24  C   UNL     1      -4.829   1.449  24.625  0.00  0.00    +0.003 A 
ATOM     26  C   UNL     1      -3.354   1.304  22.919  0.00  0.00    +0.087 A 
ATOM     27  C   UNL     1      -4.615   2.733  24.118  0.00  0.00    +0.047 A 
ATOM     31  C   UNL     1      -5.719   1.286  25.706  0.00  0.00    +0.010 A 
ATOM     32  C   UNL     1      -5.249   3.866  24.640  0.00  0.00    +0.026 A 
ATOM     34  C   UNL     1      -6.361   2.410  26.237  0.00  0.00    +0.001 A 
ATOM     35  C   UNL     1      -6.127   3.679  25.711  0.00  0.00    +0.002 A 
ATOM     41  H   UNL     1      -3.372   3.385  22.526  0.00  0.00    +0.165 HD
ENDBRANCH  20  21
ENDBRANCH  17  20
ENDBRANCH   9  17
ENDBRANCH  12  16
TORSDOF 7
ENDMDL
MODEL 5
REMARK VINA RESULT:      11.7      1.680      2.357
REMARK  Name = 7165018
REMARK  7 active torsions:
REMARK  status: ('A' for Active; 'I' for Inactive)
REMARK    1  A    between atoms: N_9  and  C_17
REMARK    2  A    between atoms: C_12  and  C_16
REMARK    3  A    between atoms: C_17  and  C_20
REMARK    4  A    between atoms: C_17  and  C_25
REMARK    5  A    between atoms: C_18  and  C_22
REMARK    6  A    between atoms: C_19  and  C_23
REMARK    7  A    between atoms: C_20  and  C_21
REMARK                            x       y       z     vdW  Elec       q    Type
REMARK                         _______ _______ _______ _____ _____    ______ ____
ROOT
ATOM      4  O   UNL     1      -2.018   1.547  26.609  0.00  0.00    -0.269 OA
ATOM      5  O   UNL     1       3.295   1.587  21.578  0.00  0.00    -0.270 OA
ATOM      7  N   UNL     1      -0.352   2.102  25.096  0.00  0.00    -0.283 N 
ATOM      8  N   UNL     1       2.013   1.418  23.523  0.00  0.00    -0.294 N 
ATOM     12  C   UNL     1       0.268   0.780  25.205  0.00  0.00    +0.179 C 
ATOM     13  C   UNL     1       1.746   0.776  24.820  0.00  0.00    +0.140 C 
ATOM     14  C   UNL     1       0.310   3.080  24.219  0.00  0.00    +0.128 C 
ATOM     15  C   UNL     1       1.052   2.419  23.066  0.00  0.00    +0.127 C 
ATOM     18  C   UNL     1      -1.488   2.391  25.885  0.00  0.00    +0.254 C 
ATOM     19  C   UNL     1       3.087   1.094  22.686  0.00  0.00    +0.247 C 
ENDROOT
BRANCH  19  23
ATOM      2  F   UNL     1       7.615  -0.204  23.846  0.00  0.00    -0.205 F 
ATOM     23  C   UNL     1       4.055   0.089  23.152  0.00  0.00    +0.040 A 
ATOM     29  C   UNL     1       5.403   0.425  23.280  0.00  0.00    +0.051 A 
ATOM     30  C   UNL     1       3.626  -1.202  23.466  0.00  0.00    +0.013 A 
ATOM     37  C   UNL     1       6.321  -0.527  23.723  0.00  0.00    +0.124 A 
ATOM     38  C   UNL     1       4.544  -2.153  23.908  0.00  0.00    +0.004 A 
ATOM     39  C   UNL     1       5.891  -1.816  24.037  0.00  0.00    +0.038 A 
ENDBRANCH  19  23
BRANCH  18  22
ATOM      1  S   UNL     1      -1.200   4.928  24.897  0.00  0.00    -0.092 S 
ATOM     22  C   UNL     1      -2.035   3.743  25.808  0.00  0.00    +0.074 A 
ATOM     28  C   UNL     1      -3.181   4.246  26.384  0.00  0.00    +0.021 A 
ATOM     33  C   UNL     1      -3.376   5.623  26.074  0.00  0.00    +0.008 A 
ATOM     36  C   UNL     1      -2.371   6.120  25.272  0.00  0.00    +0.046 A 
ENDBRANCH  18  22
BRANCH  12  16
ATOM      3  O   UNL     1      -0.129  -0.510  23.232  0.00  0.00    -0.274 OA
ATOM      9  N   UNL     1      -1.723  -0.528  24.929  0.00  0.00    -0.302 N 
ATOM     16  C   UNL     1      -0.527  -0.157  24.339  0.00  0.00    +0.236 C 
ATOM     40  H   UNL     1      -1.967  -0.164  25.845  0.00  0.00    +0.150 HD
BRANCH   9  17
ATOM     17  C   UNL     1      -2.679  -1.405  24.293  0.00  0.00    +0.163 C 
BRANCH  17  25
ATOM      6  O   UNL     1      -1.095  -3.162  24.852  0.00  0.00    -0.274 OA
ATOM     11  N   UNL     1      -3.315  -3.712  24.628  0.00  0.00    -0.328 N 
ATOM     25  C   UNL     1      -2.253  -2.832  24.604  0.00  0.00    +0.231 C 
ATOM     42  H   UNL     1      -3.171  -4.695  24.837  0.00  0.00    +0.145 HD
ATOM     43  H   UNL     1      -4.269  -3.422  24.445  0.00  0.00    +0.145 HD
ENDBRANCH  17  25
BRANCH  17  20
ATOM     20  C   UNL     1      -4.112  -1.153  24.782  0.00  0.00    +0.069 C 
BRANCH  20  21
ATOM     10  N   UNL     1      -5.538   2.219  25.107  0.00  0.00    -0.360 N 
ATOM     21  C   UNL     1      -4.519   0.290  24.697  0.00  0.00    -0.020 A 
ATOM     24  C   UNL     1      -4.020   1.260  23.784  0.00  0.00    +0.003 A 
ATOM     26  C   UNL     1      -5.451   0.910  25.497  0.00  0.00    +0.087 A 
ATOM     27  C   UNL     1      -4.674   2.461  24.063  0.00  0.00    +0.047 A 
ATOM     31  C   UNL     1      -3.070   1.230  22.743  0.00  0.00    +0.010 A 
ATOM     32  C   UNL     1      -4.426   3.639  23.350  0.00  0.00    +0.026 A 
ATOM     34  C   UNL     1      -2.810   2.401  22.022  0.00  0.00    +0.001 A 
ATOM     35  C   UNL     1      -3.480   3.586  22.322  0.00  0.00    +0.002 A 
ATOM     41  H   UNL     1      -6.147   2.909  25.525  0.00  0.00    +0.165 HD
ENDBRANCH  20  21
ENDBRANCH  17  20
ENDBRANCH   9  17
ENDBRANCH  12  16
TORSDOF 7
ENDMDL
MODEL 6
REMARK VINA RESULT:      12.0      2.980      6.443
REMARK  Name = 7165018
REMARK  7 active torsions:
REMARK  status: ('A' for Active; 'I' for Inactive)
REMARK    1  A    between atoms: N_9  and  C_17
REMARK    2  A    between atoms: C_12  and  C_16
REMARK    3  A    between atoms: C_17  and  C_20
REMARK    4  A    between atoms: C_17  and  C_25
REMARK    5  A    between atoms: C_18  and  C_22
REMARK    6  A    between atoms: C_19  and  C_23
REMARK    7  A    between atoms: C_20  and  C_21
REMARK                            x       y       z     vdW  Elec       q    Type
REMARK                         _______ _______ _______ _____ _____    ______ ____
ROOT
ATOM      4  O   UNL     1       1.382  -0.653  22.120  0.00  0.00    -0.269 OA
ATOM      5  O   UNL     1      -0.928   3.636  27.580  0.00  0.00    -0.270 OA
ATOM      7  N   UNL     1       1.167   0.891  23.836  0.00  0.00    -0.283 N 
ATOM      8  N   UNL     1      -0.458   2.640  25.521  0.00  0.00    -0.294 N 
ATOM     12  C   UNL     1      -0.277   1.016  23.620  0.00  0.00    +0.179 C 
ATOM     13  C   UNL     1      -0.849   2.336  24.135  0.00  0.00    +0.140 C 
ATOM     14  C   UNL     1       1.761   1.734  24.884  0.00  0.00    +0.128 C 
ATOM     15  C   UNL     1       0.782   2.041  26.008  0.00  0.00    +0.127 C 
ATOM     18  C   UNL     1       1.913   0.041  22.989  0.00  0.00    +0.254 C 
ATOM     19  C   UNL     1      -1.218   3.413  26.405  0.00  0.00    +0.247 C 
ENDROOT
BRANCH  19  23
ATOM      2  F   UNL     1      -6.063   3.625  26.266  0.00  0.00    -0.205 F 
ATOM     23  C   UNL     1      -2.464   4.019  25.907  0.00  0.00    +0.040 A 
ATOM     29  C   UNL     1      -3.698   3.525  26.330  0.00  0.00    +0.051 A 
ATOM     30  C   UNL     1      -2.410   5.088  25.012  0.00  0.00    +0.013 A 
ATOM     37  C   UNL     1      -4.878   4.100  25.859  0.00  0.00    +0.124 A 
ATOM     38  C   UNL     1      -3.591   5.662  24.541  0.00  0.00    +0.004 A 
ATOM     39  C   UNL     1      -4.825   5.168  24.964  0.00  0.00    +0.038 A 
ENDBRANCH  19  23
BRANCH  18  22
ATOM      1  S   UNL     1       4.066  -1.401  23.870  0.00  0.00    -0.092 S 
ATOM     22  C   UNL     1       3.359  -0.001  23.183  0.00  0.00    +0.074 A 
ATOM     28  C   UNL     1       4.301   0.960  22.885  0.00  0.00    +0.021 A 
ATOM     33  C   UNL     1       5.619   0.542  23.225  0.00  0.00    +0.008 A 
ATOM     36  C   UNL     1       5.636  -0.723  23.771  0.00  0.00    +0.046 A 
ENDBRANCH  18  22
BRANCH  12  16
ATOM      3  O   UNL     1      -1.067  -0.222  25.506  0.00  0.00    -0.274 OA
ATOM      9  N   UNL     1      -1.315  -1.132  23.377  0.00  0.00    -0.302 N 
ATOM     16  C   UNL     1      -0.930  -0.162  24.287  0.00  0.00    +0.236 C 
ATOM     40  H   UNL     1      -1.139  -0.992  22.387  0.00  0.00    +0.150 HD
BRANCH   9  17
ATOM     17  C   UNL     1      -1.945  -2.373  23.764  0.00  0.00    +0.163 C 
BRANCH  17  25
ATOM      6  O   UNL     1      -0.285  -2.913  25.455  0.00  0.00    -0.274 OA
ATOM     11  N   UNL     1      -2.478  -2.685  26.101  0.00  0.00    -0.328 N 
ATOM     25  C   UNL     1      -1.462  -2.701  25.169  0.00  0.00    +0.231 C 
ATOM     42  H   UNL     1      -2.289  -2.874  27.080  0.00  0.00    +0.145 HD
ATOM     43  H   UNL     1      -3.441  -2.484  25.855  0.00  0.00    +0.145 HD
ENDBRANCH  17  25
BRANCH  17  20
ATOM     20  C   UNL     1      -3.477  -2.281  23.732  0.00  0.00    +0.069 C 
BRANCH  20  21
ATOM     10  N   UNL     1      -5.040   0.803  24.978  0.00  0.00    -0.360 N 
ATOM     21  C   UNL     1      -3.990  -0.898  24.014  0.00  0.00    -0.020 A 
ATOM     24  C   UNL     1      -3.746   0.271  23.242  0.00  0.00    +0.003 A 
ATOM     26  C   UNL     1      -4.790  -0.539  25.074  0.00  0.00    +0.087 A 
ATOM     27  C   UNL     1      -4.415   1.324  23.869  0.00  0.00    +0.047 A 
ATOM     31  C   UNL     1      -3.016   0.536  22.065  0.00  0.00    +0.010 A 
ATOM     32  C   UNL     1      -4.390   2.634  23.376  0.00  0.00    +0.026 A 
ATOM     34  C   UNL     1      -2.982   1.841  21.561  0.00  0.00    +0.001 A 
ATOM     35  C   UNL     1      -3.661   2.872  22.208  0.00  0.00    +0.002 A 
ATOM     41  H   UNL     1      -5.602   1.336  25.628  0.00  0.00    +0.165 HD
ENDBRANCH  20  21
ENDBRANCH  17  20
ENDBRANCH   9  17
ENDBRANCH  12  16
TORSDOF 7
ENDMDL
