MODEL 1
REMARK VINA RESULT:       5.1      0.000      0.000
REMARK  Name = 45360494
REMARK  13 active torsions:
REMARK  status: ('A' for Active; 'I' for Inactive)
REMARK    1  A    between atoms: O_4  and  C_24
REMARK    2  A    between atoms: O_4  and  C_27
REMARK    3  A    between atoms: O_7  and  C_41
REMARK    4  A    between atoms: O_7  and  C_42
REMARK    5  A    between atoms: N_9  and  C_20
REMARK    6  A    between atoms: N_11  and  C_29
REMARK    7  A    between atoms: C_13  and  C_17
REMARK    8  A    between atoms: C_14  and  C_19
REMARK    9  A    between atoms: C_17  and  C_20
REMARK   10  A    between atoms: C_19  and  C_24
REMARK   11  A    between atoms: C_27  and  C_30
REMARK   12  A    between atoms: C_27  and  C_31
REMARK   13  A    between atoms: C_27  and  C_32
REMARK                            x       y       z     vdW  Elec       q    Type
REMARK                         _______ _______ _______ _____ _____    ______ ____
ROOT
ATOM      5  O   UNL     1      -0.852  -1.678  25.691  0.00  0.00    -0.252 OA
ATOM      8  N   UNL     1      -2.785  -1.356  24.462  0.00  0.00    -0.285 N 
ATOM     11  N   UNL     1      -0.688  -1.508  23.385  0.00  0.00    -0.269 N 
ATOM     13  C   UNL     1      -4.286   0.243  23.291  0.00  0.00    +0.011 C 
ATOM     14  C   UNL     1      -5.185   0.271  24.552  0.00  0.00    +0.006 C 
ATOM     15  C   UNL     1      -3.521  -1.094  23.214  0.00  0.00    +0.113 C 
ATOM     16  C   UNL     1      -4.385  -0.062  25.822  0.00  0.00    +0.023 C 
ATOM     18  C   UNL     1      -3.623  -1.374  25.663  0.00  0.00    +0.109 C 
ATOM     23  C   UNL     1      -1.388  -1.519  24.591  0.00  0.00    +0.306 C 
ATOM     43  H   UNL     1      -1.168  -1.824  22.549  0.00  0.00    +0.156 HD
ENDROOT
BRANCH  11  29
ATOM     29  C   UNL     1       0.642  -1.069  23.170  0.00  0.00    +0.035 A 
ATOM     34  C   UNL     1       1.635  -1.370  24.102  0.00  0.00    +0.027 A 
ATOM     35  C   UNL     1       0.959  -0.338  22.025  0.00  0.00    +0.027 A 
ATOM     39  C   UNL     1       2.944  -0.938  23.891  0.00  0.00    +0.048 A 
ATOM     40  C   UNL     1       2.269   0.094  21.814  0.00  0.00    +0.048 A 
ATOM     41  C   UNL     1       3.261  -0.207  22.747  0.00  0.00    +0.130 A 
BRANCH  41   7
ATOM      7  O   UNL     1       4.539   0.215  22.540  0.00  0.00    -0.406 OA
BRANCH   7  42
ATOM      1  F   UNL     1       6.740   0.019  23.001  0.00  0.00    -0.133 F 
ATOM      2  F   UNL     1       5.441   0.872  24.537  0.00  0.00    -0.133 F 
ATOM      3  F   UNL     1       5.348  -1.285  24.066  0.00  0.00    -0.133 F 
ATOM     42  C   UNL     1       5.507  -0.047  23.551  0.00  0.00    +0.575 C 
ENDBRANCH   7  42
ENDBRANCH  41   7
ENDBRANCH  11  29
BRANCH  13  17
ATOM     17  C   UNL     1      -3.307   1.421  23.199  0.00  0.00    +0.020 C 
BRANCH  17  20
ATOM     20  C   UNL     1      -1.868   0.943  23.327  0.00  0.00    +0.085 C 
BRANCH  20   9
ATOM      9  N   UNL     1      -1.162   1.755  24.318  0.00  0.00    -0.299 NA
ATOM     10  N   UNL     1       0.382   2.237  26.674  0.00  0.00    -0.313 N 
ATOM     12  N   UNL     1       2.146   3.491  27.630  0.00  0.00    -0.240 NA
ATOM     21  C   UNL     1       0.261   1.395  24.360  0.00  0.00    +0.103 C 
ATOM     22  C   UNL     1      -1.760   1.581  25.647  0.00  0.00    +0.103 C 
ATOM     25  C   UNL     1       1.022   2.278  25.353  0.00  0.00    +0.122 C 
ATOM     26  C   UNL     1      -1.066   2.468  26.684  0.00  0.00    +0.122 C 
ATOM     28  C   UNL     1       1.149   2.591  27.788  0.00  0.00    +0.121 A 
ATOM     33  C   UNL     1       0.833   1.987  28.994  0.00  0.00    +0.043 A 
ATOM     36  C   UNL     1       1.588   2.330  30.111  0.00  0.00    +0.005 A 
ATOM     37  C   UNL     1       2.857   3.800  28.738  0.00  0.00    +0.113 A 
ATOM     38  C   UNL     1       2.621   3.252  29.989  0.00  0.00    +0.020 A 
ENDBRANCH  20   9
ENDBRANCH  17  20
ENDBRANCH  13  17
BRANCH  14  19
ATOM     19  C   UNL     1      -5.944   1.587  24.721  0.00  0.00    +0.124 C 
BRANCH  19  24
ATOM      6  O   UNL     1      -6.396   2.230  27.022  0.00  0.00    -0.251 OA
ATOM     24  C   UNL     1      -5.652   2.233  26.051  0.00  0.00    +0.308 C 
BRANCH  24   4
ATOM      4  O   UNL     1      -4.422   2.821  25.988  0.00  0.00    -0.459 OA
BRANCH   4  27
ATOM     27  C   UNL     1      -4.403   4.162  25.487  0.00  0.00    +0.105 C 
ATOM     30  C   UNL     1      -3.918   4.133  24.038  0.00  0.00    +0.055 C 
ATOM     31  C   UNL     1      -3.441   4.966  26.359  0.00  0.00    +0.055 C 
ATOM     32  C   UNL     1      -5.817   4.734  25.577  0.00  0.00    +0.055 C 
ENDBRANCH   4  27
ENDBRANCH  24   4
ENDBRANCH  19  24
ENDBRANCH  14  19
TORSDOF 10
ENDMDL
