MODEL 1
REMARK VINA RESULT:       1.7      0.000      0.000
REMARK  Name = 11867232
REMARK  4 active torsions:
REMARK  status: ('A' for Active; 'I' for Inactive)
REMARK    1  A    between atoms: S_1  and  N_8
REMARK    2  A    between atoms: S_1  and  C_24
REMARK    3  A    between atoms: N_8  and  C_20
REMARK    4  A    between atoms: C_19  and  C_22
REMARK                            x       y       z     vdW  Elec       q    Type
REMARK                         _______ _______ _______ _____ _____    ______ ____
ROOT
ATOM      2  O   UNL     1       0.045   2.670  25.677  0.00  0.00    -0.266 OA
ATOM      3  O   UNL     1      -4.000  -0.180  27.213  0.00  0.00    -0.268 OA
ATOM      6  N   UNL     1      -4.737   1.232  25.499  0.00  0.00    -0.295 N 
ATOM      7  N   UNL     1      -2.061   2.708  24.652  0.00  0.00    -0.310 N 
ATOM     10  C   UNL     1      -4.155   3.633  25.798  0.00  0.00    +0.027 C 
ATOM     11  C   UNL     1      -4.319   2.686  23.531  0.00  0.00    +0.054 C 
ATOM     12  C   UNL     1      -4.634   3.918  24.379  0.00  0.00    +0.018 C 
ATOM     13  C   UNL     1      -4.874   2.399  26.371  0.00  0.00    +0.113 C 
ATOM     14  C   UNL     1      -2.632   3.457  25.779  0.00  0.00    +0.130 C 
ATOM     15  C   UNL     1      -5.081   1.467  24.088  0.00  0.00    +0.117 C 
ATOM     16  C   UNL     1      -2.829   2.397  23.521  0.00  0.00    +0.027 A 
ATOM     17  C   UNL     1      -2.262   1.811  22.451  0.00  0.00    +0.024 A 
ATOM     18  C   UNL     1      -0.684   2.409  24.721  0.00  0.00    +0.274 A 
ATOM     19  C   UNL     1      -4.289   0.022  26.035  0.00  0.00    +0.265 C 
ATOM     20  C   UNL     1      -0.122   1.742  23.520  0.00  0.00    +0.112 A 
ATOM     21  C   UNL     1      -0.864   1.470  22.446  0.00  0.00    +0.031 A 
ENDROOT
BRANCH  19  22
ATOM      9  N   UNL     1      -3.372  -2.131  25.595  0.00  0.00    -0.250 NA
ATOM     22  C   UNL     1      -4.121  -1.114  25.122  0.00  0.00    +0.126 A 
ATOM     23  C   UNL     1      -4.711  -1.091  23.872  0.00  0.00    +0.033 A 
ATOM     25  C   UNL     1      -4.519  -2.193  23.046  0.00  0.00    +0.004 A 
ATOM     26  C   UNL     1      -3.207  -3.185  24.764  0.00  0.00    +0.111 A 
ATOM     27  C   UNL     1      -3.753  -3.264  23.494  0.00  0.00    +0.020 A 
ENDBRANCH  19  22
BRANCH  20   8
ATOM      8  N   UNL     1       1.238   1.382  23.482  0.00  0.00    -0.211 N 
ATOM     33  H   UNL     1       1.838   2.127  23.101  0.00  0.00    +0.174 HD
BRANCH   8   1
ATOM      1  S   UNL     1       1.608  -0.174  22.926  0.00  0.00    +0.072 S 
ATOM      4  O   UNL     1       0.943  -1.161  23.755  0.00  0.00    -0.150 OA
ATOM      5  O   UNL     1       1.472  -0.221  21.482  0.00  0.00    -0.150 OA
BRANCH   1  24
ATOM     24  C   UNL     1       3.336  -0.252  23.295  0.00  0.00    +0.108 A 
ATOM     28  C   UNL     1       4.118   0.874  23.105  0.00  0.00    +0.029 A 
ATOM     29  C   UNL     1       3.873  -1.437  23.766  0.00  0.00    +0.029 A 
ATOM     30  C   UNL     1       5.481   0.813  23.396  0.00  0.00    +0.002 A 
ATOM     31  C   UNL     1       5.236  -1.498  24.057  0.00  0.00    +0.002 A 
ATOM     32  C   UNL     1       6.039  -0.373  23.872  0.00  0.00    +0.000 A 
ENDBRANCH   1  24
ENDBRANCH   8   1
ENDBRANCH  20   8
TORSDOF 4
ENDMDL
MODEL 2
REMARK VINA RESULT:       5.3      1.902      4.360
REMARK  Name = 11867232
REMARK  4 active torsions:
REMARK  status: ('A' for Active; 'I' for Inactive)
REMARK    1  A    between atoms: S_1  and  N_8
REMARK    2  A    between atoms: S_1  and  C_24
REMARK    3  A    between atoms: N_8  and  C_20
REMARK    4  A    between atoms: C_19  and  C_22
REMARK                            x       y       z     vdW  Elec       q    Type
REMARK                         _______ _______ _______ _____ _____    ______ ____
ROOT
ATOM      2  O   UNL     1      -1.170  -1.760  22.506  0.00  0.00    -0.266 OA
ATOM      3  O   UNL     1      -3.838   2.680  22.370  0.00  0.00    -0.268 OA
ATOM      6  N   UNL     1      -4.228   1.681  24.449  0.00  0.00    -0.295 N 
ATOM      7  N   UNL     1      -2.368  -0.884  24.319  0.00  0.00    -0.310 N 
ATOM     10  C   UNL     1      -4.921  -0.708  24.350  0.00  0.00    +0.027 C 
ATOM     11  C   UNL     1      -3.614   0.110  26.271  0.00  0.00    +0.054 C 
ATOM     12  C   UNL     1      -4.768  -0.806  25.864  0.00  0.00    +0.018 C 
ATOM     13  C   UNL     1      -5.226   0.743  23.934  0.00  0.00    +0.113 C 
ATOM     14  C   UNL     1      -3.645  -1.242  23.689  0.00  0.00    +0.130 C 
ATOM     15  C   UNL     1      -3.952   1.565  25.890  0.00  0.00    +0.117 C 
ATOM     16  C   UNL     1      -2.321  -0.309  25.596  0.00  0.00    +0.027 A 
ATOM     17  C   UNL     1      -1.141  -0.092  26.205  0.00  0.00    +0.024 A 
ATOM     18  C   UNL     1      -1.194  -1.239  23.619  0.00  0.00    +0.274 A 
ATOM     19  C   UNL     1      -3.612   2.578  23.575  0.00  0.00    +0.265 C 
ATOM     20  C   UNL     1       0.076  -0.953  24.332  0.00  0.00    +0.112 A 
ATOM     21  C   UNL     1       0.099  -0.422  25.556  0.00  0.00    +0.031 A 
ENDROOT
BRANCH  19  22
ATOM      9  N   UNL     1      -1.314   3.034  24.001  0.00  0.00    -0.250 NA
ATOM     22  C   UNL     1      -2.584   3.473  24.119  0.00  0.00    +0.126 A 
ATOM     23  C   UNL     1      -2.948   4.672  24.703  0.00  0.00    +0.033 A 
ATOM     25  C   UNL     1      -1.934   5.480  25.204  0.00  0.00    +0.004 A 
ATOM     26  C   UNL     1      -0.355   3.847  24.499  0.00  0.00    +0.111 A 
ATOM     27  C   UNL     1      -0.610   5.067  25.104  0.00  0.00    +0.020 A 
ENDBRANCH  19  22
BRANCH  20   8
ATOM      8  N   UNL     1       1.310  -1.251  23.726  0.00  0.00    -0.211 N 
ATOM     33  H   UNL     1       1.960  -1.736  24.361  0.00  0.00    +0.174 HD
BRANCH   8   1
ATOM      1  S   UNL     1       2.019  -0.036  22.785  0.00  0.00    +0.072 S 
ATOM      4  O   UNL     1       1.917  -0.383  21.380  0.00  0.00    -0.150 OA
ATOM      5  O   UNL     1       1.575   1.265  23.251  0.00  0.00    -0.150 OA
BRANCH   1  24
ATOM     24  C   UNL     1       3.717  -0.209  23.249  0.00  0.00    +0.108 A 
ATOM     28  C   UNL     1       4.156  -1.419  23.759  0.00  0.00    +0.029 A 
ATOM     29  C   UNL     1       4.572   0.867  23.096  0.00  0.00    +0.029 A 
ATOM     30  C   UNL     1       5.495  -1.556  24.125  0.00  0.00    +0.002 A 
ATOM     31  C   UNL     1       5.911   0.730  23.463  0.00  0.00    +0.002 A 
ATOM     32  C   UNL     1       6.372  -0.482  23.977  0.00  0.00    +0.000 A 
ENDBRANCH   1  24
ENDBRANCH   8   1
ENDBRANCH  20   8
TORSDOF 4
ENDMDL
