MODEL 1
REMARK VINA RESULT:      -1.8      0.000      0.000
REMARK  Name = 75536101
REMARK  8 active torsions:
REMARK  status: ('A' for Active; 'I' for Inactive)
REMARK    1  A    between atoms: O_1  and  C_8
REMARK    2  A    between atoms: O_2  and  C_10
REMARK    3  A    between atoms: O_3  and  C_18
REMARK    4  A    between atoms: O_3  and  C_25
REMARK    5  A    between atoms: N_4  and  C_6
REMARK    6  A    between atoms: N_4  and  C_12
REMARK    7  A    between atoms: C_7  and  C_11
REMARK    8  A    between atoms: C_12  and  C_15
REMARK                            x       y       z     vdW  Elec       q    Type
REMARK                         _______ _______ _______ _____ _____    ______ ____
ROOT
ATOM      6  C   UNL     1      -4.673   2.720  24.984  0.00  0.00    +0.092 C 
ATOM      7  C   UNL     1      -5.118   1.363  24.394  0.00  0.00    +0.041 C 
ATOM      8  C   UNL     1      -5.997   3.404  25.319  0.00  0.00    +0.160 C 
ATOM      9  C   UNL     1      -6.512   1.078  25.015  0.00  0.00    +0.043 C 
ATOM     10  C   UNL     1      -6.816   2.268  25.926  0.00  0.00    +0.145 C 
ENDROOT
BRANCH   7  11
ATOM     11  C   UNL     1      -4.105   0.258  24.612  0.00  0.00    -0.042 A 
ATOM     13  C   UNL     1      -3.115   0.401  25.584  0.00  0.00    +0.007 A 
ATOM     14  C   UNL     1      -4.163  -0.903  23.841  0.00  0.00    +0.007 A 
ATOM     16  C   UNL     1      -2.182  -0.616  25.785  0.00  0.00    +0.046 A 
ATOM     17  C   UNL     1      -3.229  -1.921  24.042  0.00  0.00    +0.046 A 
ATOM     18  C   UNL     1      -2.239  -1.777  25.014  0.00  0.00    +0.120 A 
BRANCH  18   3
ATOM      3  O   UNL     1      -1.329  -2.769  25.210  0.00  0.00    -0.495 OA
ATOM     25  C   UNL     1       0.030  -2.375  25.395  0.00  0.00    +0.277 C 
ENDBRANCH  18   3
ENDBRANCH   7  11
BRANCH   8   1
ATOM      1  O   UNL     1      -5.818   4.474  26.228  0.00  0.00    -0.388 OA
ATOM     29  H   UNL     1      -5.190   5.098  25.824  0.00  0.00    +0.210 HD
ENDBRANCH   8   1
BRANCH  10   2
ATOM      2  O   UNL     1      -6.362   1.985  27.246  0.00  0.00    -0.389 OA
ATOM     30  H   UNL     1      -5.898   1.132  27.218  0.00  0.00    +0.210 HD
ENDBRANCH  10   2
BRANCH   6   4
ATOM      4  N   UNL     1      -3.886   3.500  24.034  0.00  0.00    -0.306 NA
ATOM     28  H   UNL     1      -3.599   2.895  23.265  0.00  0.00    +0.123 HD
BRANCH   4  12
ATOM     12  C   UNL     1      -2.696   4.045  24.671  0.00  0.00    +0.118 C 
BRANCH  12  15
ATOM      5  N   UNL     1       0.840   2.710  24.864  0.00  0.00    -0.255 NA
ATOM     15  C   UNL     1      -1.482   3.191  24.413  0.00  0.00    -0.015 A 
ATOM     19  C   UNL     1      -1.527   2.127  23.524  0.00  0.00    +0.016 A 
ATOM     20  C   UNL     1      -0.284   3.438  25.052  0.00  0.00    +0.116 A 
ATOM     21  C   UNL     1      -0.384   1.346  23.301  0.00  0.00    +0.001 A 
ATOM     22  C   UNL     1       0.793   1.677  24.001  0.00  0.00    +0.071 A 
ATOM     23  C   UNL     1      -0.398   0.261  22.408  0.00  0.00    +0.010 A 
ATOM     24  C   UNL     1       1.929   0.903  23.779  0.00  0.00    +0.028 A 
ATOM     26  C   UNL     1       0.752  -0.497  22.204  0.00  0.00    +0.001 A 
ATOM     27  C   UNL     1       1.916  -0.176  22.890  0.00  0.00    +0.002 A 
ENDBRANCH  12  15
ENDBRANCH   4  12
ENDBRANCH   6   4
TORSDOF 7
ENDMDL
MODEL 2
REMARK VINA RESULT:      -1.3     15.755     17.700
REMARK  Name = 75536101
REMARK  8 active torsions:
REMARK  status: ('A' for Active; 'I' for Inactive)
REMARK    1  A    between atoms: O_1  and  C_8
REMARK    2  A    between atoms: O_2  and  C_10
REMARK    3  A    between atoms: O_3  and  C_18
REMARK    4  A    between atoms: O_3  and  C_25
REMARK    5  A    between atoms: N_4  and  C_6
REMARK    6  A    between atoms: N_4  and  C_12
REMARK    7  A    between atoms: C_7  and  C_11
REMARK    8  A    between atoms: C_12  and  C_15
REMARK                            x       y       z     vdW  Elec       q    Type
REMARK                         _______ _______ _______ _____ _____    ______ ____
ROOT
ATOM      6  C   UNL     1      -8.342  -9.602  10.278  0.00  0.00    +0.092 C 
ATOM      7  C   UNL     1      -9.763  -9.913  10.800  0.00  0.00    +0.041 C 
ATOM      8  C   UNL     1      -8.594  -9.128   8.847  0.00  0.00    +0.160 C 
ATOM      9  C   UNL     1     -10.717  -9.017   9.965  0.00  0.00    +0.043 C 
ATOM     10  C   UNL     1      -9.822  -8.235   9.002  0.00  0.00    +0.145 C 
ENDROOT
BRANCH   7  11
ATOM     11  C   UNL     1      -9.899  -9.735  12.298  0.00  0.00    -0.042 A 
ATOM     13  C   UNL     1      -9.369 -10.692  13.164  0.00  0.00    +0.007 A 
ATOM     14  C   UNL     1     -10.552  -8.615  12.811  0.00  0.00    +0.007 A 
ATOM     16  C   UNL     1      -9.494 -10.530  14.543  0.00  0.00    +0.046 A 
ATOM     17  C   UNL     1     -10.677  -8.453  14.192  0.00  0.00    +0.046 A 
ATOM     18  C   UNL     1     -10.148  -9.410  15.058  0.00  0.00    +0.120 A 
BRANCH  18   3
ATOM      3  O   UNL     1     -10.271  -9.252  16.403  0.00  0.00    -0.495 OA
ATOM     25  C   UNL     1     -10.049  -7.942  16.926  0.00  0.00    +0.277 C 
ENDBRANCH  18   3
ENDBRANCH   7  11
BRANCH   8   1
ATOM      1  O   UNL     1      -7.485  -8.420   8.328  0.00  0.00    -0.388 OA
ATOM     29  H   UNL     1      -6.695  -8.718   8.812  0.00  0.00    +0.210 HD
ENDBRANCH   8   1
BRANCH  10   2
ATOM      2  O   UNL     1      -9.456  -6.993   9.596  0.00  0.00    -0.389 OA
ATOM     30  H   UNL     1      -9.793  -6.285   9.022  0.00  0.00    +0.210 HD
ENDBRANCH  10   2
BRANCH   6   4
ATOM      4  N   UNL     1      -7.475 -10.775  10.313  0.00  0.00    -0.306 NA
ATOM     28  H   UNL     1      -8.053 -11.616  10.304  0.00  0.00    +0.123 HD
BRANCH   4  12
ATOM     12  C   UNL     1      -6.661 -10.781  11.521  0.00  0.00    +0.118 C 
BRANCH  12  15
ATOM      5  N   UNL     1      -3.661  -9.337   9.722  0.00  0.00    -0.255 NA
ATOM     15  C   UNL     1      -5.257 -10.306  11.252  0.00  0.00    -0.015 A 
ATOM     19  C   UNL     1      -4.273 -10.383  12.226  0.00  0.00    +0.016 A 
ATOM     20  C   UNL     1      -4.902  -9.780  10.026  0.00  0.00    +0.116 A 
ATOM     21  C   UNL     1      -2.973  -9.934  11.952  0.00  0.00    +0.001 A 
ATOM     22  C   UNL     1      -2.708  -9.412  10.670  0.00  0.00    +0.071 A 
ATOM     23  C   UNL     1      -1.954  -9.997  12.918  0.00  0.00    +0.010 A 
ATOM     24  C   UNL     1      -1.417  -8.967  10.397  0.00  0.00    +0.028 A 
ATOM     26  C   UNL     1      -0.672  -9.545  12.619  0.00  0.00    +0.001 A 
ATOM     27  C   UNL     1      -0.403  -9.030  11.357  0.00  0.00    +0.002 A 
ENDBRANCH  12  15
ENDBRANCH   4  12
ENDBRANCH   6   4
TORSDOF 7
ENDMDL
MODEL 3
REMARK VINA RESULT:      -1.0      1.833      5.302
REMARK  Name = 75536101
REMARK  8 active torsions:
REMARK  status: ('A' for Active; 'I' for Inactive)
REMARK    1  A    between atoms: O_1  and  C_8
REMARK    2  A    between atoms: O_2  and  C_10
REMARK    3  A    between atoms: O_3  and  C_18
REMARK    4  A    between atoms: O_3  and  C_25
REMARK    5  A    between atoms: N_4  and  C_6
REMARK    6  A    between atoms: N_4  and  C_12
REMARK    7  A    between atoms: C_7  and  C_11
REMARK    8  A    between atoms: C_12  and  C_15
REMARK                            x       y       z     vdW  Elec       q    Type
REMARK                         _______ _______ _______ _____ _____    ______ ____
ROOT
ATOM      6  C   UNL     1      -2.547  -1.555  24.740  0.00  0.00    +0.092 C 
ATOM      7  C   UNL     1      -3.964  -1.169  25.223  0.00  0.00    +0.041 C 
ATOM      8  C   UNL     1      -2.703  -3.024  24.348  0.00  0.00    +0.160 C 
ATOM      9  C   UNL     1      -4.931  -2.138  24.490  0.00  0.00    +0.043 C 
ATOM     10  C   UNL     1      -4.046  -3.037  23.624  0.00  0.00    +0.145 C 
ENDROOT
BRANCH   7  11
ATOM     11  C   UNL     1      -4.284   0.297  25.020  0.00  0.00    -0.042 A 
ATOM     13  C   UNL     1      -3.771   0.976  23.914  0.00  0.00    +0.007 A 
ATOM     14  C   UNL     1      -5.091   0.969  25.938  0.00  0.00    +0.007 A 
ATOM     16  C   UNL     1      -4.066   2.325  23.727  0.00  0.00    +0.046 A 
ATOM     17  C   UNL     1      -5.384   2.320  25.751  0.00  0.00    +0.046 A 
ATOM     18  C   UNL     1      -4.872   2.998  24.644  0.00  0.00    +0.120 A 
BRANCH  18   3
ATOM      3  O   UNL     1      -5.158   4.316  24.462  0.00  0.00    -0.495 OA
ATOM     25  C   UNL     1      -5.936   4.957  25.472  0.00  0.00    +0.277 C 
ENDBRANCH  18   3
ENDBRANCH   7  11
BRANCH   8   1
ATOM      1  O   UNL     1      -1.645  -3.456  23.513  0.00  0.00    -0.388 OA
ATOM     29  H   UNL     1      -0.826  -3.049  23.846  0.00  0.00    +0.210 HD
ENDBRANCH   8   1
BRANCH  10   2
ATOM      2  O   UNL     1      -3.911  -2.464  22.327  0.00  0.00    -0.389 OA
ATOM     30  H   UNL     1      -4.201  -1.538  22.385  0.00  0.00    +0.210 HD
ENDBRANCH  10   2
BRANCH   6   4
ATOM      4  N   UNL     1      -1.544  -1.378  25.785  0.00  0.00    -0.306 NA
ATOM     28  H   UNL     1      -1.890  -0.702  26.466  0.00  0.00    +0.123 HD
BRANCH   4  12
ATOM     12  C   UNL     1      -0.296  -0.880  25.224  0.00  0.00    +0.118 C 
BRANCH  12  15
ATOM      5  N   UNL     1       0.389   2.496  23.657  0.00  0.00    -0.255 NA
ATOM     15  C   UNL     1      -0.353   0.600  24.956  0.00  0.00    -0.015 A 
ATOM     19  C   UNL     1      -1.161   1.438  25.712  0.00  0.00    +0.016 A 
ATOM     20  C   UNL     1       0.396   1.175  23.949  0.00  0.00    +0.116 A 
ATOM     21  C   UNL     1      -1.197   2.813  25.442  0.00  0.00    +0.001 A 
ATOM     22  C   UNL     1      -0.396   3.306  24.393  0.00  0.00    +0.071 A 
ATOM     23  C   UNL     1      -2.006   3.688  26.189  0.00  0.00    +0.010 A 
ATOM     24  C   UNL     1      -0.431   4.672  24.126  0.00  0.00    +0.028 A 
ATOM     26  C   UNL     1      -2.022   5.049  25.901  0.00  0.00    +0.001 A 
ATOM     27  C   UNL     1      -1.235   5.542  24.868  0.00  0.00    +0.002 A 
ENDBRANCH  12  15
ENDBRANCH   4  12
ENDBRANCH   6   4
TORSDOF 7
ENDMDL
MODEL 4
REMARK VINA RESULT:      -0.7      1.529      2.327
REMARK  Name = 75536101
REMARK  8 active torsions:
REMARK  status: ('A' for Active; 'I' for Inactive)
REMARK    1  A    between atoms: O_1  and  C_8
REMARK    2  A    between atoms: O_2  and  C_10
REMARK    3  A    between atoms: O_3  and  C_18
REMARK    4  A    between atoms: O_3  and  C_25
REMARK    5  A    between atoms: N_4  and  C_6
REMARK    6  A    between atoms: N_4  and  C_12
REMARK    7  A    between atoms: C_7  and  C_11
REMARK    8  A    between atoms: C_12  and  C_15
REMARK                            x       y       z     vdW  Elec       q    Type
REMARK                         _______ _______ _______ _____ _____    ______ ____
ROOT
ATOM      6  C   UNL     1      -3.607   2.744  25.463  0.00  0.00    +0.092 C 
ATOM      7  C   UNL     1      -4.386   1.906  24.423  0.00  0.00    +0.041 C 
ATOM      8  C   UNL     1      -4.514   3.953  25.684  0.00  0.00    +0.160 C 
ATOM      9  C   UNL     1      -5.878   2.291  24.615  0.00  0.00    +0.043 C 
ATOM     10  C   UNL     1      -5.903   3.324  25.742  0.00  0.00    +0.145 C 
ENDROOT
BRANCH   7  11
ATOM     11  C   UNL     1      -4.110   0.421  24.527  0.00  0.00    -0.042 A 
ATOM     13  C   UNL     1      -4.216  -0.388  23.395  0.00  0.00    +0.007 A 
ATOM     14  C   UNL     1      -3.750  -0.138  25.753  0.00  0.00    +0.007 A 
ATOM     16  C   UNL     1      -3.962  -1.756  23.490  0.00  0.00    +0.046 A 
ATOM     17  C   UNL     1      -3.497  -1.507  25.847  0.00  0.00    +0.046 A 
ATOM     18  C   UNL     1      -3.603  -2.316  24.715  0.00  0.00    +0.120 A 
BRANCH  18   3
ATOM      3  O   UNL     1      -3.356  -3.650  24.808  0.00  0.00    -0.495 OA
ATOM     25  C   UNL     1      -3.246  -4.377  23.584  0.00  0.00    +0.277 C 
ENDBRANCH  18   3
ENDBRANCH   7  11
BRANCH   8   1
ATOM      1  O   UNL     1      -4.191   4.637  26.880  0.00  0.00    -0.388 OA
ATOM     29  H   UNL     1      -3.875   5.524  26.633  0.00  0.00    +0.210 HD
ENDBRANCH   8   1
BRANCH  10   2
ATOM      2  O   UNL     1      -6.093   2.663  26.989  0.00  0.00    -0.389 OA
ATOM     30  H   UNL     1      -7.050   2.595  27.141  0.00  0.00    +0.210 HD
ENDBRANCH  10   2
BRANCH   6   4
ATOM      4  N   UNL     1      -2.290   3.137  24.976  0.00  0.00    -0.306 NA
ATOM     28  H   UNL     1      -2.231   2.937  23.977  0.00  0.00    +0.123 HD
BRANCH   4  12
ATOM     12  C   UNL     1      -1.241   2.398  25.664  0.00  0.00    +0.118 C 
BRANCH  12  15
ATOM      5  N   UNL     1      -0.136  -0.256  23.203  0.00  0.00    -0.255 NA
ATOM     15  C   UNL     1      -0.382   1.620  24.702  0.00  0.00    -0.015 A 
ATOM     19  C   UNL     1       0.917   2.015  24.416  0.00  0.00    +0.016 A 
ATOM     20  C   UNL     1      -0.856   0.486  24.075  0.00  0.00    +0.116 A 
ATOM     21  C   UNL     1       1.698   1.274  23.518  0.00  0.00    +0.001 A 
ATOM     22  C   UNL     1       1.124   0.130  22.926  0.00  0.00    +0.071 A 
ATOM     23  C   UNL     1       3.016   1.649  23.206  0.00  0.00    +0.010 A 
ATOM     24  C   UNL     1       1.899  -0.607  22.035  0.00  0.00    +0.028 A 
ATOM     26  C   UNL     1       3.769   0.894  22.311  0.00  0.00    +0.001 A 
ATOM     27  C   UNL     1       3.210  -0.235  21.724  0.00  0.00    +0.002 A 
ENDBRANCH  12  15
ENDBRANCH   4  12
ENDBRANCH   6   4
TORSDOF 7
ENDMDL
MODEL 5
REMARK VINA RESULT:      -0.3      1.643      2.470
REMARK  Name = 75536101
REMARK  8 active torsions:
REMARK  status: ('A' for Active; 'I' for Inactive)
REMARK    1  A    between atoms: O_1  and  C_8
REMARK    2  A    between atoms: O_2  and  C_10
REMARK    3  A    between atoms: O_3  and  C_18
REMARK    4  A    between atoms: O_3  and  C_25
REMARK    5  A    between atoms: N_4  and  C_6
REMARK    6  A    between atoms: N_4  and  C_12
REMARK    7  A    between atoms: C_7  and  C_11
REMARK    8  A    between atoms: C_12  and  C_15
REMARK                            x       y       z     vdW  Elec       q    Type
REMARK                         _______ _______ _______ _____ _____    ______ ____
ROOT
ATOM      6  C   UNL     1      -2.985   2.717  25.615  0.00  0.00    +0.092 C 
ATOM      7  C   UNL     1      -3.694   2.000  24.443  0.00  0.00    +0.041 C 
ATOM      8  C   UNL     1      -3.719   4.055  25.698  0.00  0.00    +0.160 C 
ATOM      9  C   UNL     1      -5.120   2.612  24.384  0.00  0.00    +0.043 C 
ATOM     10  C   UNL     1      -5.178   3.648  25.508  0.00  0.00    +0.145 C 
ENDROOT
BRANCH   7  11
ATOM     11  C   UNL     1      -3.672   0.491  24.567  0.00  0.00    -0.042 A 
ATOM     13  C   UNL     1      -3.294  -0.104  25.771  0.00  0.00    +0.007 A 
ATOM     14  C   UNL     1      -4.030  -0.304  23.479  0.00  0.00    +0.007 A 
ATOM     16  C   UNL     1      -3.274  -1.493  25.887  0.00  0.00    +0.046 A 
ATOM     17  C   UNL     1      -4.009  -1.694  23.594  0.00  0.00    +0.046 A 
ATOM     18  C   UNL     1      -3.631  -2.289  24.798  0.00  0.00    +0.120 A 
BRANCH  18   3
ATOM      3  O   UNL     1      -3.610  -3.645  24.910  0.00  0.00    -0.495 OA
ATOM     25  C   UNL     1      -3.775  -4.398  23.709  0.00  0.00    +0.277 C 
ENDBRANCH  18   3
ENDBRANCH   7  11
BRANCH   8   1
ATOM      1  O   UNL     1      -3.504   4.692  26.943  0.00  0.00    -0.388 OA
ATOM     29  H   UNL     1      -3.043   5.530  26.765  0.00  0.00    +0.210 HD
ENDBRANCH   8   1
BRANCH  10   2
ATOM      2  O   UNL     1      -5.677   3.036  26.693  0.00  0.00    -0.389 OA
ATOM     30  H   UNL     1      -5.354   2.120  26.707  0.00  0.00    +0.210 HD
ENDBRANCH  10   2
BRANCH   6   4
ATOM      4  N   UNL     1      -1.559   2.898  25.366  0.00  0.00    -0.306 NA
ATOM     28  H   UNL     1      -1.296   3.851  25.616  0.00  0.00    +0.123 HD
BRANCH   4  12
ATOM     12  C   UNL     1      -1.247   2.680  23.960  0.00  0.00    +0.118 C 
BRANCH  12  15
ATOM      5  N   UNL     1       0.579  -0.628  23.745  0.00  0.00    -0.255 NA
ATOM     15  C   UNL     1      -0.138   1.678  23.782  0.00  0.00    -0.015 A 
ATOM     19  C   UNL     1       1.159   2.082  23.500  0.00  0.00    +0.016 A 
ATOM     20  C   UNL     1      -0.373   0.323  23.894  0.00  0.00    +0.116 A 
ATOM     21  C   UNL     1       2.175   1.130  23.338  0.00  0.00    +0.001 A 
ATOM     22  C   UNL     1       1.836  -0.232  23.471  0.00  0.00    +0.071 A 
ATOM     23  C   UNL     1       3.498   1.508  23.050  0.00  0.00    +0.010 A 
ATOM     24  C   UNL     1       2.845  -1.178  23.311  0.00  0.00    +0.028 A 
ATOM     26  C   UNL     1       4.488   0.541  22.895  0.00  0.00    +0.001 A 
ATOM     27  C   UNL     1       4.161  -0.803  23.026  0.00  0.00    +0.002 A 
ENDBRANCH  12  15
ENDBRANCH   4  12
ENDBRANCH   6   4
TORSDOF 7
ENDMDL
MODEL 6
REMARK VINA RESULT:      -0.3      2.265      4.671
REMARK  Name = 75536101
REMARK  8 active torsions:
REMARK  status: ('A' for Active; 'I' for Inactive)
REMARK    1  A    between atoms: O_1  and  C_8
REMARK    2  A    between atoms: O_2  and  C_10
REMARK    3  A    between atoms: O_3  and  C_18
REMARK    4  A    between atoms: O_3  and  C_25
REMARK    5  A    between atoms: N_4  and  C_6
REMARK    6  A    between atoms: N_4  and  C_12
REMARK    7  A    between atoms: C_7  and  C_11
REMARK    8  A    between atoms: C_12  and  C_15
REMARK                            x       y       z     vdW  Elec       q    Type
REMARK                         _______ _______ _______ _____ _____    ______ ____
ROOT
ATOM      6  C   UNL     1      -2.152   4.082  25.282  0.00  0.00    +0.092 C 
ATOM      7  C   UNL     1      -0.874   3.420  25.847  0.00  0.00    +0.041 C 
ATOM      8  C   UNL     1      -1.749   5.548  25.136  0.00  0.00    +0.160 C 
ATOM      9  C   UNL     1       0.301   4.319  25.374  0.00  0.00    +0.043 C 
ATOM     10  C   UNL     1      -0.336   5.451  24.567  0.00  0.00    +0.145 C 
ENDROOT
BRANCH   7  11
ATOM     11  C   UNL     1      -0.736   1.963  25.458  0.00  0.00    -0.042 A 
ATOM     13  C   UNL     1      -0.527   1.615  24.124  0.00  0.00    +0.007 A 
ATOM     14  C   UNL     1      -0.816   0.970  26.434  0.00  0.00    +0.007 A 
ATOM     16  C   UNL     1      -0.399   0.273  23.765  0.00  0.00    +0.046 A 
ATOM     17  C   UNL     1      -0.689  -0.372  26.075  0.00  0.00    +0.046 A 
ATOM     18  C   UNL     1      -0.480  -0.721  24.740  0.00  0.00    +0.120 A 
BRANCH  18   3
ATOM      3  O   UNL     1      -0.356  -2.029  24.391  0.00  0.00    -0.495 OA
ATOM     25  C   UNL     1       0.083  -2.933  25.404  0.00  0.00    +0.277 C 
ENDBRANCH  18   3
ENDBRANCH   7  11
BRANCH   8   1
ATOM      1  O   UNL     1      -2.623   6.246  24.271  0.00  0.00    -0.388 OA
ATOM     29  H   UNL     1      -3.388   5.669  24.100  0.00  0.00    +0.210 HD
ENDBRANCH   8   1
BRANCH  10   2
ATOM      2  O   UNL     1      -0.384   5.086  23.191  0.00  0.00    -0.389 OA
ATOM     30  H   UNL     1      -0.952   5.731  22.738  0.00  0.00    +0.210 HD
ENDBRANCH  10   2
BRANCH   6   4
ATOM      4  N   UNL     1      -3.294   3.922  26.177  0.00  0.00    -0.306 NA
ATOM     28  H   UNL     1      -3.058   3.239  26.898  0.00  0.00    +0.123 HD
BRANCH   4  12
ATOM     12  C   UNL     1      -4.461   3.446  25.448  0.00  0.00    +0.118 C 
BRANCH  12  15
ATOM      5  N   UNL     1      -3.988   0.600  22.999  0.00  0.00    -0.255 NA
ATOM     15  C   UNL     1      -4.255   2.057  24.906  0.00  0.00    -0.015 A 
ATOM     19  C   UNL     1      -4.143   0.963  25.753  0.00  0.00    +0.016 A 
ATOM     20  C   UNL     1      -4.172   1.822  23.548  0.00  0.00    +0.116 A 
ATOM     21  C   UNL     1      -3.951  -0.321  25.224  0.00  0.00    +0.001 A 
ATOM     22  C   UNL     1      -3.879  -0.459  23.823  0.00  0.00    +0.071 A 
ATOM     23  C   UNL     1      -3.833  -1.448  26.056  0.00  0.00    +0.010 A 
ATOM     24  C   UNL     1      -3.690  -1.734  23.298  0.00  0.00    +0.028 A 
ATOM     26  C   UNL     1      -3.644  -2.712  25.504  0.00  0.00    +0.001 A 
ATOM     27  C   UNL     1      -3.572  -2.856  24.124  0.00  0.00    +0.002 A 
ENDBRANCH  12  15
ENDBRANCH   4  12
ENDBRANCH   6   4
TORSDOF 7
ENDMDL
MODEL 7
REMARK VINA RESULT:      -0.3      2.501      5.292
REMARK  Name = 75536101
REMARK  8 active torsions:
REMARK  status: ('A' for Active; 'I' for Inactive)
REMARK    1  A    between atoms: O_1  and  C_8
REMARK    2  A    between atoms: O_2  and  C_10
REMARK    3  A    between atoms: O_3  and  C_18
REMARK    4  A    between atoms: O_3  and  C_25
REMARK    5  A    between atoms: N_4  and  C_6
REMARK    6  A    between atoms: N_4  and  C_12
REMARK    7  A    between atoms: C_7  and  C_11
REMARK    8  A    between atoms: C_12  and  C_15
REMARK                            x       y       z     vdW  Elec       q    Type
REMARK                         _______ _______ _______ _____ _____    ______ ____
ROOT
ATOM      6  C   UNL     1      -1.754  -1.265  24.295  0.00  0.00    +0.092 C 
ATOM      7  C   UNL     1      -1.931  -0.519  25.637  0.00  0.00    +0.041 C 
ATOM      8  C   UNL     1      -2.444  -2.604  24.548  0.00  0.00    +0.160 C 
ATOM      9  C   UNL     1      -3.203  -1.130  26.285  0.00  0.00    +0.043 C 
ATOM     10  C   UNL     1      -3.703  -2.194  25.306  0.00  0.00    +0.145 C 
ENDROOT
BRANCH   7  11
ATOM     11  C   UNL     1      -1.978   0.987  25.480  0.00  0.00    -0.042 A 
ATOM     13  C   UNL     1      -3.133   1.602  24.998  0.00  0.00    +0.007 A 
ATOM     14  C   UNL     1      -0.866   1.758  25.819  0.00  0.00    +0.007 A 
ATOM     16  C   UNL     1      -3.177   2.988  24.854  0.00  0.00    +0.046 A 
ATOM     17  C   UNL     1      -0.910   3.145  25.674  0.00  0.00    +0.046 A 
ATOM     18  C   UNL     1      -2.065   3.760  25.192  0.00  0.00    +0.120 A 
BRANCH  18   3
ATOM      3  O   UNL     1      -2.107   5.112  25.050  0.00  0.00    -0.495 OA
ATOM     25  C   UNL     1      -0.882   5.770  24.730  0.00  0.00    +0.277 C 
ENDBRANCH  18   3
ENDBRANCH   7  11
BRANCH   8   1
ATOM      1  O   UNL     1      -2.747  -3.273  23.338  0.00  0.00    -0.388 OA
ATOM     29  H   UNL     1      -1.907  -3.584  22.959  0.00  0.00    +0.210 HD
ENDBRANCH   8   1
BRANCH  10   2
ATOM      2  O   UNL     1      -4.648  -1.612  24.413  0.00  0.00    -0.389 OA
ATOM     30  H   UNL     1      -4.149  -1.101  23.754  0.00  0.00    +0.210 HD
ENDBRANCH  10   2
BRANCH   6   4
ATOM      4  N   UNL     1      -0.347  -1.439  23.946  0.00  0.00    -0.306 NA
ATOM     28  H   UNL     1       0.220  -1.333  24.788  0.00  0.00    +0.123 HD
BRANCH   4  12
ATOM     12  C   UNL     1       0.072  -0.442  22.971  0.00  0.00    +0.118 C 
BRANCH  12  15
ATOM      5  N   UNL     1       3.307   1.522  22.981  0.00  0.00    -0.255 NA
ATOM     15  C   UNL     1       1.536  -0.116  23.098  0.00  0.00    -0.015 A 
ATOM     19  C   UNL     1       2.464  -1.091  23.433  0.00  0.00    +0.016 A 
ATOM     20  C   UNL     1       2.006   1.164  22.883  0.00  0.00    +0.116 A 
ATOM     21  C   UNL     1       3.822  -0.763  23.545  0.00  0.00    +0.001 A 
ATOM     22  C   UNL     1       4.205   0.573  23.307  0.00  0.00    +0.071 A 
ATOM     23  C   UNL     1       4.787  -1.728  23.884  0.00  0.00    +0.010 A 
ATOM     24  C   UNL     1       5.554   0.899  23.417  0.00  0.00    +0.028 A 
ATOM     26  C   UNL     1       6.129  -1.375  23.987  0.00  0.00    +0.001 A 
ATOM     27  C   UNL     1       6.513  -0.061  23.754  0.00  0.00    +0.002 A 
ENDBRANCH  12  15
ENDBRANCH   4  12
ENDBRANCH   6   4
TORSDOF 7
ENDMDL
MODEL 8
REMARK VINA RESULT:      -0.1      2.206      5.865
REMARK  Name = 75536101
REMARK  8 active torsions:
REMARK  status: ('A' for Active; 'I' for Inactive)
REMARK    1  A    between atoms: O_1  and  C_8
REMARK    2  A    between atoms: O_2  and  C_10
REMARK    3  A    between atoms: O_3  and  C_18
REMARK    4  A    between atoms: O_3  and  C_25
REMARK    5  A    between atoms: N_4  and  C_6
REMARK    6  A    between atoms: N_4  and  C_12
REMARK    7  A    between atoms: C_7  and  C_11
REMARK    8  A    between atoms: C_12  and  C_15
REMARK                            x       y       z     vdW  Elec       q    Type
REMARK                         _______ _______ _______ _____ _____    ______ ____
ROOT
ATOM      6  C   UNL     1       0.974   1.106  24.038  0.00  0.00    +0.092 C 
ATOM      7  C   UNL     1       0.960  -0.346  24.568  0.00  0.00    +0.041 C 
ATOM      8  C   UNL     1       2.345   1.219  23.372  0.00  0.00    +0.160 C 
ATOM      9  C   UNL     1       1.937  -1.132  23.651  0.00  0.00    +0.043 C 
ATOM     10  C   UNL     1       2.472  -0.115  22.642  0.00  0.00    +0.145 C 
ENDROOT
BRANCH   7  11
ATOM     11  C   UNL     1      -0.431  -0.939  24.644  0.00  0.00    -0.042 A 
ATOM     13  C   UNL     1      -0.889  -1.774  23.625  0.00  0.00    +0.007 A 
ATOM     14  C   UNL     1      -1.254  -0.651  25.733  0.00  0.00    +0.007 A 
ATOM     16  C   UNL     1      -2.170  -2.321  23.695  0.00  0.00    +0.046 A 
ATOM     17  C   UNL     1      -2.536  -1.197  25.802  0.00  0.00    +0.046 A 
ATOM     18  C   UNL     1      -2.994  -2.033  24.783  0.00  0.00    +0.120 A 
BRANCH  18   3
ATOM      3  O   UNL     1      -4.244  -2.565  24.850  0.00  0.00    -0.495 OA
ATOM     25  C   UNL     1      -4.907  -2.822  23.613  0.00  0.00    +0.277 C 
ENDBRANCH  18   3
ENDBRANCH   7  11
BRANCH   8   1
ATOM      1  O   UNL     1       2.404   2.318  22.484  0.00  0.00    -0.388 OA
ATOM     29  H   UNL     1       2.342   1.966  21.579  0.00  0.00    +0.210 HD
ENDBRANCH   8   1
BRANCH  10   2
ATOM      2  O   UNL     1       1.650  -0.121  21.479  0.00  0.00    -0.389 OA
ATOM     30  H   UNL     1       0.886  -0.691  21.665  0.00  0.00    +0.210 HD
ENDBRANCH  10   2
BRANCH   6   4
ATOM      4  N   UNL     1       0.812   2.083  25.110  0.00  0.00    -0.306 NA
ATOM     28  H   UNL     1       0.256   1.667  25.858  0.00  0.00    +0.123 HD
BRANCH   4  12
ATOM     12  C   UNL     1       0.129   3.274  24.626  0.00  0.00    +0.118 C 
BRANCH  12  15
ATOM      5  N   UNL     1      -3.209   4.272  26.103  0.00  0.00    -0.255 NA
ATOM     15  C   UNL     1      -1.338   3.255  24.966  0.00  0.00    -0.015 A 
ATOM     19  C   UNL     1      -2.173   2.255  24.491  0.00  0.00    +0.016 A 
ATOM     20  C   UNL     1      -1.901   4.232  25.762  0.00  0.00    +0.116 A 
ATOM     21  C   UNL     1      -3.536   2.259  24.821  0.00  0.00    +0.001 A 
ATOM     22  C   UNL     1      -4.017   3.300  25.641  0.00  0.00    +0.071 A 
ATOM     23  C   UNL     1      -4.408   1.260  24.355  0.00  0.00    +0.010 A 
ATOM     24  C   UNL     1      -5.371   3.303  25.969  0.00  0.00    +0.028 A 
ATOM     26  C   UNL     1      -5.757   1.288  24.699  0.00  0.00    +0.001 A 
ATOM     27  C   UNL     1      -6.239   2.310  25.507  0.00  0.00    +0.002 A 
ENDBRANCH  12  15
ENDBRANCH   4  12
ENDBRANCH   6   4
TORSDOF 7
ENDMDL
MODEL 9
REMARK VINA RESULT:       0.1      1.881      4.199
REMARK  Name = 75536101
REMARK  8 active torsions:
REMARK  status: ('A' for Active; 'I' for Inactive)
REMARK    1  A    between atoms: O_1  and  C_8
REMARK    2  A    between atoms: O_2  and  C_10
REMARK    3  A    between atoms: O_3  and  C_18
REMARK    4  A    between atoms: O_3  and  C_25
REMARK    5  A    between atoms: N_4  and  C_6
REMARK    6  A    between atoms: N_4  and  C_12
REMARK    7  A    between atoms: C_7  and  C_11
REMARK    8  A    between atoms: C_12  and  C_15
REMARK                            x       y       z     vdW  Elec       q    Type
REMARK                         _______ _______ _______ _____ _____    ______ ____
ROOT
ATOM      6  C   UNL     1      -4.058   3.268  25.336  0.00  0.00    +0.092 C 
ATOM      7  C   UNL     1      -2.551   3.533  25.560  0.00  0.00    +0.041 C 
ATOM      8  C   UNL     1      -4.684   4.650  25.517  0.00  0.00    +0.160 C 
ATOM      9  C   UNL     1      -2.334   5.025  25.191  0.00  0.00    +0.043 C 
ATOM     10  C   UNL     1      -3.707   5.559  24.776  0.00  0.00    +0.145 C 
ENDROOT
BRANCH   7  11
ATOM     11  C   UNL     1      -1.659   2.571  24.804  0.00  0.00    -0.042 A 
ATOM     13  C   UNL     1      -0.421   2.206  25.334  0.00  0.00    +0.007 A 
ATOM     14  C   UNL     1      -2.074   2.050  23.579  0.00  0.00    +0.007 A 
ATOM     16  C   UNL     1       0.402   1.321  24.639  0.00  0.00    +0.046 A 
ATOM     17  C   UNL     1      -1.250   1.164  22.883  0.00  0.00    +0.046 A 
ATOM     18  C   UNL     1      -0.012   0.799  23.413  0.00  0.00    +0.120 A 
BRANCH  18   3
ATOM      3  O   UNL     1       0.790  -0.064  22.734  0.00  0.00    -0.495 OA
ATOM     25  C   UNL     1       2.192   0.204  22.751  0.00  0.00    +0.277 C 
ENDBRANCH  18   3
ENDBRANCH   7  11
BRANCH   8   1
ATOM      1  O   UNL     1      -5.986   4.709  24.965  0.00  0.00    -0.388 OA
ATOM     29  H   UNL     1      -6.195   3.826  24.615  0.00  0.00    +0.210 HD
ENDBRANCH   8   1
BRANCH  10   2
ATOM      2  O   UNL     1      -3.868   5.413  23.369  0.00  0.00    -0.389 OA
ATOM     30  H   UNL     1      -4.327   4.570  23.213  0.00  0.00    +0.210 HD
ENDBRANCH  10   2
BRANCH   6   4
ATOM      4  N   UNL     1      -4.593   2.303  26.292  0.00  0.00    -0.306 NA
ATOM     28  H   UNL     1      -3.821   1.891  26.816  0.00  0.00    +0.123 HD
BRANCH   4  12
ATOM     12  C   UNL     1      -5.313   1.240  25.606  0.00  0.00    +0.118 C 
BRANCH  12  15
ATOM      5  N   UNL     1      -3.962  -1.761  23.739  0.00  0.00    -0.255 NA
ATOM     15  C   UNL     1      -4.395   0.123  25.184  0.00  0.00    -0.015 A 
ATOM     19  C   UNL     1      -3.171  -0.076  25.807  0.00  0.00    +0.016 A 
ATOM     20  C   UNL     1      -4.740  -0.740  24.165  0.00  0.00    +0.116 A 
ATOM     21  C   UNL     1      -2.334  -1.122  25.396  0.00  0.00    +0.001 A 
ATOM     22  C   UNL     1      -2.774  -1.952  24.345  0.00  0.00    +0.071 A 
ATOM     23  C   UNL     1      -1.088  -1.350  26.005  0.00  0.00    +0.010 A 
ATOM     24  C   UNL     1      -1.943  -2.992  23.937  0.00  0.00    +0.028 A 
ATOM     26  C   UNL     1      -0.276  -2.397  25.578  0.00  0.00    +0.001 A 
ATOM     27  C   UNL     1      -0.704  -3.219  24.543  0.00  0.00    +0.002 A 
ENDBRANCH  12  15
ENDBRANCH   4  12
ENDBRANCH   6   4
TORSDOF 7
ENDMDL
MODEL 10
REMARK VINA RESULT:       0.5      2.311      4.795
REMARK  Name = 75536101
REMARK  8 active torsions:
REMARK  status: ('A' for Active; 'I' for Inactive)
REMARK    1  A    between atoms: O_1  and  C_8
REMARK    2  A    between atoms: O_2  and  C_10
REMARK    3  A    between atoms: O_3  and  C_18
REMARK    4  A    between atoms: O_3  and  C_25
REMARK    5  A    between atoms: N_4  and  C_6
REMARK    6  A    between atoms: N_4  and  C_12
REMARK    7  A    between atoms: C_7  and  C_11
REMARK    8  A    between atoms: C_12  and  C_15
REMARK                            x       y       z     vdW  Elec       q    Type
REMARK                         _______ _______ _______ _____ _____    ______ ____
ROOT
ATOM      6  C   UNL     1      -2.676   3.504  23.868  0.00  0.00    +0.092 C 
ATOM      7  C   UNL     1      -1.946   2.597  24.885  0.00  0.00    +0.041 C 
ATOM      8  C   UNL     1      -3.216   4.637  24.738  0.00  0.00    +0.160 C 
ATOM      9  C   UNL     1      -1.539   3.533  26.057  0.00  0.00    +0.043 C 
ATOM     10  C   UNL     1      -2.047   4.925  25.676  0.00  0.00    +0.145 C 
ENDROOT
BRANCH   7  11
ATOM     11  C   UNL     1      -0.791   1.829  24.277  0.00  0.00    -0.042 A 
ATOM     13  C   UNL     1      -0.969   0.503  23.881  0.00  0.00    +0.007 A 
ATOM     14  C   UNL     1       0.448   2.446  24.112  0.00  0.00    +0.007 A 
ATOM     16  C   UNL     1       0.093  -0.206  23.320  0.00  0.00    +0.046 A 
ATOM     17  C   UNL     1       1.511   1.736  23.552  0.00  0.00    +0.046 A 
ATOM     18  C   UNL     1       1.334   0.410  23.156  0.00  0.00    +0.120 A 
BRANCH  18   3
ATOM      3  O   UNL     1       2.370  -0.281  22.610  0.00  0.00    -0.495 OA
ATOM     25  C   UNL     1       3.613   0.408  22.479  0.00  0.00    +0.277 C 
ENDBRANCH  18   3
ENDBRANCH   7  11
BRANCH   8   1
ATOM      1  O   UNL     1      -3.565   5.769  23.964  0.00  0.00    -0.388 OA
ATOM     29  H   UNL     1      -4.537   5.807  23.926  0.00  0.00    +0.210 HD
ENDBRANCH   8   1
BRANCH  10   2
ATOM      2  O   UNL     1      -1.022   5.632  24.985  0.00  0.00    -0.389 OA
ATOM     30  H   UNL     1      -0.276   5.737  25.598  0.00  0.00    +0.210 HD
ENDBRANCH  10   2
BRANCH   6   4
ATOM      4  N   UNL     1      -3.748   2.797  23.175  0.00  0.00    -0.306 NA
ATOM     28  H   UNL     1      -4.233   3.451  22.560  0.00  0.00    +0.123 HD
BRANCH   4  12
ATOM     12  C   UNL     1      -4.706   2.249  24.124  0.00  0.00    +0.118 C 
BRANCH  12  15
ATOM      5  N   UNL     1      -3.515  -0.609  26.300  0.00  0.00    -0.255 NA
ATOM     15  C   UNL     1      -4.326   0.860  24.564  0.00  0.00    -0.015 A 
ATOM     19  C   UNL     1      -4.419  -0.220  23.698  0.00  0.00    +0.016 A 
ATOM     20  C   UNL     1      -3.871   0.614  25.844  0.00  0.00    +0.116 A 
ATOM     21  C   UNL     1      -4.059  -1.504  24.131  0.00  0.00    +0.001 A 
ATOM     22  C   UNL     1      -3.606  -1.655  25.457  0.00  0.00    +0.071 A 
ATOM     23  C   UNL     1      -4.143  -2.618  23.278  0.00  0.00    +0.010 A 
ATOM     24  C   UNL     1      -3.248  -2.930  25.887  0.00  0.00    +0.028 A 
ATOM     26  C   UNL     1      -3.778  -3.882  23.734  0.00  0.00    +0.001 A 
ATOM     27  C   UNL     1      -3.331  -4.038  25.040  0.00  0.00    +0.002 A 
ENDBRANCH  12  15
ENDBRANCH   4  12
ENDBRANCH   6   4
TORSDOF 7
ENDMDL
