MODEL 1
REMARK VINA RESULT:       1.1      0.000      0.000
REMARK  Name = 40780112
REMARK  9 active torsions:
REMARK  status: ('A' for Active; 'I' for Inactive)
REMARK    1  A    between atoms: O_1  and  C_16
REMARK    2  A    between atoms: O_1  and  C_21
REMARK    3  A    between atoms: O_3  and  C_22
REMARK    4  A    between atoms: O_3  and  C_30
REMARK    5  A    between atoms: N_5  and  C_19
REMARK    6  A    between atoms: N_7  and  C_26
REMARK    7  A    between atoms: C_9  and  C_15
REMARK    8  A    between atoms: C_10  and  C_16
REMARK    9  A    between atoms: C_18  and  C_20
REMARK                            x       y       z     vdW  Elec       q    Type
REMARK                         _______ _______ _______ _____ _____    ______ ____
ROOT
ATOM      4  N   UNL     1      -2.904  -2.690  23.701  0.00  0.00    -0.296 NA
ATOM      8  C   UNL     1      -3.049  -1.582  26.054  0.00  0.00    +0.002 C 
ATOM      9  C   UNL     1      -3.880  -0.773  25.020  0.00  0.00    +0.055 C 
ATOM     10  C   UNL     1      -1.541  -2.525  24.270  0.00  0.00    +0.095 C 
ATOM     11  C   UNL     1      -1.589  -1.686  25.566  0.00  0.00    +0.026 C 
ATOM     12  C   UNL     1      -3.627  -3.013  26.066  0.00  0.00    +0.019 C 
ATOM     13  C   UNL     1      -3.583  -1.372  23.615  0.00  0.00    +0.094 C 
ATOM     14  C   UNL     1      -3.681  -3.550  24.625  0.00  0.00    +0.085 C 
ENDROOT
BRANCH   9  15
ATOM      5  N   UNL     1      -4.841   1.571  25.183  0.00  0.00    -0.270 N 
ATOM      6  N   UNL     1      -4.528   2.878  25.169  0.00  0.00    -0.171 NA
ATOM     15  C   UNL     1      -3.765   0.745  25.036  0.00  0.00    +0.044 A 
ATOM     17  C   UNL     1      -2.673   1.569  24.917  0.00  0.00    +0.053 A 
ATOM     18  C   UNL     1      -3.202   2.870  25.008  0.00  0.00    +0.096 A 
ATOM     19  C   UNL     1      -6.221   1.177  25.341  0.00  0.00    +0.172 C 
BRANCH  18  20
ATOM     20  C   UNL     1      -2.466   4.106  24.939  0.00  0.00    +0.044 A 
ATOM     22  C   UNL     1      -1.078   4.122  25.074  0.00  0.00    +0.129 A 
ATOM     23  C   UNL     1      -3.161   5.299  24.735  0.00  0.00    +0.014 A 
ATOM     24  C   UNL     1      -0.385   5.330  25.005  0.00  0.00    +0.046 A 
ATOM     25  C   UNL     1      -2.467   6.507  24.666  0.00  0.00    +0.001 A 
ATOM     27  C   UNL     1      -1.079   6.523  24.801  0.00  0.00    +0.004 A 
BRANCH  22   3
ATOM      3  O   UNL     1      -0.373   2.972  25.273  0.00  0.00    -0.494 OA
ATOM     30  C   UNL     1       0.107   2.728  26.593  0.00  0.00    +0.277 C 
ENDBRANCH  22   3
ENDBRANCH  18  20
ENDBRANCH   9  15
BRANCH  10  16
ATOM     16  C   UNL     1      -0.552  -1.948  23.255  0.00  0.00    +0.252 C 
BRANCH  16   1
ATOM      1  O   UNL     1      -0.628  -0.537  23.310  0.00  0.00    -0.449 OA
BRANCH   1  21
ATOM      2  O   UNL     1       0.627   1.353  23.605  0.00  0.00    -0.226 OA
ATOM      7  N   UNL     1       1.614  -0.745  23.275  0.00  0.00    -0.251 N 
ATOM     21  C   UNL     1       0.565   0.143  23.416  0.00  0.00    +0.405 C 
ATOM     34  H   UNL     1       1.362  -1.718  23.124  0.00  0.00    +0.158 HD
BRANCH   7  26
ATOM     26  C   UNL     1       3.000  -0.469  23.316  0.00  0.00    +0.036 A 
ATOM     28  C   UNL     1       3.486   0.735  22.807  0.00  0.00    +0.023 A 
ATOM     29  C   UNL     1       3.880  -1.401  23.865  0.00  0.00    +0.023 A 
ATOM     31  C   UNL     1       4.854   1.007  22.848  0.00  0.00    +0.002 A 
ATOM     32  C   UNL     1       5.248  -1.129  23.905  0.00  0.00    +0.002 A 
ATOM     33  C   UNL     1       5.735   0.075  23.397  0.00  0.00    +0.000 A 
ENDBRANCH   7  26
ENDBRANCH   1  21
ENDBRANCH  16   1
ENDBRANCH  10  16
TORSDOF 7
ENDMDL
MODEL 2
REMARK VINA RESULT:       2.3      1.438      5.491
REMARK  Name = 40780112
REMARK  9 active torsions:
REMARK  status: ('A' for Active; 'I' for Inactive)
REMARK    1  A    between atoms: O_1  and  C_16
REMARK    2  A    between atoms: O_1  and  C_21
REMARK    3  A    between atoms: O_3  and  C_22
REMARK    4  A    between atoms: O_3  and  C_30
REMARK    5  A    between atoms: N_5  and  C_19
REMARK    6  A    between atoms: N_7  and  C_26
REMARK    7  A    between atoms: C_9  and  C_15
REMARK    8  A    between atoms: C_10  and  C_16
REMARK    9  A    between atoms: C_18  and  C_20
REMARK                            x       y       z     vdW  Elec       q    Type
REMARK                         _______ _______ _______ _____ _____    ______ ____
ROOT
ATOM      4  N   UNL     1      -0.933   4.596  25.407  0.00  0.00    -0.296 NA
ATOM      8  C   UNL     1      -2.938   4.292  23.772  0.00  0.00    +0.002 C 
ATOM      9  C   UNL     1      -3.189   3.511  25.091  0.00  0.00    +0.055 C 
ATOM     10  C   UNL     1      -0.437   4.199  24.063  0.00  0.00    +0.095 C 
ATOM     11  C   UNL     1      -1.614   3.813  23.140  0.00  0.00    +0.026 C 
ATOM     12  C   UNL     1      -2.745   5.773  24.161  0.00  0.00    +0.019 C 
ATOM     13  C   UNL     1      -1.877   3.572  25.924  0.00  0.00    +0.094 C 
ATOM     14  C   UNL     1      -1.672   5.872  25.259  0.00  0.00    +0.085 C 
ENDROOT
BRANCH   9  15
ATOM      5  N   UNL     1      -5.029   1.778  25.326  0.00  0.00    -0.270 N 
ATOM      6  N   UNL     1      -5.323   0.476  25.171  0.00  0.00    -0.171 NA
ATOM     15  C   UNL     1      -3.745   2.096  24.994  0.00  0.00    +0.044 A 
ATOM     17  C   UNL     1      -3.157   0.921  24.596  0.00  0.00    +0.053 A 
ATOM     18  C   UNL     1      -4.175  -0.042  24.724  0.00  0.00    +0.096 A 
ATOM     19  C   UNL     1      -6.049   2.679  25.809  0.00  0.00    +0.172 C 
BRANCH  18  20
ATOM     20  C   UNL     1      -4.072  -1.449  24.431  0.00  0.00    +0.044 A 
ATOM     22  C   UNL     1      -3.111  -2.242  25.057  0.00  0.00    +0.129 A 
ATOM     23  C   UNL     1      -4.951  -2.015  23.508  0.00  0.00    +0.014 A 
ATOM     24  C   UNL     1      -3.028  -3.601  24.759  0.00  0.00    +0.046 A 
ATOM     25  C   UNL     1      -4.869  -3.375  23.210  0.00  0.00    +0.001 A 
ATOM     27  C   UNL     1      -3.907  -4.169  23.835  0.00  0.00    +0.004 A 
BRANCH  22   3
ATOM      3  O   UNL     1      -2.239  -1.715  25.964  0.00  0.00    -0.494 OA
ATOM     30  C   UNL     1      -0.884  -1.567  25.546  0.00  0.00    +0.277 C 
ENDBRANCH  22   3
ENDBRANCH  18  20
ENDBRANCH   9  15
BRANCH  10  16
ATOM     16  C   UNL     1       0.617   3.091  24.135  0.00  0.00    +0.252 C 
BRANCH  16   1
ATOM      1  O   UNL     1       0.178   2.006  23.340  0.00  0.00    -0.449 OA
BRANCH   1  21
ATOM      2  O   UNL     1       0.531  -0.251  23.234  0.00  0.00    -0.226 OA
ATOM      7  N   UNL     1       2.303   1.266  23.434  0.00  0.00    -0.251 N 
ATOM     21  C   UNL     1       0.979   0.886  23.327  0.00  0.00    +0.405 C 
ATOM     34  H   UNL     1       2.479   2.265  23.501  0.00  0.00    +0.158 HD
BRANCH   7  26
ATOM     26  C   UNL     1       3.448   0.437  23.460  0.00  0.00    +0.036 A 
ATOM     28  C   UNL     1       3.312  -0.931  23.693  0.00  0.00    +0.023 A 
ATOM     29  C   UNL     1       4.712   0.988  23.253  0.00  0.00    +0.023 A 
ATOM     31  C   UNL     1       4.442  -1.749  23.718  0.00  0.00    +0.002 A 
ATOM     32  C   UNL     1       5.842   0.170  23.278  0.00  0.00    +0.002 A 
ATOM     33  C   UNL     1       5.707  -1.199  23.511  0.00  0.00    +0.000 A 
ENDBRANCH   7  26
ENDBRANCH   1  21
ENDBRANCH  16   1
ENDBRANCH  10  16
TORSDOF 7
ENDMDL
MODEL 3
REMARK VINA RESULT:       3.7      1.938      6.578
REMARK  Name = 40780112
REMARK  9 active torsions:
REMARK  status: ('A' for Active; 'I' for Inactive)
REMARK    1  A    between atoms: O_1  and  C_16
REMARK    2  A    between atoms: O_1  and  C_21
REMARK    3  A    between atoms: O_3  and  C_22
REMARK    4  A    between atoms: O_3  and  C_30
REMARK    5  A    between atoms: N_5  and  C_19
REMARK    6  A    between atoms: N_7  and  C_26
REMARK    7  A    between atoms: C_9  and  C_15
REMARK    8  A    between atoms: C_10  and  C_16
REMARK    9  A    between atoms: C_18  and  C_20
REMARK                            x       y       z     vdW  Elec       q    Type
REMARK                         _______ _______ _______ _____ _____    ______ ____
ROOT
ATOM      4  N   UNL     1      -3.891   5.027  24.837  0.00  0.00    -0.296 NA
ATOM      8  C   UNL     1      -2.908   3.546  26.742  0.00  0.00    +0.002 C 
ATOM      9  C   UNL     1      -1.770   4.092  25.835  0.00  0.00    +0.055 C 
ATOM     10  C   UNL     1      -4.616   3.730  24.898  0.00  0.00    +0.095 C 
ATOM     11  C   UNL     1      -3.917   2.761  25.877  0.00  0.00    +0.026 C 
ATOM     12  C   UNL     1      -3.654   4.774  27.307  0.00  0.00    +0.019 C 
ATOM     13  C   UNL     1      -2.442   4.789  24.617  0.00  0.00    +0.094 C 
ATOM     14  C   UNL     1      -4.056   5.701  26.146  0.00  0.00    +0.085 C 
ENDROOT
BRANCH   9  15
ATOM      5  N   UNL     1       0.117   2.461  26.306  0.00  0.00    -0.270 N 
ATOM      6  N   UNL     1       1.035   1.665  25.732  0.00  0.00    -0.171 NA
ATOM     15  C   UNL     1      -0.665   3.133  25.413  0.00  0.00    +0.044 A 
ATOM     17  C   UNL     1      -0.228   2.751  24.169  0.00  0.00    +0.053 A 
ATOM     18  C   UNL     1       0.818   1.846  24.426  0.00  0.00    +0.096 A 
ATOM     19  C   UNL     1       0.046   2.532  27.747  0.00  0.00    +0.172 C 
BRANCH  18  20
ATOM     20  C   UNL     1       1.618   1.153  23.449  0.00  0.00    +0.044 A 
ATOM     22  C   UNL     1       1.136   0.013  22.807  0.00  0.00    +0.129 A 
ATOM     23  C   UNL     1       2.891   1.638  23.148  0.00  0.00    +0.014 A 
ATOM     24  C   UNL     1       1.927  -0.643  21.864  0.00  0.00    +0.046 A 
ATOM     25  C   UNL     1       3.682   0.982  22.205  0.00  0.00    +0.001 A 
ATOM     27  C   UNL     1       3.200  -0.159  21.563  0.00  0.00    +0.004 A 
BRANCH  22   3
ATOM      3  O   UNL     1      -0.105  -0.483  23.081  0.00  0.00    -0.494 OA
ATOM     30  C   UNL     1      -0.212  -1.383  24.180  0.00  0.00    +0.277 C 
ENDBRANCH  22   3
ENDBRANCH  18  20
ENDBRANCH   9  15
BRANCH  10  16
ATOM     16  C   UNL     1      -4.806   3.103  23.515  0.00  0.00    +0.252 C 
BRANCH  16   1
ATOM      1  O   UNL     1      -3.531   2.811  22.978  0.00  0.00    -0.449 OA
BRANCH   1  21
ATOM      2  O   UNL     1      -2.327   1.028  22.201  0.00  0.00    -0.226 OA
ATOM      7  N   UNL     1      -3.803   0.827  24.007  0.00  0.00    -0.251 N 
ATOM     21  C   UNL     1      -3.141   1.490  22.993  0.00  0.00    +0.405 C 
ATOM     34  H   UNL     1      -4.446   1.385  24.564  0.00  0.00    +0.158 HD
BRANCH   7  26
ATOM     26  C   UNL     1      -3.699  -0.535  24.371  0.00  0.00    +0.036 A 
ATOM     28  C   UNL     1      -4.026  -1.529  23.449  0.00  0.00    +0.023 A 
ATOM     29  C   UNL     1      -3.269  -0.884  25.651  0.00  0.00    +0.023 A 
ATOM     31  C   UNL     1      -3.922  -2.873  23.808  0.00  0.00    +0.002 A 
ATOM     32  C   UNL     1      -3.166  -2.228  26.010  0.00  0.00    +0.002 A 
ATOM     33  C   UNL     1      -3.493  -3.224  25.088  0.00  0.00    +0.000 A 
ENDBRANCH   7  26
ENDBRANCH   1  21
ENDBRANCH  16   1
ENDBRANCH  10  16
TORSDOF 7
ENDMDL
MODEL 4
REMARK VINA RESULT:       4.2      2.038      7.023
REMARK  Name = 40780112
REMARK  9 active torsions:
REMARK  status: ('A' for Active; 'I' for Inactive)
REMARK    1  A    between atoms: O_1  and  C_16
REMARK    2  A    between atoms: O_1  and  C_21
REMARK    3  A    between atoms: O_3  and  C_22
REMARK    4  A    between atoms: O_3  and  C_30
REMARK    5  A    between atoms: N_5  and  C_19
REMARK    6  A    between atoms: N_7  and  C_26
REMARK    7  A    between atoms: C_9  and  C_15
REMARK    8  A    between atoms: C_10  and  C_16
REMARK    9  A    between atoms: C_18  and  C_20
REMARK                            x       y       z     vdW  Elec       q    Type
REMARK                         _______ _______ _______ _____ _____    ______ ____
ROOT
ATOM      4  N   UNL     1      -3.850   4.634  24.736  0.00  0.00    -0.296 NA
ATOM      8  C   UNL     1      -1.285   4.833  25.145  0.00  0.00    +0.002 C 
ATOM      9  C   UNL     1      -1.568   4.036  23.841  0.00  0.00    +0.055 C 
ATOM     10  C   UNL     1      -3.525   4.231  26.129  0.00  0.00    +0.095 C 
ATOM     11  C   UNL     1      -1.996   4.142  26.328  0.00  0.00    +0.026 C 
ATOM     12  C   UNL     1      -1.939   6.219  24.970  0.00  0.00    +0.019 C 
ATOM     13  C   UNL     1      -3.102   3.786  23.773  0.00  0.00    +0.094 C 
ATOM     14  C   UNL     1      -3.410   6.038  24.555  0.00  0.00    +0.085 C 
ENDROOT
BRANCH   9  15
ATOM      5  N   UNL     1      -1.292   1.663  22.984  0.00  0.00    -0.270 N 
ATOM      6  N   UNL     1      -0.420   0.649  22.851  0.00  0.00    -0.171 NA
ATOM     15  C   UNL     1      -0.765   2.768  23.585  0.00  0.00    +0.044 A 
ATOM     17  C   UNL     1       0.543   2.456  23.864  0.00  0.00    +0.053 A 
ATOM     18  C   UNL     1       0.699   1.140  23.390  0.00  0.00    +0.096 A 
ATOM     19  C   UNL     1      -2.645   1.498  22.505  0.00  0.00    +0.172 C 
BRANCH  18  20
ATOM     20  C   UNL     1       1.897   0.341  23.445  0.00  0.00    +0.044 A 
ATOM     22  C   UNL     1       1.845  -1.002  23.815  0.00  0.00    +0.129 A 
ATOM     23  C   UNL     1       3.119   0.930  23.121  0.00  0.00    +0.014 A 
ATOM     24  C   UNL     1       3.016  -1.757  23.862  0.00  0.00    +0.046 A 
ATOM     25  C   UNL     1       4.291   0.174  23.168  0.00  0.00    +0.001 A 
ATOM     27  C   UNL     1       4.239  -1.170  23.538  0.00  0.00    +0.004 A 
BRANCH  22   3
ATOM      3  O   UNL     1       0.664  -1.603  24.136  0.00  0.00    -0.494 OA
ATOM     30  C   UNL     1       0.595  -2.258  25.399  0.00  0.00    +0.277 C 
ENDBRANCH  22   3
ENDBRANCH  18  20
ENDBRANCH   9  15
BRANCH  10  16
ATOM     16  C   UNL     1      -4.229   2.935  26.539  0.00  0.00    +0.252 C 
BRANCH  16   1
ATOM      1  O   UNL     1      -5.315   2.719  25.659  0.00  0.00    -0.449 OA
BRANCH   1  21
ATOM      2  O   UNL     1      -6.460   1.077  24.553  0.00  0.00    -0.226 OA
ATOM      7  N   UNL     1      -4.316   0.715  25.423  0.00  0.00    -0.251 N 
ATOM     21  C   UNL     1      -5.455   1.447  25.149  0.00  0.00    +0.405 C 
ATOM     34  H   UNL     1      -3.582   1.200  25.932  0.00  0.00    +0.158 HD
BRANCH   7  26
ATOM     26  C   UNL     1      -4.042  -0.629  25.080  0.00  0.00    +0.036 A 
ATOM     28  C   UNL     1      -4.490  -1.143  23.864  0.00  0.00    +0.023 A 
ATOM     29  C   UNL     1      -3.324  -1.439  25.959  0.00  0.00    +0.023 A 
ATOM     31  C   UNL     1      -4.219  -2.469  23.526  0.00  0.00    +0.002 A 
ATOM     32  C   UNL     1      -3.053  -2.766  25.621  0.00  0.00    +0.002 A 
ATOM     33  C   UNL     1      -3.501  -3.281  24.404  0.00  0.00    +0.000 A 
ENDBRANCH   7  26
ENDBRANCH   1  21
ENDBRANCH  16   1
ENDBRANCH  10  16
TORSDOF 7
ENDMDL
MODEL 5
REMARK VINA RESULT:       4.8      1.521      5.487
REMARK  Name = 40780112
REMARK  9 active torsions:
REMARK  status: ('A' for Active; 'I' for Inactive)
REMARK    1  A    between atoms: O_1  and  C_16
REMARK    2  A    between atoms: O_1  and  C_21
REMARK    3  A    between atoms: O_3  and  C_22
REMARK    4  A    between atoms: O_3  and  C_30
REMARK    5  A    between atoms: N_5  and  C_19
REMARK    6  A    between atoms: N_7  and  C_26
REMARK    7  A    between atoms: C_9  and  C_15
REMARK    8  A    between atoms: C_10  and  C_16
REMARK    9  A    between atoms: C_18  and  C_20
REMARK                            x       y       z     vdW  Elec       q    Type
REMARK                         _______ _______ _______ _____ _____    ______ ____
ROOT
ATOM      4  N   UNL     1      -2.085   4.774  25.950  0.00  0.00    -0.296 NA
ATOM      8  C   UNL     1      -4.264   4.235  24.627  0.00  0.00    +0.002 C 
ATOM      9  C   UNL     1      -3.959   3.110  25.655  0.00  0.00    +0.055 C 
ATOM     10  C   UNL     1      -1.842   4.917  24.490  0.00  0.00    +0.095 C 
ATOM     11  C   UNL     1      -3.055   4.404  23.683  0.00  0.00    +0.026 C 
ATOM     12  C   UNL     1      -4.399   5.546  25.430  0.00  0.00    +0.019 C 
ATOM     13  C   UNL     1      -2.553   3.397  26.254  0.00  0.00    +0.094 C 
ATOM     14  C   UNL     1      -3.160   5.721  26.327  0.00  0.00    +0.085 C 
ENDROOT
BRANCH   9  15
ATOM      5  N   UNL     1      -5.318   1.071  24.995  0.00  0.00    -0.270 N 
ATOM      6  N   UNL     1      -5.234  -0.211  24.600  0.00  0.00    -0.171 NA
ATOM     15  C   UNL     1      -4.108   1.663  25.203  0.00  0.00    +0.044 A 
ATOM     17  C   UNL     1      -3.167   0.704  24.925  0.00  0.00    +0.053 A 
ATOM     18  C   UNL     1      -3.917  -0.429  24.558  0.00  0.00    +0.096 A 
ATOM     19  C   UNL     1      -6.620   1.675  25.159  0.00  0.00    +0.172 C 
BRANCH  18  20
ATOM     20  C   UNL     1      -3.401  -1.717  24.171  0.00  0.00    +0.044 A 
ATOM     22  C   UNL     1      -2.030  -1.970  24.179  0.00  0.00    +0.129 A 
ATOM     23  C   UNL     1      -4.293  -2.717  23.785  0.00  0.00    +0.014 A 
ATOM     24  C   UNL     1      -1.551  -3.224  23.801  0.00  0.00    +0.046 A 
ATOM     25  C   UNL     1      -3.814  -3.971  23.407  0.00  0.00    +0.001 A 
ATOM     27  C   UNL     1      -2.443  -4.225  23.415  0.00  0.00    +0.004 A 
BRANCH  22   3
ATOM      3  O   UNL     1      -1.134  -1.012  24.552  0.00  0.00    -0.494 OA
ATOM     30  C   UNL     1      -0.537  -1.152  25.838  0.00  0.00    +0.277 C 
ENDBRANCH  22   3
ENDBRANCH  18  20
ENDBRANCH   9  15
BRANCH  10  16
ATOM     16  C   UNL     1      -0.539   4.248  24.048  0.00  0.00    +0.252 C 
BRANCH  16   1
ATOM      1  O   UNL     1      -0.734   2.847  24.050  0.00  0.00    -0.449 OA
BRANCH   1  21
ATOM      2  O   UNL     1       0.562   1.786  25.609  0.00  0.00    -0.226 OA
ATOM      7  N   UNL     1       1.068   1.709  23.324  0.00  0.00    -0.251 N 
ATOM     21  C   UNL     1       0.338   2.074  24.438  0.00  0.00    +0.405 C 
ATOM     34  H   UNL     1       0.722   2.047  22.430  0.00  0.00    +0.158 HD
BRANCH   7  26
ATOM     26  C   UNL     1       2.240   0.920  23.271  0.00  0.00    +0.036 A 
ATOM     28  C   UNL     1       3.476   1.523  23.039  0.00  0.00    +0.023 A 
ATOM     29  C   UNL     1       2.160  -0.461  23.450  0.00  0.00    +0.023 A 
ATOM     31  C   UNL     1       4.632   0.744  22.986  0.00  0.00    +0.002 A 
ATOM     32  C   UNL     1       3.316  -1.240  23.397  0.00  0.00    +0.002 A 
ATOM     33  C   UNL     1       4.553  -0.637  23.165  0.00  0.00    +0.000 A 
ENDBRANCH   7  26
ENDBRANCH   1  21
ENDBRANCH  16   1
ENDBRANCH  10  16
TORSDOF 7
ENDMDL
