MODEL 1
REMARK VINA RESULT:       8.9      0.000      0.000
REMARK  Name = 11941367
REMARK  4 active torsions:
REMARK  status: ('A' for Active; 'I' for Inactive)
REMARK    1  A    between atoms: N_4  and  C_13
REMARK    2  A    between atoms: N_6  and  C_26
REMARK    3  A    between atoms: C_21  and  C_23
REMARK    4  A    between atoms: C_24  and  C_26
REMARK                            x       y       z     vdW  Elec       q    Type
REMARK                         _______ _______ _______ _____ _____    ______ ____
ROOT
ATOM      2  O   UNL     1      -0.130  -1.299  22.132  0.00  0.00    -0.267 OA
ATOM      4  N   UNL     1      -4.285  -0.049  24.646  0.00  0.00    -0.298 NA
ATOM      5  N   UNL     1      -1.585  -1.589  23.931  0.00  0.00    -0.311 N 
ATOM      7  C   UNL     1      -4.021  -2.329  23.637  0.00  0.00    +0.024 C 
ATOM      8  C   UNL     1      -3.146  -1.897  25.882  0.00  0.00    +0.050 C 
ATOM      9  C   UNL     1      -3.847  -2.943  25.019  0.00  0.00    +0.017 C 
ATOM     10  C   UNL     1      -4.866  -1.040  23.732  0.00  0.00    +0.090 C 
ATOM     11  C   UNL     1      -4.024  -0.628  25.972  0.00  0.00    +0.094 C 
ATOM     12  C   UNL     1      -2.634  -2.081  23.028  0.00  0.00    +0.130 C 
ATOM     14  C   UNL     1      -1.780  -1.557  25.314  0.00  0.00    +0.026 A 
ATOM     17  C   UNL     1      -0.771  -1.212  26.129  0.00  0.00    +0.022 A 
ATOM     18  C   UNL     1      -0.349  -1.252  23.343  0.00  0.00    +0.259 A 
ATOM     21  C   UNL     1       0.752  -0.835  24.280  0.00  0.00    +0.047 A 
ATOM     22  C   UNL     1       0.510  -0.840  25.600  0.00  0.00    +0.015 A 
ENDROOT
BRANCH   4  13
ATOM      1  O   UNL     1      -5.689   3.677  25.979  0.00  0.00    -0.380 OA
ATOM     13  C   UNL     1      -5.139   1.132  24.750  0.00  0.00    +0.061 C 
ATOM     15  C   UNL     1      -5.711   1.253  26.165  0.00  0.00    +0.047 C 
ATOM     16  C   UNL     1      -4.367   2.405  24.386  0.00  0.00    +0.047 C 
ATOM     19  C   UNL     1      -6.501   2.550  26.308  0.00  0.00    +0.161 C 
ATOM     20  C   UNL     1      -5.231   3.636  24.627  0.00  0.00    +0.161 C 
ENDBRANCH   4  13
BRANCH  21  23
ATOM     23  C   UNL     1       2.071  -0.419  23.770  0.00  0.00    -0.008 A 
ATOM     24  C   UNL     1       2.278   0.856  23.240  0.00  0.00    -0.025 A 
ATOM     25  C   UNL     1       3.131  -1.327  23.825  0.00  0.00    +0.009 A 
ATOM     27  C   UNL     1       3.538   1.221  22.765  0.00  0.00    +0.005 A 
ATOM     30  C   UNL     1       4.391  -0.963  23.351  0.00  0.00    +0.001 A 
ATOM     31  C   UNL     1       4.594   0.311  22.821  0.00  0.00    +0.000 A 
BRANCH  24  26
ATOM     26  C   UNL     1       1.169   1.856  23.165  0.00  0.00    +0.120 C 
BRANCH  26   6
ATOM      3  O   UNL     1      -1.233   3.096  26.376  0.00  0.00    -0.377 OA
ATOM      6  N   UNL     1       0.368   1.837  24.387  0.00  0.00    -0.294 NA
ATOM     28  C   UNL     1      -1.015   2.252  24.111  0.00  0.00    +0.113 C 
ATOM     29  C   UNL     1       0.959   2.707  25.413  0.00  0.00    +0.113 C 
ATOM     32  C   UNL     1      -1.828   2.236  25.403  0.00  0.00    +0.175 C 
ATOM     33  C   UNL     1       0.100   2.679  26.673  0.00  0.00    +0.175 C 
ENDBRANCH  26   6
ENDBRANCH  24  26
ENDBRANCH  21  23
TORSDOF 4
ENDMDL
MODEL 2
REMARK VINA RESULT:       9.8      1.872      6.714
REMARK  Name = 11941367
REMARK  4 active torsions:
REMARK  status: ('A' for Active; 'I' for Inactive)
REMARK    1  A    between atoms: N_4  and  C_13
REMARK    2  A    between atoms: N_6  and  C_26
REMARK    3  A    between atoms: C_21  and  C_23
REMARK    4  A    between atoms: C_24  and  C_26
REMARK                            x       y       z     vdW  Elec       q    Type
REMARK                         _______ _______ _______ _____ _____    ______ ____
ROOT
ATOM      2  O   UNL     1      -3.205   0.513  26.434  0.00  0.00    -0.267 OA
ATOM      4  N   UNL     1       1.002  -0.644  23.963  0.00  0.00    -0.298 NA
ATOM      5  N   UNL     1      -2.113  -0.473  24.625  0.00  0.00    -0.311 N 
ATOM      7  C   UNL     1      -0.486  -2.435  24.892  0.00  0.00    +0.024 C 
ATOM      8  C   UNL     1      -0.940  -1.528  22.664  0.00  0.00    +0.050 C 
ATOM      9  C   UNL     1      -0.942  -2.812  23.490  0.00  0.00    +0.017 C 
ATOM     10  C   UNL     1       0.928  -1.818  24.842  0.00  0.00    +0.090 C 
ATOM     11  C   UNL     1       0.491  -0.945  22.619  0.00  0.00    +0.094 C 
ATOM     12  C   UNL     1      -1.522  -1.486  25.511  0.00  0.00    +0.130 C 
ATOM     14  C   UNL     1      -1.907  -0.513  23.245  0.00  0.00    +0.026 A 
ATOM     17  C   UNL     1      -2.547   0.353  22.443  0.00  0.00    +0.022 A 
ATOM     18  C   UNL     1      -2.973   0.469  25.225  0.00  0.00    +0.259 A 
ATOM     21  C   UNL     1      -3.649   1.448  24.305  0.00  0.00    +0.047 A 
ATOM     22  C   UNL     1      -3.424   1.351  22.985  0.00  0.00    +0.015 A 
ENDROOT
BRANCH   4  13
ATOM      1  O   UNL     1       4.886   0.030  22.517  0.00  0.00    -0.380 OA
ATOM     13  C   UNL     1       2.365  -0.122  23.900  0.00  0.00    +0.061 C 
ATOM     15  C   UNL     1       3.377  -1.270  23.911  0.00  0.00    +0.047 C 
ATOM     16  C   UNL     1       2.567   0.744  22.651  0.00  0.00    +0.047 C 
ATOM     19  C   UNL     1       4.792  -0.733  23.720  0.00  0.00    +0.161 C 
ATOM     20  C   UNL     1       4.025   1.169  22.531  0.00  0.00    +0.161 C 
ENDBRANCH   4  13
BRANCH  21  23
ATOM     23  C   UNL     1      -4.534   2.503  24.829  0.00  0.00    -0.008 A 
ATOM     24  C   UNL     1      -4.113   3.832  24.913  0.00  0.00    -0.025 A 
ATOM     25  C   UNL     1      -5.820   2.157  25.247  0.00  0.00    +0.009 A 
ATOM     27  C   UNL     1      -4.974   4.809  25.414  0.00  0.00    +0.005 A 
ATOM     30  C   UNL     1      -6.682   3.133  25.748  0.00  0.00    +0.001 A 
ATOM     31  C   UNL     1      -6.257   4.459  25.831  0.00  0.00    +0.000 A 
BRANCH  24  26
ATOM     26  C   UNL     1      -2.743   4.243  24.475  0.00  0.00    +0.120 C 
BRANCH  26   6
ATOM      3  O   UNL     1       0.831   2.588  25.927  0.00  0.00    -0.377 OA
ATOM      6  N   UNL     1      -1.743   3.276  24.923  0.00  0.00    -0.294 NA
ATOM     28  C   UNL     1      -1.376   3.516  26.326  0.00  0.00    +0.113 C 
ATOM     29  C   UNL     1      -0.545   3.333  24.073  0.00  0.00    +0.113 C 
ATOM     32  C   UNL     1      -0.322   2.503  26.766  0.00  0.00    +0.175 C 
ATOM     33  C   UNL     1       0.488   2.324  24.567  0.00  0.00    +0.175 C 
ENDBRANCH  26   6
ENDBRANCH  24  26
ENDBRANCH  21  23
TORSDOF 4
ENDMDL
MODEL 3
REMARK VINA RESULT:      12.2      1.990      4.685
REMARK  Name = 11941367
REMARK  4 active torsions:
REMARK  status: ('A' for Active; 'I' for Inactive)
REMARK    1  A    between atoms: N_4  and  C_13
REMARK    2  A    between atoms: N_6  and  C_26
REMARK    3  A    between atoms: C_21  and  C_23
REMARK    4  A    between atoms: C_24  and  C_26
REMARK                            x       y       z     vdW  Elec       q    Type
REMARK                         _______ _______ _______ _____ _____    ______ ____
ROOT
ATOM      2  O   UNL     1       0.635   2.117  25.769  0.00  0.00    -0.267 OA
ATOM      4  N   UNL     1      -4.147   3.552  25.307  0.00  0.00    -0.298 NA
ATOM      5  N   UNL     1      -1.046   3.256  24.623  0.00  0.00    -0.311 N 
ATOM      7  C   UNL     1      -2.319   5.235  25.641  0.00  0.00    +0.024 C 
ATOM      8  C   UNL     1      -2.860   4.477  23.376  0.00  0.00    +0.050 C 
ATOM      9  C   UNL     1      -2.455   5.699  24.198  0.00  0.00    +0.017 C 
ATOM     10  C   UNL     1      -3.661   4.658  26.141  0.00  0.00    +0.090 C 
ATOM     11  C   UNL     1      -4.213   3.936  23.890  0.00  0.00    +0.094 C 
ATOM     12  C   UNL     1      -1.171   4.218  25.727  0.00  0.00    +0.130 C 
ATOM     14  C   UNL     1      -1.794   3.399  23.453  0.00  0.00    +0.026 A 
ATOM     17  C   UNL     1      -1.583   2.577  22.413  0.00  0.00    +0.022 A 
ATOM     18  C   UNL     1      -0.066   2.253  24.766  0.00  0.00    +0.259 A 
ATOM     21  C   UNL     1       0.124   1.325  23.597  0.00  0.00    +0.047 A 
ATOM     22  C   UNL     1      -0.613   1.522  22.493  0.00  0.00    +0.015 A 
ENDROOT
BRANCH   4  13
ATOM      1  O   UNL     1      -7.078   0.880  26.685  0.00  0.00    -0.380 OA
ATOM     13  C   UNL     1      -5.443   3.070  25.780  0.00  0.00    +0.061 C 
ATOM     15  C   UNL     1      -5.998   2.011  24.824  0.00  0.00    +0.047 C 
ATOM     16  C   UNL     1      -5.334   2.493  27.196  0.00  0.00    +0.047 C 
ATOM     19  C   UNL     1      -7.289   1.419  25.381  0.00  0.00    +0.161 C 
ATOM     20  C   UNL     1      -6.661   1.876  27.620  0.00  0.00    +0.161 C 
ENDBRANCH   4  13
BRANCH  21  23
ATOM     23  C   UNL     1       1.090   0.213  23.654  0.00  0.00    -0.008 A 
ATOM     24  C   UNL     1       0.859  -0.912  24.449  0.00  0.00    -0.025 A 
ATOM     25  C   UNL     1       2.256   0.295  22.891  0.00  0.00    +0.009 A 
ATOM     27  C   UNL     1       1.792  -1.948  24.482  0.00  0.00    +0.005 A 
ATOM     30  C   UNL     1       3.189  -0.741  22.923  0.00  0.00    +0.001 A 
ATOM     31  C   UNL     1       2.957  -1.862  23.719  0.00  0.00    +0.000 A 
BRANCH  24  26
ATOM     26  C   UNL     1      -0.378  -1.036  25.279  0.00  0.00    +0.120 C 
BRANCH  26   6
ATOM      3  O   UNL     1      -4.278  -2.010  24.070  0.00  0.00    -0.377 OA
ATOM      6  N   UNL     1      -1.540  -1.322  24.441  0.00  0.00    -0.294 NA
ATOM     28  C   UNL     1      -2.617  -0.354  24.694  0.00  0.00    +0.113 C 
ATOM     29  C   UNL     1      -2.028  -2.689  24.673  0.00  0.00    +0.113 C 
ATOM     32  C   UNL     1      -3.823  -0.680  23.816  0.00  0.00    +0.175 C 
ATOM     33  C   UNL     1      -3.247  -2.959  23.795  0.00  0.00    +0.175 C 
ENDBRANCH  26   6
ENDBRANCH  24  26
ENDBRANCH  21  23
TORSDOF 4
ENDMDL
MODEL 4
REMARK VINA RESULT:      12.4      2.292      7.063
REMARK  Name = 11941367
REMARK  4 active torsions:
REMARK  status: ('A' for Active; 'I' for Inactive)
REMARK    1  A    between atoms: N_4  and  C_13
REMARK    2  A    between atoms: N_6  and  C_26
REMARK    3  A    between atoms: C_21  and  C_23
REMARK    4  A    between atoms: C_24  and  C_26
REMARK                            x       y       z     vdW  Elec       q    Type
REMARK                         _______ _______ _______ _____ _____    ______ ____
ROOT
ATOM      2  O   UNL     1      -1.053   2.066  26.655  0.00  0.00    -0.267 OA
ATOM      4  N   UNL     1       1.644  -0.820  23.566  0.00  0.00    -0.298 NA
ATOM      5  N   UNL     1      -0.915   0.546  24.892  0.00  0.00    -0.311 N 
ATOM      7  C   UNL     1       0.011  -1.827  25.180  0.00  0.00    +0.024 C 
ATOM      8  C   UNL     1      -0.770  -1.086  22.981  0.00  0.00    +0.050 C 
ATOM      9  C   UNL     1      -0.934  -2.175  24.039  0.00  0.00    +0.017 C 
ATOM     10  C   UNL     1       1.467  -1.775  24.667  0.00  0.00    +0.090 C 
ATOM     11  C   UNL     1       0.691  -1.072  22.476  0.00  0.00    +0.094 C 
ATOM     12  C   UNL     1      -0.440  -0.501  25.808  0.00  0.00    +0.130 C 
ATOM     14  C   UNL     1      -1.150   0.272  23.544  0.00  0.00    +0.026 A 
ATOM     17  C   UNL     1      -1.690   1.210  22.749  0.00  0.00    +0.022 A 
ATOM     18  C   UNL     1      -1.215   1.799  25.464  0.00  0.00    +0.259 A 
ATOM     21  C   UNL     1      -1.787   2.841  24.541  0.00  0.00    +0.047 A 
ATOM     22  C   UNL     1      -2.006   2.514  23.258  0.00  0.00    +0.015 A 
ENDROOT
BRANCH   4  13
ATOM      1  O   UNL     1       5.776  -0.085  23.424  0.00  0.00    -0.380 OA
ATOM     13  C   UNL     1       3.019  -0.839  23.073  0.00  0.00    +0.061 C 
ATOM     15  C   UNL     1       3.517   0.588  22.827  0.00  0.00    +0.047 C 
ATOM     16  C   UNL     1       3.949  -1.556  24.058  0.00  0.00    +0.047 C 
ATOM     19  C   UNL     1       4.990   0.575  22.431  0.00  0.00    +0.161 C 
ATOM     20  C   UNL     1       5.396  -1.451  23.593  0.00  0.00    +0.161 C 
ENDBRANCH   4  13
BRANCH  21  23
ATOM     23  C   UNL     1      -2.096   4.199  25.022  0.00  0.00    -0.008 A 
ATOM     24  C   UNL     1      -3.095   4.425  25.972  0.00  0.00    -0.025 A 
ATOM     25  C   UNL     1      -1.368   5.276  24.513  0.00  0.00    +0.009 A 
ATOM     27  C   UNL     1      -3.365   5.722  26.409  0.00  0.00    +0.005 A 
ATOM     30  C   UNL     1      -1.638   6.573  24.949  0.00  0.00    +0.001 A 
ATOM     31  C   UNL     1      -2.636   6.796  25.897  0.00  0.00    +0.000 A 
BRANCH  24  26
ATOM     26  C   UNL     1      -3.895   3.298  26.542  0.00  0.00    +0.120 C 
BRANCH  26   6
ATOM      3  O   UNL     1      -6.418   0.586  24.566  0.00  0.00    -0.377 OA
ATOM      6  N   UNL     1      -4.594   2.570  25.484  0.00  0.00    -0.294 NA
ATOM     28  C   UNL     1      -6.049   2.751  25.600  0.00  0.00    +0.113 C 
ATOM     29  C   UNL     1      -4.260   1.140  25.526  0.00  0.00    +0.113 C 
ATOM     32  C   UNL     1      -6.756   1.972  24.494  0.00  0.00    +0.175 C 
ATOM     33  C   UNL     1      -5.010   0.401  24.421  0.00  0.00    +0.175 C 
ENDBRANCH  26   6
ENDBRANCH  24  26
ENDBRANCH  21  23
TORSDOF 4
ENDMDL
