MODEL 1
REMARK VINA RESULT:       9.4      0.000      0.000
REMARK  Name = 25389790
REMARK  9 active torsions:
REMARK  status: ('A' for Active; 'I' for Inactive)
REMARK    1  A    between atoms: O_3  and  C_22
REMARK    2  A    between atoms: O_3  and  C_34
REMARK    3  A    between atoms: N_7  and  C_13
REMARK    4  A    between atoms: N_7  and  C_23
REMARK    5  A    between atoms: N_9  and  C_28
REMARK    6  A    between atoms: C_11  and  C_19
REMARK    7  A    between atoms: C_15  and  C_22
REMARK    8  A    between atoms: C_23  and  C_28
REMARK    9  A    between atoms: C_35  and  C_36
REMARK                            x       y       z     vdW  Elec       q    Type
REMARK                         _______ _______ _______ _____ _____    ______ ____
ROOT
ATOM      6  N   UNL     1      -1.779   0.965  25.609  0.00  0.00    -0.274 NA
ATOM      8  N   UNL     1      -1.070   4.573  24.708  0.00  0.00    -0.356 N 
ATOM     10  C   UNL     1      -0.967   2.228  25.762  0.00  0.00    +0.106 C 
ATOM     11  C   UNL     1      -1.601   0.344  24.260  0.00  0.00    +0.090 C 
ATOM     12  C   UNL     1       0.506   2.045  25.373  0.00  0.00    +0.044 C 
ATOM     13  C   UNL     1       0.655   1.492  23.959  0.00  0.00    +0.057 C 
ATOM     14  C   UNL     1      -0.109   0.176  23.874  0.00  0.00    +0.042 C 
ATOM     15  C   UNL     1      -3.194   1.302  25.980  0.00  0.00    +0.172 C 
ATOM     16  C   UNL     1      -1.642   3.385  25.067  0.00  0.00    +0.038 A 
ATOM     17  C   UNL     1      -3.894   2.295  25.023  0.00  0.00    +0.068 C 
ATOM     18  C   UNL     1      -2.982   3.439  24.736  0.00  0.00    -0.016 A 
ATOM     20  C   UNL     1      -3.228   4.694  24.120  0.00  0.00    +0.003 A 
ATOM     21  C   UNL     1      -2.013   5.386  24.115  0.00  0.00    +0.047 A 
ATOM     26  C   UNL     1      -4.365   5.316  23.567  0.00  0.00    +0.010 A 
ATOM     27  C   UNL     1      -1.881   6.673  23.580  0.00  0.00    +0.026 A 
ATOM     29  C   UNL     1      -4.246   6.602  23.028  0.00  0.00    +0.001 A 
ATOM     32  C   UNL     1      -3.023   7.268  23.036  0.00  0.00    +0.002 A 
ATOM     38  H   UNL     1      -0.101   4.826  24.847  0.00  0.00    +0.166 HD
ENDROOT
BRANCH  11  19
ATOM      1  F   UNL     1      -5.412  -2.510  23.104  0.00  0.00    -0.202 F 
ATOM      2  F   UNL     1      -3.974  -4.760  23.698  0.00  0.00    -0.202 F 
ATOM     19  C   UNL     1      -2.242  -1.034  24.109  0.00  0.00    -0.027 A 
ATOM     24  C   UNL     1      -3.560  -1.146  23.667  0.00  0.00    +0.046 A 
ATOM     25  C   UNL     1      -1.509  -2.181  24.411  0.00  0.00    +0.008 A 
ATOM     30  C   UNL     1      -4.145  -2.404  23.529  0.00  0.00    +0.159 A 
ATOM     31  C   UNL     1      -2.094  -3.440  24.273  0.00  0.00    +0.041 A 
ATOM     33  C   UNL     1      -3.413  -3.551  23.831  0.00  0.00    +0.158 A 
ENDBRANCH  11  19
BRANCH  15  22
ATOM      4  O   UNL     1      -3.603  -0.928  26.777  0.00  0.00    -0.249 OA
ATOM     22  C   UNL     1      -4.009   0.071  26.198  0.00  0.00    +0.325 C 
BRANCH  22   3
ATOM      3  O   UNL     1      -5.249   0.243  25.657  0.00  0.00    -0.467 OA
ATOM     34  C   UNL     1      -6.032   1.293  26.236  0.00  0.00    +0.280 C 
ENDBRANCH  22   3
ENDBRANCH  15  22
BRANCH  13   7
ATOM      7  N   UNL     1       2.065   1.277  23.632  0.00  0.00    -0.312 NA
ATOM     37  H   UNL     1       2.566   0.968  24.465  0.00  0.00    +0.122 HD
BRANCH   7  23
ATOM     23  C   UNL     1       2.204   0.263  22.598  0.00  0.00    +0.100 C 
BRANCH  23  28
ATOM     28  C   UNL     1       3.573   0.363  21.941  0.00  0.00    +0.119 C 
BRANCH  28   9
ATOM      5  O   UNL     1       4.299  -1.742  23.805  0.00  0.00    -0.276 OA
ATOM      9  N   UNL     1       4.621   0.390  22.925  0.00  0.00    -0.314 N 
ATOM     35  C   UNL     1       4.898  -0.670  23.778  0.00  0.00    +0.210 C 
ATOM     36  C   UNL     1       6.061  -0.387  24.690  0.00  0.00    +0.109 C 
ATOM     39  H   UNL     1       5.183   1.235  22.992  0.00  0.00    +0.149 HD
ENDBRANCH  28   9
ENDBRANCH  23  28
ENDBRANCH   7  23
ENDBRANCH  13   7
TORSDOF 7
ENDMDL
MODEL 2
REMARK VINA RESULT:       9.6      3.252      6.540
REMARK  Name = 25389790
REMARK  9 active torsions:
REMARK  status: ('A' for Active; 'I' for Inactive)
REMARK    1  A    between atoms: O_3  and  C_22
REMARK    2  A    between atoms: O_3  and  C_34
REMARK    3  A    between atoms: N_7  and  C_13
REMARK    4  A    between atoms: N_7  and  C_23
REMARK    5  A    between atoms: N_9  and  C_28
REMARK    6  A    between atoms: C_11  and  C_19
REMARK    7  A    between atoms: C_15  and  C_22
REMARK    8  A    between atoms: C_23  and  C_28
REMARK    9  A    between atoms: C_35  and  C_36
REMARK                            x       y       z     vdW  Elec       q    Type
REMARK                         _______ _______ _______ _____ _____    ______ ____
ROOT
ATOM      6  N   UNL     1      -2.311   1.708  25.547  0.00  0.00    -0.274 NA
ATOM      8  N   UNL     1       0.384  -0.547  24.139  0.00  0.00    -0.356 N 
ATOM     10  C   UNL     1      -1.590   0.383  25.502  0.00  0.00    +0.106 C 
ATOM     11  C   UNL     1      -3.083   1.969  24.292  0.00  0.00    +0.090 C 
ATOM     12  C   UNL     1      -2.503  -0.784  25.103  0.00  0.00    +0.044 C 
ATOM     13  C   UNL     1      -3.208  -0.524  23.776  0.00  0.00    +0.057 C 
ATOM     14  C   UNL     1      -3.991   0.778  23.893  0.00  0.00    +0.042 C 
ATOM     15  C   UNL     1      -1.295   2.752  25.906  0.00  0.00    +0.172 C 
ATOM     16  C   UNL     1      -0.334   0.486  24.673  0.00  0.00    +0.038 A 
ATOM     17  C   UNL     1      -0.197   2.979  24.840  0.00  0.00    +0.068 C 
ATOM     18  C   UNL     1       0.325   1.663  24.374  0.00  0.00    -0.016 A 
ATOM     20  C   UNL     1       1.469   1.337  23.597  0.00  0.00    +0.003 A 
ATOM     21  C   UNL     1       1.482  -0.055  23.464  0.00  0.00    +0.047 A 
ATOM     26  C   UNL     1       2.498   2.086  22.995  0.00  0.00    +0.010 A 
ATOM     27  C   UNL     1       2.479  -0.735  22.755  0.00  0.00    +0.026 A 
ATOM     29  C   UNL     1       3.500   1.419  22.281  0.00  0.00    +0.001 A 
ATOM     32  C   UNL     1       3.489   0.031  22.164  0.00  0.00    +0.002 A 
ATOM     38  H   UNL     1       0.150  -1.528  24.215  0.00  0.00    +0.166 HD
ENDROOT
BRANCH  11  19
ATOM      1  F   UNL     1      -4.385   6.413  22.693  0.00  0.00    -0.202 F 
ATOM      2  F   UNL     1      -6.431   6.523  24.503  0.00  0.00    -0.202 F 
ATOM     19  C   UNL     1      -3.986   3.198  24.349  0.00  0.00    -0.027 A 
ATOM     24  C   UNL     1      -3.769   4.266  23.478  0.00  0.00    +0.046 A 
ATOM     25  C   UNL     1      -5.030   3.254  25.272  0.00  0.00    +0.008 A 
ATOM     30  C   UNL     1      -4.594   5.388  23.530  0.00  0.00    +0.159 A 
ATOM     31  C   UNL     1      -5.856   4.377  25.325  0.00  0.00    +0.041 A 
ATOM     33  C   UNL     1      -5.638   5.444  24.453  0.00  0.00    +0.158 A 
ENDBRANCH  11  19
BRANCH  15  22
ATOM      4  O   UNL     1      -2.892   4.104  27.088  0.00  0.00    -0.249 OA
ATOM     22  C   UNL     1      -1.948   4.032  26.313  0.00  0.00    +0.325 C 
BRANCH  22   3
ATOM      3  O   UNL     1      -1.329   5.076  25.692  0.00  0.00    -0.467 OA
ATOM     34  C   UNL     1      -2.179   6.175  25.343  0.00  0.00    +0.280 C 
ENDBRANCH  22   3
ENDBRANCH  15  22
BRANCH  13   7
ATOM      7  N   UNL     1      -4.111  -1.626  23.443  0.00  0.00    -0.312 NA
ATOM     37  H   UNL     1      -3.687  -2.209  22.721  0.00  0.00    +0.122 HD
BRANCH   7  23
ATOM     23  C   UNL     1      -4.374  -2.447  24.614  0.00  0.00    +0.100 C 
BRANCH  23  28
ATOM     28  C   UNL     1      -3.520  -3.706  24.579  0.00  0.00    +0.119 C 
BRANCH  28   9
ATOM      5  O   UNL     1      -0.967  -2.985  23.399  0.00  0.00    -0.276 OA
ATOM      9  N   UNL     1      -2.269  -3.505  25.258  0.00  0.00    -0.314 N 
ATOM     35  C   UNL     1      -1.092  -3.160  24.608  0.00  0.00    +0.210 C 
ATOM     36  C   UNL     1       0.062  -2.987  25.559  0.00  0.00    +0.109 C 
ATOM     39  H   UNL     1      -2.256  -3.626  26.267  0.00  0.00    +0.149 HD
ENDBRANCH  28   9
ENDBRANCH  23  28
ENDBRANCH   7  23
ENDBRANCH  13   7
TORSDOF 7
ENDMDL
MODEL 3
REMARK VINA RESULT:       9.7      3.113      7.296
REMARK  Name = 25389790
REMARK  9 active torsions:
REMARK  status: ('A' for Active; 'I' for Inactive)
REMARK    1  A    between atoms: O_3  and  C_22
REMARK    2  A    between atoms: O_3  and  C_34
REMARK    3  A    between atoms: N_7  and  C_13
REMARK    4  A    between atoms: N_7  and  C_23
REMARK    5  A    between atoms: N_9  and  C_28
REMARK    6  A    between atoms: C_11  and  C_19
REMARK    7  A    between atoms: C_15  and  C_22
REMARK    8  A    between atoms: C_23  and  C_28
REMARK    9  A    between atoms: C_35  and  C_36
REMARK                            x       y       z     vdW  Elec       q    Type
REMARK                         _______ _______ _______ _____ _____    ______ ____
ROOT
ATOM      6  N   UNL     1      -1.538   1.382  25.383  0.00  0.00    -0.274 NA
ATOM      8  N   UNL     1       1.201  -0.924  24.153  0.00  0.00    -0.356 N 
ATOM     10  C   UNL     1      -0.789   0.073  25.444  0.00  0.00    +0.106 C 
ATOM     11  C   UNL     1      -2.318   1.523  24.115  0.00  0.00    +0.090 C 
ATOM     12  C   UNL     1      -1.678  -1.142  25.145  0.00  0.00    +0.044 C 
ATOM     13  C   UNL     1      -2.391  -1.006  23.804  0.00  0.00    +0.057 C 
ATOM     14  C   UNL     1      -3.202   0.285  23.818  0.00  0.00    +0.042 C 
ATOM     15  C   UNL     1      -0.544   2.473  25.652  0.00  0.00    +0.172 C 
ATOM     16  C   UNL     1       0.463   0.135  24.605  0.00  0.00    +0.038 A 
ATOM     17  C   UNL     1       0.547   2.635  24.567  0.00  0.00    +0.068 C 
ATOM     18  C   UNL     1       1.096   1.297  24.207  0.00  0.00    -0.016 A 
ATOM     20  C   UNL     1       2.244   0.932  23.455  0.00  0.00    +0.003 A 
ATOM     21  C   UNL     1       2.286  -0.465  23.436  0.00  0.00    +0.047 A 
ATOM     26  C   UNL     1       3.256   1.650  22.789  0.00  0.00    +0.010 A 
ATOM     27  C   UNL     1       3.296  -1.180  22.780  0.00  0.00    +0.026 A 
ATOM     29  C   UNL     1       4.270   0.948  22.128  0.00  0.00    +0.001 A 
ATOM     32  C   UNL     1       4.288  -0.445  22.125  0.00  0.00    +0.002 A 
ATOM     38  H   UNL     1       0.988  -1.899  24.310  0.00  0.00    +0.166 HD
ENDROOT
BRANCH  11  19
ATOM      1  F   UNL     1      -5.592   4.488  26.235  0.00  0.00    -0.202 F 
ATOM      2  F   UNL     1      -5.760   6.010  23.969  0.00  0.00    -0.202 F 
ATOM     19  C   UNL     1      -3.247   2.734  24.075  0.00  0.00    -0.027 A 
ATOM     24  C   UNL     1      -4.011   3.065  25.195  0.00  0.00    +0.046 A 
ATOM     25  C   UNL     1      -3.332   3.510  22.920  0.00  0.00    +0.008 A 
ATOM     30  C   UNL     1      -4.859   4.170  25.159  0.00  0.00    +0.159 A 
ATOM     31  C   UNL     1      -4.181   4.616  22.883  0.00  0.00    +0.041 A 
ATOM     33  C   UNL     1      -4.945   4.947  24.004  0.00  0.00    +0.158 A 
ENDBRANCH  11  19
BRANCH  15  22
ATOM      4  O   UNL     1      -2.046   3.917  26.847  0.00  0.00    -0.249 OA
ATOM     22  C   UNL     1      -1.222   3.768  25.956  0.00  0.00    +0.325 C 
BRANCH  22   3
ATOM      3  O   UNL     1      -0.778   4.728  25.096  0.00  0.00    -0.467 OA
ATOM     34  C   UNL     1      -1.568   5.921  25.045  0.00  0.00    +0.280 C 
ENDBRANCH  22   3
ENDBRANCH  15  22
BRANCH  13   7
ATOM      7  N   UNL     1      -3.272  -2.150  23.566  0.00  0.00    -0.312 NA
ATOM     37  H   UNL     1      -2.800  -3.009  23.850  0.00  0.00    +0.122 HD
BRANCH   7  23
ATOM     23  C   UNL     1      -4.503  -2.019  24.328  0.00  0.00    +0.100 C 
BRANCH  23  28
ATOM     28  C   UNL     1      -5.112  -0.640  24.116  0.00  0.00    +0.119 C 
BRANCH  28   9
ATOM      5  O   UNL     1      -6.881   1.619  24.558  0.00  0.00    -0.276 OA
ATOM      9  N   UNL     1      -5.438  -0.017  25.371  0.00  0.00    -0.314 N 
ATOM     35  C   UNL     1      -6.299   1.065  25.486  0.00  0.00    +0.210 C 
ATOM     36  C   UNL     1      -6.485   1.504  26.914  0.00  0.00    +0.109 C 
ATOM     39  H   UNL     1      -5.008  -0.396  26.210  0.00  0.00    +0.149 HD
ENDBRANCH  28   9
ENDBRANCH  23  28
ENDBRANCH   7  23
ENDBRANCH  13   7
TORSDOF 7
ENDMDL
MODEL 4
REMARK VINA RESULT:      11.1      2.196      6.518
REMARK  Name = 25389790
REMARK  9 active torsions:
REMARK  status: ('A' for Active; 'I' for Inactive)
REMARK    1  A    between atoms: O_3  and  C_22
REMARK    2  A    between atoms: O_3  and  C_34
REMARK    3  A    between atoms: N_7  and  C_13
REMARK    4  A    between atoms: N_7  and  C_23
REMARK    5  A    between atoms: N_9  and  C_28
REMARK    6  A    between atoms: C_11  and  C_19
REMARK    7  A    between atoms: C_15  and  C_22
REMARK    8  A    between atoms: C_23  and  C_28
REMARK    9  A    between atoms: C_35  and  C_36
REMARK                            x       y       z     vdW  Elec       q    Type
REMARK                         _______ _______ _______ _____ _____    ______ ____
ROOT
ATOM      6  N   UNL     1      -0.715   0.352  23.675  0.00  0.00    -0.274 NA
ATOM      8  N   UNL     1       2.808   1.458  22.840  0.00  0.00    -0.356 N 
ATOM     10  C   UNL     1       0.246   1.222  22.903  0.00  0.00    +0.106 C 
ATOM     11  C   UNL     1      -0.732   0.691  25.132  0.00  0.00    +0.090 C 
ATOM     12  C   UNL     1       0.048   2.720  23.170  0.00  0.00    +0.044 C 
ATOM     13  C   UNL     1       0.123   3.045  24.658  0.00  0.00    +0.057 C 
ATOM     14  C   UNL     1      -0.921   2.208  25.388  0.00  0.00    +0.042 C 
ATOM     15  C   UNL     1      -0.378  -1.074  23.351  0.00  0.00    +0.172 C 
ATOM     16  C   UNL     1       1.667   0.751  23.096  0.00  0.00    +0.038 A 
ATOM     17  C   UNL     1       1.009  -1.541  23.853  0.00  0.00    +0.068 C 
ATOM     18  C   UNL     1       2.034  -0.513  23.515  0.00  0.00    -0.016 A 
ATOM     20  C   UNL     1       3.453  -0.566  23.549  0.00  0.00    +0.003 A 
ATOM     21  C   UNL     1       3.913   0.683  23.122  0.00  0.00    +0.047 A 
ATOM     26  C   UNL     1       4.395  -1.554  23.898  0.00  0.00    +0.010 A 
ATOM     27  C   UNL     1       5.275   0.992  23.027  0.00  0.00    +0.026 A 
ATOM     29  C   UNL     1       5.760  -1.258  23.809  0.00  0.00    +0.001 A 
ATOM     32  C   UNL     1       6.191  -0.004  23.381  0.00  0.00    +0.002 A 
ATOM     38  H   UNL     1       2.847   2.410  22.501  0.00  0.00    +0.166 HD
ENDROOT
BRANCH  11  19
ATOM      1  F   UNL     1      -5.440  -0.001  26.297  0.00  0.00    -0.202 F 
ATOM      2  F   UNL     1      -4.763  -1.941  28.102  0.00  0.00    -0.202 F 
ATOM     19  C   UNL     1      -1.820  -0.019  25.934  0.00  0.00    -0.027 A 
ATOM     24  C   UNL     1      -3.159   0.321  25.746  0.00  0.00    +0.046 A 
ATOM     25  C   UNL     1      -1.474  -1.009  26.854  0.00  0.00    +0.008 A 
ATOM     30  C   UNL     1      -4.153  -0.327  26.478  0.00  0.00    +0.159 A 
ATOM     31  C   UNL     1      -2.468  -1.658  27.587  0.00  0.00    +0.041 A 
ATOM     33  C   UNL     1      -3.808  -1.317  27.398  0.00  0.00    +0.158 A 
ENDBRANCH  11  19
BRANCH  15  22
ATOM      4  O   UNL     1      -1.276  -3.053  24.377  0.00  0.00    -0.249 OA
ATOM     22  C   UNL     1      -1.466  -2.003  23.778  0.00  0.00    +0.325 C 
BRANCH  22   3
ATOM      3  O   UNL     1      -2.673  -1.496  23.397  0.00  0.00    -0.467 OA
ATOM     34  C   UNL     1      -3.810  -2.305  23.720  0.00  0.00    +0.280 C 
ENDBRANCH  22   3
ENDBRANCH  15  22
BRANCH  13   7
ATOM      7  N   UNL     1      -0.122   4.469  24.891  0.00  0.00    -0.312 NA
ATOM     37  H   UNL     1      -0.111   4.968  24.001  0.00  0.00    +0.122 HD
BRANCH   7  23
ATOM     23  C   UNL     1      -1.414   4.672  25.526  0.00  0.00    +0.100 C 
BRANCH  23  28
ATOM     28  C   UNL     1      -2.477   4.966  24.478  0.00  0.00    +0.119 C 
BRANCH  28   9
ATOM      5  O   UNL     1      -3.489   2.607  23.121  0.00  0.00    -0.276 OA
ATOM      9  N   UNL     1      -3.694   4.252  24.757  0.00  0.00    -0.314 N 
ATOM     35  C   UNL     1      -4.099   3.127  24.052  0.00  0.00    +0.210 C 
ATOM     36  C   UNL     1      -5.396   2.562  24.565  0.00  0.00    +0.109 C 
ATOM     39  H   UNL     1      -4.281   4.598  25.511  0.00  0.00    +0.149 HD
ENDBRANCH  28   9
ENDBRANCH  23  28
ENDBRANCH   7  23
ENDBRANCH  13   7
TORSDOF 7
ENDMDL
MODEL 5
REMARK VINA RESULT:      11.3      2.846      7.056
REMARK  Name = 25389790
REMARK  9 active torsions:
REMARK  status: ('A' for Active; 'I' for Inactive)
REMARK    1  A    between atoms: O_3  and  C_22
REMARK    2  A    between atoms: O_3  and  C_34
REMARK    3  A    between atoms: N_7  and  C_13
REMARK    4  A    between atoms: N_7  and  C_23
REMARK    5  A    between atoms: N_9  and  C_28
REMARK    6  A    between atoms: C_11  and  C_19
REMARK    7  A    between atoms: C_15  and  C_22
REMARK    8  A    between atoms: C_23  and  C_28
REMARK    9  A    between atoms: C_35  and  C_36
REMARK                            x       y       z     vdW  Elec       q    Type
REMARK                         _______ _______ _______ _____ _____    ______ ____
ROOT
ATOM      6  N   UNL     1      -0.779   0.961  24.655  0.00  0.00    -0.274 NA
ATOM      8  N   UNL     1       2.226  -1.338  24.528  0.00  0.00    -0.356 N 
ATOM     10  C   UNL     1       0.017  -0.202  25.197  0.00  0.00    +0.106 C 
ATOM     11  C   UNL     1      -1.364   0.662  23.311  0.00  0.00    +0.090 C 
ATOM     12  C   UNL     1      -0.754  -1.528  25.158  0.00  0.00    +0.044 C 
ATOM     13  C   UNL     1      -1.263  -1.847  23.756  0.00  0.00    +0.057 C 
ATOM     14  C   UNL     1      -2.130  -0.686  23.282  0.00  0.00    +0.042 C 
ATOM     15  C   UNL     1       0.108   2.170  24.715  0.00  0.00    +0.172 C 
ATOM     16  C   UNL     1       1.377  -0.267  24.546  0.00  0.00    +0.038 A 
ATOM     17  C   UNL     1       1.340   2.115  23.782  0.00  0.00    +0.068 C 
ATOM     18  C   UNL     1       2.003   0.786  23.908  0.00  0.00    -0.016 A 
ATOM     20  C   UNL     1       3.269   0.328  23.453  0.00  0.00    +0.003 A 
ATOM     21  C   UNL     1       3.383  -1.006  23.854  0.00  0.00    +0.047 A 
ATOM     26  C   UNL     1       4.333   0.917  22.741  0.00  0.00    +0.010 A 
ATOM     27  C   UNL     1       4.515  -1.782  23.576  0.00  0.00    +0.026 A 
ATOM     29  C   UNL     1       5.469   0.152  22.455  0.00  0.00    +0.001 A 
ATOM     32  C   UNL     1       5.556  -1.176  22.866  0.00  0.00    +0.002 A 
ATOM     38  H   UNL     1       2.042  -2.243  24.938  0.00  0.00    +0.166 HD
ENDROOT
BRANCH  11  19
ATOM      1  F   UNL     1      -4.995   3.869  24.040  0.00  0.00    -0.202 F 
ATOM      2  F   UNL     1      -4.965   4.583  21.400  0.00  0.00    -0.202 F 
ATOM     19  C   UNL     1      -2.336   1.720  22.795  0.00  0.00    -0.027 A 
ATOM     24  C   UNL     1      -3.240   2.323  23.670  0.00  0.00    +0.046 A 
ATOM     25  C   UNL     1      -2.320   2.084  21.449  0.00  0.00    +0.008 A 
ATOM     30  C   UNL     1      -4.128   3.289  23.199  0.00  0.00    +0.159 A 
ATOM     31  C   UNL     1      -3.208   3.051  20.977  0.00  0.00    +0.041 A 
ATOM     33  C   UNL     1      -4.112   3.654  21.853  0.00  0.00    +0.158 A 
ENDBRANCH  11  19
BRANCH  15  22
ATOM      4  O   UNL     1      -0.543   4.184  23.578  0.00  0.00    -0.249 OA
ATOM     22  C   UNL     1      -0.672   3.429  24.532  0.00  0.00    +0.325 C 
BRANCH  22   3
ATOM      3  O   UNL     1      -1.529   3.591  25.580  0.00  0.00    -0.467 OA
ATOM     34  C   UNL     1      -2.127   4.886  25.692  0.00  0.00    +0.280 C 
ENDBRANCH  22   3
ENDBRANCH  15  22
BRANCH  13   7
ATOM      7  N   UNL     1      -2.039  -3.087  23.755  0.00  0.00    -0.312 NA
ATOM     37  H   UNL     1      -1.456  -3.855  24.086  0.00  0.00    +0.122 HD
BRANCH   7  23
ATOM     23  C   UNL     1      -3.198  -2.970  24.627  0.00  0.00    +0.100 C 
BRANCH  23  28
ATOM     28  C   UNL     1      -4.410  -2.501  23.834  0.00  0.00    +0.119 C 
BRANCH  28   9
ATOM      5  O   UNL     1      -3.716  -1.092  26.276  0.00  0.00    -0.276 OA
ATOM      9  N   UNL     1      -4.798  -1.171  24.216  0.00  0.00    -0.314 N 
ATOM     35  C   UNL     1      -4.416  -0.575  25.410  0.00  0.00    +0.210 C 
ATOM     36  C   UNL     1      -4.939   0.830  25.547  0.00  0.00    +0.109 C 
ATOM     39  H   UNL     1      -5.384  -0.647  23.571  0.00  0.00    +0.149 HD
ENDBRANCH  28   9
ENDBRANCH  23  28
ENDBRANCH   7  23
ENDBRANCH  13   7
TORSDOF 7
ENDMDL
MODEL 6
REMARK VINA RESULT:      12.8      2.572      6.497
REMARK  Name = 25389790
REMARK  9 active torsions:
REMARK  status: ('A' for Active; 'I' for Inactive)
REMARK    1  A    between atoms: O_3  and  C_22
REMARK    2  A    between atoms: O_3  and  C_34
REMARK    3  A    between atoms: N_7  and  C_13
REMARK    4  A    between atoms: N_7  and  C_23
REMARK    5  A    between atoms: N_9  and  C_28
REMARK    6  A    between atoms: C_11  and  C_19
REMARK    7  A    between atoms: C_15  and  C_22
REMARK    8  A    between atoms: C_23  and  C_28
REMARK    9  A    between atoms: C_35  and  C_36
REMARK                            x       y       z     vdW  Elec       q    Type
REMARK                         _______ _______ _______ _____ _____    ______ ____
ROOT
ATOM      6  N   UNL     1      -0.927   1.350  24.474  0.00  0.00    -0.274 NA
ATOM      8  N   UNL     1       0.603   3.743  26.976  0.00  0.00    -0.356 N 
ATOM     10  C   UNL     1      -0.310   2.684  24.816  0.00  0.00    +0.106 C 
ATOM     11  C   UNL     1      -2.273   1.177  25.102  0.00  0.00    +0.090 C 
ATOM     12  C   UNL     1      -1.253   3.867  24.556  0.00  0.00    +0.044 C 
ATOM     13  C   UNL     1      -2.584   3.701  25.281  0.00  0.00    +0.057 C 
ATOM     14  C   UNL     1      -3.211   2.383  24.842  0.00  0.00    +0.042 C 
ATOM     15  C   UNL     1       0.083   0.295  24.816  0.00  0.00    +0.172 C 
ATOM     16  C   UNL     1       0.271   2.662  26.209  0.00  0.00    +0.038 A 
ATOM     17  C   UNL     1       0.397   0.166  26.325  0.00  0.00    +0.068 C 
ATOM     18  C   UNL     1       0.614   1.521  26.908  0.00  0.00    -0.016 A 
ATOM     20  C   UNL     1       1.144   1.922  28.163  0.00  0.00    +0.003 A 
ATOM     21  C   UNL     1       1.125   3.320  28.180  0.00  0.00    +0.047 A 
ATOM     26  C   UNL     1       1.641   1.236  29.288  0.00  0.00    +0.010 A 
ATOM     27  C   UNL     1       1.582   4.065  29.274  0.00  0.00    +0.026 A 
ATOM     29  C   UNL     1       2.099   1.969  30.388  0.00  0.00    +0.001 A 
ATOM     32  C   UNL     1       2.068   3.362  30.379  0.00  0.00    +0.002 A 
ATOM     38  H   UNL     1       0.483   4.712  26.712  0.00  0.00    +0.166 HD
ENDROOT
BRANCH  11  19
ATOM      1  F   UNL     1      -3.740  -3.449  25.774  0.00  0.00    -0.202 F 
ATOM      2  F   UNL     1      -5.084  -3.424  23.393  0.00  0.00    -0.202 F 
ATOM     19  C   UNL     1      -3.032  -0.065  24.641  0.00  0.00    -0.027 A 
ATOM     24  C   UNL     1      -3.040  -1.213  25.433  0.00  0.00    +0.046 A 
ATOM     25  C   UNL     1      -3.717  -0.052  23.427  0.00  0.00    +0.008 A 
ATOM     30  C   UNL     1      -3.732  -2.347  25.012  0.00  0.00    +0.159 A 
ATOM     31  C   UNL     1      -4.411  -1.187  23.004  0.00  0.00    +0.041 A 
ATOM     33  C   UNL     1      -4.419  -2.335  23.798  0.00  0.00    +0.158 A 
ENDBRANCH  11  19
BRANCH  15  22
ATOM      4  O   UNL     1      -0.578  -2.015  24.853  0.00  0.00    -0.249 OA
ATOM     22  C   UNL     1      -0.273  -1.021  24.208  0.00  0.00    +0.325 C 
BRANCH  22   3
ATOM      3  O   UNL     1      -0.203  -0.929  22.850  0.00  0.00    -0.467 OA
ATOM     34  C   UNL     1       1.022  -0.399  22.331  0.00  0.00    +0.280 C 
ENDBRANCH  22   3
ENDBRANCH  15  22
BRANCH  13   7
ATOM      7  N   UNL     1      -3.484   4.813  24.975  0.00  0.00    -0.312 NA
ATOM     37  H   UNL     1      -3.025   5.456  24.330  0.00  0.00    +0.122 HD
BRANCH   7  23
ATOM     23  C   UNL     1      -4.710   4.329  24.362  0.00  0.00    +0.100 C 
BRANCH  23  28
ATOM     28  C   UNL     1      -5.889   4.537  25.302  0.00  0.00    +0.119 C 
BRANCH  28   9
ATOM      5  O   UNL     1      -6.578   1.788  24.672  0.00  0.00    -0.276 OA
ATOM      9  N   UNL     1      -6.023   3.438  26.219  0.00  0.00    -0.314 N 
ATOM     35  C   UNL     1      -6.358   2.149  25.825  0.00  0.00    +0.210 C 
ATOM     36  C   UNL     1      -6.406   1.187  26.981  0.00  0.00    +0.109 C 
ATOM     39  H   UNL     1      -5.864   3.625  27.205  0.00  0.00    +0.149 HD
ENDBRANCH  28   9
ENDBRANCH  23  28
ENDBRANCH   7  23
ENDBRANCH  13   7
TORSDOF 7
ENDMDL
MODEL 7
REMARK VINA RESULT:      12.8      3.069      6.009
REMARK  Name = 25389790
REMARK  9 active torsions:
REMARK  status: ('A' for Active; 'I' for Inactive)
REMARK    1  A    between atoms: O_3  and  C_22
REMARK    2  A    between atoms: O_3  and  C_34
REMARK    3  A    between atoms: N_7  and  C_13
REMARK    4  A    between atoms: N_7  and  C_23
REMARK    5  A    between atoms: N_9  and  C_28
REMARK    6  A    between atoms: C_11  and  C_19
REMARK    7  A    between atoms: C_15  and  C_22
REMARK    8  A    between atoms: C_23  and  C_28
REMARK    9  A    between atoms: C_35  and  C_36
REMARK                            x       y       z     vdW  Elec       q    Type
REMARK                         _______ _______ _______ _____ _____    ______ ____
ROOT
ATOM      6  N   UNL     1      -0.495   0.975  25.453  0.00  0.00    -0.274 NA
ATOM      8  N   UNL     1      -3.854   2.560  26.186  0.00  0.00    -0.356 N 
ATOM     10  C   UNL     1      -1.395   1.814  26.327  0.00  0.00    +0.106 C 
ATOM     11  C   UNL     1      -0.195   1.645  24.150  0.00  0.00    +0.090 C 
ATOM     12  C   UNL     1      -0.898   3.256  26.492  0.00  0.00    +0.044 C 
ATOM     13  C   UNL     1      -0.685   3.940  25.146  0.00  0.00    +0.057 C 
ATOM     14  C   UNL     1       0.295   3.105  24.330  0.00  0.00    +0.042 C 
ATOM     15  C   UNL     1      -1.123  -0.384  25.347  0.00  0.00    +0.172 C 
ATOM     16  C   UNL     1      -2.829   1.712  25.869  0.00  0.00    +0.038 A 
ATOM     17  C   UNL     1      -2.476  -0.414  24.599  0.00  0.00    +0.068 C 
ATOM     18  C   UNL     1      -3.344   0.693  25.092  0.00  0.00    -0.016 A 
ATOM     20  C   UNL     1      -4.728   0.948  24.899  0.00  0.00    +0.003 A 
ATOM     21  C   UNL     1      -5.021   2.124  25.595  0.00  0.00    +0.047 A 
ATOM     26  C   UNL     1      -5.764   0.294  24.204  0.00  0.00    +0.010 A 
ATOM     27  C   UNL     1      -6.306   2.679  25.628  0.00  0.00    +0.026 A 
ATOM     29  C   UNL     1      -7.052   0.839  24.227  0.00  0.00    +0.001 A 
ATOM     32  C   UNL     1      -7.317   2.014  24.928  0.00  0.00    +0.002 A 
ATOM     38  H   UNL     1      -3.777   3.387  26.761  0.00  0.00    +0.166 HD
ENDROOT
BRANCH  11  19
ATOM      1  F   UNL     1       4.482   0.726  23.018  0.00  0.00    -0.202 F 
ATOM      2  F   UNL     1       3.719  -0.973  21.016  0.00  0.00    -0.202 F 
ATOM     19  C   UNL     1       0.862   0.939  23.304  0.00  0.00    -0.027 A 
ATOM     24  C   UNL     1       2.216   1.160  23.551  0.00  0.00    +0.046 A 
ATOM     25  C   UNL     1       0.472   0.072  22.283  0.00  0.00    +0.008 A 
ATOM     30  C   UNL     1       3.181   0.514  22.779  0.00  0.00    +0.159 A 
ATOM     31  C   UNL     1       1.437  -0.574  21.510  0.00  0.00    +0.041 A 
ATOM     33  C   UNL     1       2.792  -0.353  21.759  0.00  0.00    +0.158 A 
ENDBRANCH  11  19
BRANCH  15  22
ATOM      4  O   UNL     1       0.993  -1.512  25.185  0.00  0.00    -0.249 OA
ATOM     22  C   UNL     1      -0.162  -1.388  24.802  0.00  0.00    +0.325 C 
BRANCH  22   3
ATOM      3  O   UNL     1      -0.775  -2.124  23.831  0.00  0.00    -0.467 OA
ATOM     34  C   UNL     1      -1.829  -2.981  24.281  0.00  0.00    +0.280 C 
ENDBRANCH  22   3
ENDBRANCH  15  22
BRANCH  13   7
ATOM      7  N   UNL     1      -0.161   5.294  25.328  0.00  0.00    -0.312 NA
ATOM     37  H   UNL     1       0.696   5.405  24.786  0.00  0.00    +0.122 HD
BRANCH   7  23
ATOM     23  C   UNL     1      -1.128   6.285  24.884  0.00  0.00    +0.100 C 
BRANCH  23  28
ATOM     28  C   UNL     1      -2.477   5.629  24.629  0.00  0.00    +0.119 C 
BRANCH  28   9
ATOM      5  O   UNL     1      -4.626   4.111  23.400  0.00  0.00    -0.276 OA
ATOM      9  N   UNL     1      -2.356   4.531  23.709  0.00  0.00    -0.314 N 
ATOM     35  C   UNL     1      -3.446   3.861  23.169  0.00  0.00    +0.210 C 
ATOM     36  C   UNL     1      -3.038   2.770  22.215  0.00  0.00    +0.109 C 
ATOM     39  H   UNL     1      -1.419   4.236  23.447  0.00  0.00    +0.149 HD
ENDBRANCH  28   9
ENDBRANCH  23  28
ENDBRANCH   7  23
ENDBRANCH  13   7
TORSDOF 7
ENDMDL
MODEL 8
REMARK VINA RESULT:      12.8      2.979      6.165
REMARK  Name = 25389790
REMARK  9 active torsions:
REMARK  status: ('A' for Active; 'I' for Inactive)
REMARK    1  A    between atoms: O_3  and  C_22
REMARK    2  A    between atoms: O_3  and  C_34
REMARK    3  A    between atoms: N_7  and  C_13
REMARK    4  A    between atoms: N_7  and  C_23
REMARK    5  A    between atoms: N_9  and  C_28
REMARK    6  A    between atoms: C_11  and  C_19
REMARK    7  A    between atoms: C_15  and  C_22
REMARK    8  A    between atoms: C_23  and  C_28
REMARK    9  A    between atoms: C_35  and  C_36
REMARK                            x       y       z     vdW  Elec       q    Type
REMARK                         _______ _______ _______ _____ _____    ______ ____
ROOT
ATOM      6  N   UNL     1      -1.730   1.912  23.185  0.00  0.00    -0.274 NA
ATOM      8  N   UNL     1      -1.082  -1.773  23.763  0.00  0.00    -0.356 N 
ATOM     10  C   UNL     1      -1.182   0.581  22.729  0.00  0.00    +0.106 C 
ATOM     11  C   UNL     1      -0.957   2.473  24.336  0.00  0.00    +0.090 C 
ATOM     12  C   UNL     1       0.332   0.609  22.481  0.00  0.00    +0.044 C 
ATOM     13  C   UNL     1       1.098   1.104  23.704  0.00  0.00    +0.057 C 
ATOM     14  C   UNL     1       0.571   2.484  24.077  0.00  0.00    +0.042 C 
ATOM     15  C   UNL     1      -3.199   1.724  23.427  0.00  0.00    +0.172 C 
ATOM     16  C   UNL     1      -1.628  -0.525  23.653  0.00  0.00    +0.038 A 
ATOM     17  C   UNL     1      -3.545   0.775  24.599  0.00  0.00    +0.068 C 
ATOM     18  C   UNL     1      -2.715  -0.459  24.504  0.00  0.00    -0.016 A 
ATOM     20  C   UNL     1      -2.813  -1.703  25.182  0.00  0.00    +0.003 A 
ATOM     21  C   UNL     1      -1.778  -2.508  24.699  0.00  0.00    +0.047 A 
ATOM     26  C   UNL     1      -3.682  -2.228  26.159  0.00  0.00    +0.010 A 
ATOM     27  C   UNL     1      -1.569  -3.817  25.149  0.00  0.00    +0.026 A 
ATOM     29  C   UNL     1      -3.484  -3.535  26.617  0.00  0.00    +0.001 A 
ATOM     32  C   UNL     1      -2.443  -4.315  26.120  0.00  0.00    +0.002 A 
ATOM     38  H   UNL     1      -0.284  -2.114  23.244  0.00  0.00    +0.166 HD
ENDROOT
BRANCH  11  19
ATOM      1  F   UNL     1      -3.523   5.646  27.046  0.00  0.00    -0.202 F 
ATOM      2  F   UNL     1      -2.372   7.763  25.753  0.00  0.00    -0.202 F 
ATOM     19  C   UNL     1      -1.339   3.901  24.718  0.00  0.00    -0.027 A 
ATOM     24  C   UNL     1      -2.276   4.126  25.727  0.00  0.00    +0.046 A 
ATOM     25  C   UNL     1      -0.752   4.980  24.059  0.00  0.00    +0.008 A 
ATOM     30  C   UNL     1      -2.624   5.430  26.076  0.00  0.00    +0.159 A 
ATOM     31  C   UNL     1      -1.100   6.285  24.408  0.00  0.00    +0.041 A 
ATOM     33  C   UNL     1      -2.037   6.510  25.418  0.00  0.00    +0.158 A 
ENDBRANCH  11  19
BRANCH  15  22
ATOM      4  O   UNL     1      -3.876   3.908  22.690  0.00  0.00    -0.249 OA
ATOM     22  C   UNL     1      -3.905   3.034  23.546  0.00  0.00    +0.325 C 
BRANCH  22   3
ATOM      3  O   UNL     1      -4.568   3.089  24.736  0.00  0.00    -0.467 OA
ATOM     34  C   UNL     1      -5.841   2.433  24.762  0.00  0.00    +0.280 C 
ENDBRANCH  22   3
ENDBRANCH  15  22
BRANCH  13   7
ATOM      7  N   UNL     1       2.533   1.172  23.425  0.00  0.00    -0.312 NA
ATOM     37  H   UNL     1       3.054   0.827  24.231  0.00  0.00    +0.122 HD
BRANCH   7  23
ATOM     23  C   UNL     1       2.871   0.360  22.267  0.00  0.00    +0.100 C 
BRANCH  23  28
ATOM     28  C   UNL     1       4.337   0.544  21.902  0.00  0.00    +0.119 C 
BRANCH  28   9
ATOM      5  O   UNL     1       4.224  -1.670  23.778  0.00  0.00    -0.276 OA
ATOM      9  N   UNL     1       5.188   0.317  23.039  0.00  0.00    -0.314 N 
ATOM     35  C   UNL     1       5.060  -0.776  23.885  0.00  0.00    +0.210 C 
ATOM     36  C   UNL     1       6.093  -0.784  24.978  0.00  0.00    +0.109 C 
ATOM     39  H   UNL     1       5.918   0.999  23.224  0.00  0.00    +0.149 HD
ENDBRANCH  28   9
ENDBRANCH  23  28
ENDBRANCH   7  23
ENDBRANCH  13   7
TORSDOF 7
ENDMDL
