MODEL 1
REMARK VINA RESULT:      -3.2      0.000      0.000
REMARK  Name = 75536976
REMARK  5 active torsions:
REMARK  status: ('A' for Active; 'I' for Inactive)
REMARK    1  A    between atoms: S_1  and  N_6
REMARK    2  A    between atoms: S_1  and  C_16
REMARK    3  A    between atoms: N_7  and  C_15
REMARK    4  A    between atoms: C_15  and  C_17
REMARK    5  A    between atoms: C_16  and  C_18
REMARK                            x       y       z     vdW  Elec       q    Type
REMARK                         _______ _______ _______ _____ _____    ______ ____
ROOT
ATOM      2  O   UNL     1       0.248  -2.156  24.477  0.00  0.00    -0.252 OA
ATOM      5  N   UNL     1      -1.081  -0.238  24.746  0.00  0.00    -0.278 N 
ATOM      6  N   UNL     1      -3.403   1.280  25.095  0.00  0.00    -0.178 NA
ATOM      7  N   UNL     1       0.518  -0.213  23.168  0.00  0.00    -0.279 N 
ATOM      9  C   UNL     1      -1.108   1.114  24.221  0.00  0.00    +0.111 C 
ATOM     10  C   UNL     1      -2.538   1.529  23.893  0.00  0.00    +0.133 C 
ATOM     11  C   UNL     1      -0.170   1.056  23.018  0.00  0.00    +0.133 C 
ATOM     12  C   UNL     1      -1.977  -0.607  25.824  0.00  0.00    +0.127 C 
ATOM     13  C   UNL     1      -3.400  -0.167  25.494  0.00  0.00    +0.128 C 
ATOM     14  C   UNL     1      -0.064  -1.012  24.172  0.00  0.00    +0.305 C 
ENDROOT
BRANCH   6   1
ATOM      1  S   UNL     1      -4.948   2.020  25.046  0.00  0.00    +0.036 S 
ATOM      3  O   UNL     1      -5.890   1.174  25.746  0.00  0.00    -0.158 OA
ATOM      4  O   UNL     1      -5.197   2.486  23.700  0.00  0.00    -0.158 OA
BRANCH   1  16
ATOM     16  C   UNL     1      -4.616   3.434  26.065  0.00  0.00    +0.220 C 
BRANCH  16  18
ATOM     18  C   UNL     1      -3.256   3.946  25.703  0.00  0.00    -0.025 A 
ATOM     21  C   UNL     1      -3.115   4.899  24.693  0.00  0.00    +0.005 A 
ATOM     22  C   UNL     1      -2.130   3.471  26.375  0.00  0.00    +0.005 A 
ATOM     24  C   UNL     1      -1.848   5.377  24.358  0.00  0.00    +0.000 A 
ATOM     25  C   UNL     1      -0.863   3.948  26.038  0.00  0.00    +0.000 A 
ATOM     27  C   UNL     1      -0.723   4.901  25.030  0.00  0.00    +0.000 A 
ENDBRANCH  16  18
ENDBRANCH   1  16
ENDBRANCH   6   1
BRANCH   7  15
ATOM     15  C   UNL     1       1.584  -0.617  22.278  0.00  0.00    +0.146 C 
BRANCH  15  17
ATOM      8  N   UNL     1       4.711   1.294  23.215  0.00  0.00    -0.263 NA
ATOM     17  C   UNL     1       2.939  -0.310  22.850  0.00  0.00    -0.012 A 
ATOM     19  C   UNL     1       3.673  -1.284  23.518  0.00  0.00    +0.008 A 
ATOM     20  C   UNL     1       3.498   0.952  22.726  0.00  0.00    +0.115 A 
ATOM     23  C   UNL     1       4.925  -0.970  24.035  0.00  0.00    +0.020 A 
ATOM     26  C   UNL     1       5.395   0.320  23.858  0.00  0.00    +0.111 A 
ENDBRANCH  15  17
ENDBRANCH   7  15
TORSDOF 5
ENDMDL
MODEL 2
REMARK VINA RESULT:      -1.6      2.139      3.174
REMARK  Name = 75536976
REMARK  5 active torsions:
REMARK  status: ('A' for Active; 'I' for Inactive)
REMARK    1  A    between atoms: S_1  and  N_6
REMARK    2  A    between atoms: S_1  and  C_16
REMARK    3  A    between atoms: N_7  and  C_15
REMARK    4  A    between atoms: C_15  and  C_17
REMARK    5  A    between atoms: C_16  and  C_18
REMARK                            x       y       z     vdW  Elec       q    Type
REMARK                         _______ _______ _______ _____ _____    ______ ____
ROOT
ATOM      2  O   UNL     1      -0.111  -1.373  24.076  0.00  0.00    -0.252 OA
ATOM      5  N   UNL     1      -0.354   0.839  24.832  0.00  0.00    -0.278 N 
ATOM      6  N   UNL     1      -1.655   3.217  25.517  0.00  0.00    -0.178 NA
ATOM      7  N   UNL     1       1.298   0.384  23.379  0.00  0.00    -0.279 N 
ATOM      9  C   UNL     1       0.376   2.086  24.709  0.00  0.00    +0.111 C 
ATOM     10  C   UNL     1      -0.585   3.243  24.464  0.00  0.00    +0.133 C 
ATOM     11  C   UNL     1       1.358   1.822  23.570  0.00  0.00    +0.133 C 
ATOM     12  C   UNL     1      -1.488   0.756  25.731  0.00  0.00    +0.127 C 
ATOM     13  C   UNL     1      -2.430   1.932  25.492  0.00  0.00    +0.128 C 
ATOM     14  C   UNL     1       0.235  -0.199  24.097  0.00  0.00    +0.305 C 
ENDROOT
BRANCH   6   1
ATOM      1  S   UNL     1      -2.604   4.639  25.628  0.00  0.00    +0.036 S 
ATOM      3  O   UNL     1      -1.781   5.775  25.275  0.00  0.00    -0.158 OA
ATOM      4  O   UNL     1      -3.357   4.599  26.862  0.00  0.00    -0.158 OA
BRANCH   1  16
ATOM     16  C   UNL     1      -3.726   4.335  24.288  0.00  0.00    +0.220 C 
BRANCH  16  18
ATOM     18  C   UNL     1      -4.635   3.218  24.700  0.00  0.00    -0.025 A 
ATOM     21  C   UNL     1      -5.515   3.393  25.769  0.00  0.00    +0.005 A 
ATOM     22  C   UNL     1      -4.603   2.004  24.015  0.00  0.00    +0.005 A 
ATOM     24  C   UNL     1      -6.362   2.352  26.151  0.00  0.00    +0.000 A 
ATOM     25  C   UNL     1      -5.449   0.964  24.398  0.00  0.00    +0.000 A 
ATOM     27  C   UNL     1      -6.328   1.138  25.466  0.00  0.00    +0.000 A 
ENDBRANCH  16  18
ENDBRANCH   1  16
ENDBRANCH   6   1
BRANCH   7  15
ATOM     15  C   UNL     1       2.166  -0.302  22.447  0.00  0.00    +0.146 C 
BRANCH  15  17
ATOM      8  N   UNL     1       5.202  -1.737  24.187  0.00  0.00    -0.263 NA
ATOM     17  C   UNL     1       3.566  -0.433  22.976  0.00  0.00    -0.012 A 
ATOM     19  C   UNL     1       4.507   0.570  22.772  0.00  0.00    +0.008 A 
ATOM     20  C   UNL     1       3.960  -1.556  23.684  0.00  0.00    +0.115 A 
ATOM     23  C   UNL     1       5.794   0.421  23.274  0.00  0.00    +0.020 A 
ATOM     26  C   UNL     1       6.089  -0.740  23.969  0.00  0.00    +0.111 A 
ENDBRANCH  15  17
ENDBRANCH   7  15
TORSDOF 5
ENDMDL
MODEL 3
REMARK VINA RESULT:      -1.6      2.306      3.171
REMARK  Name = 75536976
REMARK  5 active torsions:
REMARK  status: ('A' for Active; 'I' for Inactive)
REMARK    1  A    between atoms: S_1  and  N_6
REMARK    2  A    between atoms: S_1  and  C_16
REMARK    3  A    between atoms: N_7  and  C_15
REMARK    4  A    between atoms: C_15  and  C_17
REMARK    5  A    between atoms: C_16  and  C_18
REMARK                            x       y       z     vdW  Elec       q    Type
REMARK                         _______ _______ _______ _____ _____    ______ ____
ROOT
ATOM      2  O   UNL     1       2.082   1.983  24.045  0.00  0.00    -0.252 OA
ATOM      5  N   UNL     1       0.002   0.904  23.859  0.00  0.00    -0.278 N 
ATOM      6  N   UNL     1      -2.335  -0.383  24.694  0.00  0.00    -0.178 NA
ATOM      7  N   UNL     1       1.651   0.288  22.463  0.00  0.00    -0.279 N 
ATOM      9  C   UNL     1      -0.619  -0.051  22.962  0.00  0.00    +0.111 C 
ATOM     10  C   UNL     1      -1.404  -1.091  23.753  0.00  0.00    +0.133 C 
ATOM     11  C   UNL     1       0.554  -0.612  22.160  0.00  0.00    +0.133 C 
ATOM     12  C   UNL     1      -0.793   1.544  24.889  0.00  0.00    +0.127 C 
ATOM     13  C   UNL     1      -1.591   0.495  25.658  0.00  0.00    +0.128 C 
ATOM     14  C   UNL     1       1.337   1.165  23.520  0.00  0.00    +0.305 C 
ENDROOT
BRANCH   6   1
ATOM      1  S   UNL     1      -3.551  -1.367  25.394  0.00  0.00    +0.036 S 
ATOM      3  O   UNL     1      -3.630  -1.072  26.808  0.00  0.00    -0.158 OA
ATOM      4  O   UNL     1      -3.393  -2.718  24.905  0.00  0.00    -0.158 OA
BRANCH   1  16
ATOM     16  C   UNL     1      -4.974  -0.659  24.605  0.00  0.00    +0.220 C 
BRANCH  16  18
ATOM     18  C   UNL     1      -4.873   0.830  24.733  0.00  0.00    -0.025 A 
ATOM     21  C   UNL     1      -5.530   1.487  25.773  0.00  0.00    +0.005 A 
ATOM     22  C   UNL     1      -4.122   1.559  23.811  0.00  0.00    +0.005 A 
ATOM     24  C   UNL     1      -5.435   2.874  25.892  0.00  0.00    +0.000 A 
ATOM     25  C   UNL     1      -4.029   2.946  23.929  0.00  0.00    +0.000 A 
ATOM     27  C   UNL     1      -4.685   3.603  24.969  0.00  0.00    +0.000 A 
ENDBRANCH  16  18
ENDBRANCH   1  16
ENDBRANCH   6   1
BRANCH   7  15
ATOM     15  C   UNL     1       2.940   0.170  21.817  0.00  0.00    +0.146 C 
BRANCH  15  17
ATOM      8  N   UNL     1       5.083  -1.727  24.288  0.00  0.00    -0.263 NA
ATOM     17  C   UNL     1       4.034  -0.139  22.798  0.00  0.00    -0.012 A 
ATOM     19  C   UNL     1       4.986   0.817  23.135  0.00  0.00    +0.008 A 
ATOM     20  C   UNL     1       4.126  -1.384  23.398  0.00  0.00    +0.115 A 
ATOM     23  C   UNL     1       5.987   0.502  24.047  0.00  0.00    +0.020 A 
ATOM     26  C   UNL     1       5.991  -0.772  24.591  0.00  0.00    +0.111 A 
ENDBRANCH  15  17
ENDBRANCH   7  15
TORSDOF 5
ENDMDL
MODEL 4
REMARK VINA RESULT:      -0.8      1.957      3.606
REMARK  Name = 75536976
REMARK  5 active torsions:
REMARK  status: ('A' for Active; 'I' for Inactive)
REMARK    1  A    between atoms: S_1  and  N_6
REMARK    2  A    between atoms: S_1  and  C_16
REMARK    3  A    between atoms: N_7  and  C_15
REMARK    4  A    between atoms: C_15  and  C_17
REMARK    5  A    between atoms: C_16  and  C_18
REMARK                            x       y       z     vdW  Elec       q    Type
REMARK                         _______ _______ _______ _____ _____    ______ ____
ROOT
ATOM      2  O   UNL     1       1.159  -0.326  21.525  0.00  0.00    -0.252 OA
ATOM      5  N   UNL     1      -0.260   0.478  23.218  0.00  0.00    -0.278 N 
ATOM      6  N   UNL     1      -2.577   1.529  24.376  0.00  0.00    -0.178 NA
ATOM      7  N   UNL     1       1.871   1.187  23.188  0.00  0.00    -0.279 N 
ATOM      9  C   UNL     1      -0.129   1.284  24.416  0.00  0.00    +0.111 C 
ATOM     10  C   UNL     1      -1.282   2.275  24.519  0.00  0.00    +0.133 C 
ATOM     11  C   UNL     1       1.250   1.924  24.274  0.00  0.00    +0.133 C 
ATOM     12  C   UNL     1      -1.520  -0.178  22.928  0.00  0.00    +0.127 C 
ATOM     13  C   UNL     1      -2.669   0.819  23.057  0.00  0.00    +0.128 C 
ATOM     14  C   UNL     1       0.950   0.357  22.520  0.00  0.00    +0.305 C 
ENDROOT
BRANCH   6   1
ATOM      1  S   UNL     1      -3.978   2.406  24.831  0.00  0.00    +0.036 S 
ATOM      3  O   UNL     1      -4.798   2.610  23.657  0.00  0.00    -0.158 OA
ATOM      4  O   UNL     1      -3.581   3.504  25.683  0.00  0.00    -0.158 OA
BRANCH   1  16
ATOM     16  C   UNL     1      -4.762   1.179  25.844  0.00  0.00    +0.220 C 
BRANCH  16  18
ATOM     18  C   UNL     1      -4.300  -0.165  25.372  0.00  0.00    -0.025 A 
ATOM     21  C   UNL     1      -4.877  -0.745  24.241  0.00  0.00    +0.005 A 
ATOM     22  C   UNL     1      -3.292  -0.839  26.063  0.00  0.00    +0.005 A 
ATOM     24  C   UNL     1      -4.445  -1.997  23.802  0.00  0.00    +0.000 A 
ATOM     25  C   UNL     1      -2.862  -2.091  25.624  0.00  0.00    +0.000 A 
ATOM     27  C   UNL     1      -3.439  -2.669  24.494  0.00  0.00    +0.000 A 
ENDBRANCH  16  18
ENDBRANCH   1  16
ENDBRANCH   6   1
BRANCH   7  15
ATOM     15  C   UNL     1       3.245   1.414  22.795  0.00  0.00    +0.146 C 
BRANCH  15  17
ATOM      8  N   UNL     1       4.497  -1.974  23.913  0.00  0.00    -0.263 NA
ATOM     17  C   UNL     1       4.162   0.343  23.313  0.00  0.00    -0.012 A 
ATOM     19  C   UNL     1       5.474   0.633  23.668  0.00  0.00    +0.008 A 
ATOM     20  C   UNL     1       3.725  -0.964  23.453  0.00  0.00    +0.115 A 
ATOM     23  C   UNL     1       6.299  -0.380  24.145  0.00  0.00    +0.020 A 
ATOM     26  C   UNL     1       5.767  -1.654  24.248  0.00  0.00    +0.111 A 
ENDBRANCH  15  17
ENDBRANCH   7  15
TORSDOF 5
ENDMDL
MODEL 5
REMARK VINA RESULT:       0.1      1.620      3.324
REMARK  Name = 75536976
REMARK  5 active torsions:
REMARK  status: ('A' for Active; 'I' for Inactive)
REMARK    1  A    between atoms: S_1  and  N_6
REMARK    2  A    between atoms: S_1  and  C_16
REMARK    3  A    between atoms: N_7  and  C_15
REMARK    4  A    between atoms: C_15  and  C_17
REMARK    5  A    between atoms: C_16  and  C_18
REMARK                            x       y       z     vdW  Elec       q    Type
REMARK                         _______ _______ _______ _____ _____    ______ ____
ROOT
ATOM      2  O   UNL     1       1.769   1.312  24.647  0.00  0.00    -0.252 OA
ATOM      5  N   UNL     1      -0.449   1.884  24.123  0.00  0.00    -0.278 N 
ATOM      6  N   UNL     1      -3.165   2.394  24.547  0.00  0.00    -0.178 NA
ATOM      7  N   UNL     1       0.626   0.440  22.778  0.00  0.00    -0.279 N 
ATOM      9  C   UNL     1      -1.376   1.641  23.034  0.00  0.00    +0.111 C 
ATOM     10  C   UNL     1      -2.763   1.320  23.578  0.00  0.00    +0.133 C 
ATOM     11  C   UNL     1      -0.723   0.509  22.245  0.00  0.00    +0.133 C 
ATOM     12  C   UNL     1      -0.808   2.810  25.178  0.00  0.00    +0.127 C 
ATOM     13  C   UNL     1      -2.206   2.492  25.698  0.00  0.00    +0.128 C 
ATOM     14  C   UNL     1       0.775   1.226  23.937  0.00  0.00    +0.305 C 
ENDROOT
BRANCH   6   1
ATOM      1  S   UNL     1      -4.824   2.404  24.977  0.00  0.00    +0.036 S 
ATOM      3  O   UNL     1      -5.600   1.962  23.840  0.00  0.00    -0.158 OA
ATOM      4  O   UNL     1      -5.117   3.642  25.665  0.00  0.00    -0.158 OA
BRANCH   1  16
ATOM     16  C   UNL     1      -4.813   1.098  26.177  0.00  0.00    +0.220 C 
BRANCH  16  18
ATOM     18  C   UNL     1      -4.311  -0.140  25.498  0.00  0.00    -0.025 A 
ATOM     21  C   UNL     1      -4.927  -0.595  24.331  0.00  0.00    +0.005 A 
ATOM     22  C   UNL     1      -3.228  -0.838  26.032  0.00  0.00    +0.005 A 
ATOM     24  C   UNL     1      -4.458  -1.747  23.700  0.00  0.00    +0.000 A 
ATOM     25  C   UNL     1      -2.760  -1.990  25.401  0.00  0.00    +0.000 A 
ATOM     27  C   UNL     1      -3.376  -2.445  24.235  0.00  0.00    +0.000 A 
ENDBRANCH  16  18
ENDBRANCH   1  16
ENDBRANCH   6   1
BRANCH   7  15
ATOM     15  C   UNL     1       1.624  -0.448  22.224  0.00  0.00    +0.146 C 
BRANCH  15  17
ATOM      8  N   UNL     1       4.847   1.318  23.115  0.00  0.00    -0.263 NA
ATOM     17  C   UNL     1       2.987  -0.193  22.803  0.00  0.00    -0.012 A 
ATOM     19  C   UNL     1       3.650  -1.172  23.534  0.00  0.00    +0.008 A 
ATOM     20  C   UNL     1       3.623   1.024  22.623  0.00  0.00    +0.115 A 
ATOM     23  C   UNL     1       4.911  -0.908  24.056  0.00  0.00    +0.020 A 
ATOM     26  C   UNL     1       5.460   0.342  23.821  0.00  0.00    +0.111 A 
ENDBRANCH  15  17
ENDBRANCH   7  15
TORSDOF 5
ENDMDL
