MODEL 1
REMARK VINA RESULT:       0.4      0.000      0.000
REMARK  Name = 38027552
REMARK  12 active torsions:
REMARK  status: ('A' for Active; 'I' for Inactive)
REMARK    1  A    between atoms: N_4  and  C_14
REMARK    2  A    between atoms: N_5  and  C_21
REMARK    3  A    between atoms: C_7  and  C_11
REMARK    4  A    between atoms: C_8  and  C_14
REMARK    5  A    between atoms: C_10  and  C_15
REMARK    6  A    between atoms: C_11  and  C_16
REMARK    7  A    between atoms: C_11  and  C_17
REMARK    8  A    between atoms: C_12  and  C_18
REMARK    9  A    between atoms: C_15  and  C_19
REMARK   10  A    between atoms: C_20  and  C_22
REMARK   11  A    between atoms: C_21  and  C_23
REMARK   12  A    between atoms: C_30  and  C_34
REMARK                            x       y       z     vdW  Elec       q    Type
REMARK                         _______ _______ _______ _____ _____    ______ ____
ROOT
ATOM      7  C   UNL     1      -4.369   2.256  25.490  0.00  0.00    +0.000 C 
ATOM      8  C   UNL     1      -4.020   2.480  23.997  0.00  0.00    +0.032 C 
ATOM      9  C   UNL     1      -4.357   3.591  26.250  0.00  0.00    +0.012 C 
ATOM     10  C   UNL     1      -2.990   4.296  26.168  0.00  0.00    +0.023 C 
ATOM     12  C   UNL     1      -2.452   4.319  24.752  0.00  0.00    -0.073 C 
ATOM     13  C   UNL     1      -2.934   3.510  23.792  0.00  0.00    -0.022 C 
ATOM     18  C   UNL     1      -1.376   5.326  24.453  0.00  0.00    +0.039 C 
ENDROOT
BRANCH   7  11
ATOM     11  C   UNL     1      -5.729   1.574  25.659  0.00  0.00    -0.013 C 
ATOM     16  C   UNL     1      -6.325   1.908  27.024  0.00  0.00    +0.007 C 
ATOM     17  C   UNL     1      -6.677   1.991  24.539  0.00  0.00    +0.007 C 
ENDBRANCH   7  11
BRANCH   8  14
ATOM     14  C   UNL     1      -3.613   1.167  23.321  0.00  0.00    +0.112 C 
BRANCH  14   4
ATOM      3  O   UNL     1      -1.759   1.328  21.134  0.00  0.00    -0.270 OA
ATOM      4  N   UNL     1      -2.198   0.979  23.386  0.00  0.00    -0.311 N 
ATOM     20  C   UNL     1      -1.367   1.076  22.271  0.00  0.00    +0.244 C 
ATOM     35  H   UNL     1      -1.804   0.758  24.294  0.00  0.00    +0.149 HD
BRANCH  20  22
ATOM     22  C   UNL     1       0.079   0.826  22.502  0.00  0.00    +0.037 A 
ATOM     24  C   UNL     1       0.739  -0.171  21.783  0.00  0.00    +0.014 A 
ATOM     25  C   UNL     1       0.778   1.591  23.435  0.00  0.00    +0.014 A 
ATOM     28  C   UNL     1       2.098  -0.404  21.998  0.00  0.00    +0.019 A 
ATOM     29  C   UNL     1       2.137   1.358  23.650  0.00  0.00    +0.019 A 
ATOM     30  C   UNL     1       2.797   0.361  22.932  0.00  0.00    +0.052 A 
BRANCH  30  34
ATOM      6  N   UNL     1       5.318  -0.071  23.333  0.00  0.00    -0.191 NA
ATOM     34  C   UNL     1       4.188   0.122  23.153  0.00  0.00    +0.099 C 
ENDBRANCH  30  34
ENDBRANCH  20  22
ENDBRANCH  14   4
ENDBRANCH   8  14
BRANCH  10  15
ATOM     15  C   UNL     1      -1.981   3.656  27.128  0.00  0.00    +0.103 C 
BRANCH  15  19
ATOM      2  O   UNL     1      -0.089   3.120  25.719  0.00  0.00    -0.276 OA
ATOM      5  N   UNL     1      -1.350   1.401  26.645  0.00  0.00    -0.311 N 
ATOM     19  C   UNL     1      -1.024   2.730  26.412  0.00  0.00    +0.214 C 
ATOM     36  H   UNL     1      -2.141   1.176  27.241  0.00  0.00    +0.149 HD
BRANCH   5  21
ATOM     21  C   UNL     1      -0.607   0.297  26.083  0.00  0.00    +0.139 C 
BRANCH  21  23
ATOM      1  F   UNL     1      -4.001  -3.775  24.183  0.00  0.00    -0.205 F 
ATOM     23  C   UNL     1      -1.513  -0.789  25.576  0.00  0.00    -0.030 A 
ATOM     26  C   UNL     1      -1.027  -1.737  24.675  0.00  0.00    +0.008 A 
ATOM     27  C   UNL     1      -2.838  -0.849  26.006  0.00  0.00    +0.008 A 
ATOM     31  C   UNL     1      -1.867  -2.746  24.204  0.00  0.00    +0.038 A 
ATOM     32  C   UNL     1      -3.678  -1.859  25.535  0.00  0.00    +0.038 A 
ATOM     33  C   UNL     1      -3.194  -2.807  24.634  0.00  0.00    +0.123 A 
ENDBRANCH  21  23
ENDBRANCH   5  21
ENDBRANCH  15  19
ENDBRANCH  10  15
TORSDOF 9
ENDMDL
MODEL 2
REMARK VINA RESULT:       0.7      1.927      3.315
REMARK  Name = 38027552
REMARK  12 active torsions:
REMARK  status: ('A' for Active; 'I' for Inactive)
REMARK    1  A    between atoms: N_4  and  C_14
REMARK    2  A    between atoms: N_5  and  C_21
REMARK    3  A    between atoms: C_7  and  C_11
REMARK    4  A    between atoms: C_8  and  C_14
REMARK    5  A    between atoms: C_10  and  C_15
REMARK    6  A    between atoms: C_11  and  C_16
REMARK    7  A    between atoms: C_11  and  C_17
REMARK    8  A    between atoms: C_12  and  C_18
REMARK    9  A    between atoms: C_15  and  C_19
REMARK   10  A    between atoms: C_20  and  C_22
REMARK   11  A    between atoms: C_21  and  C_23
REMARK   12  A    between atoms: C_30  and  C_34
REMARK                            x       y       z     vdW  Elec       q    Type
REMARK                         _______ _______ _______ _____ _____    ______ ____
ROOT
ATOM      7  C   UNL     1      -2.947   2.725  23.537  0.00  0.00    +0.000 C 
ATOM      8  C   UNL     1      -1.625   2.501  24.313  0.00  0.00    +0.032 C 
ATOM      9  C   UNL     1      -3.569   4.078  23.915  0.00  0.00    +0.012 C 
ATOM     10  C   UNL     1      -3.863   4.183  25.424  0.00  0.00    +0.023 C 
ATOM     12  C   UNL     1      -2.687   3.721  26.260  0.00  0.00    -0.073 C 
ATOM     13  C   UNL     1      -1.690   2.982  25.743  0.00  0.00    -0.022 C 
ATOM     18  C   UNL     1      -2.661   4.167  27.696  0.00  0.00    +0.039 C 
ENDROOT
BRANCH   7  11
ATOM     11  C   UNL     1      -2.737   2.656  22.022  0.00  0.00    -0.013 C 
ATOM     16  C   UNL     1      -2.597   1.205  21.570  0.00  0.00    +0.007 C 
ATOM     17  C   UNL     1      -3.889   3.340  21.293  0.00  0.00    +0.007 C 
ENDBRANCH   7  11
BRANCH   8  14
ATOM     14  C   UNL     1      -1.212   1.026  24.288  0.00  0.00    +0.112 C 
BRANCH  14   4
ATOM      3  O   UNL     1       0.168  -0.694  22.449  0.00  0.00    -0.270 OA
ATOM      4  N   UNL     1       0.203   0.896  24.139  0.00  0.00    -0.311 N 
ATOM     20  C   UNL     1       0.793   0.033  23.216  0.00  0.00    +0.244 C 
ATOM     35  H   UNL     1       0.784   1.461  24.748  0.00  0.00    +0.149 HD
BRANCH  20  22
ATOM     22  C   UNL     1       2.278  -0.005  23.204  0.00  0.00    +0.037 A 
ATOM     24  C   UNL     1       3.001   1.095  22.742  0.00  0.00    +0.014 A 
ATOM     25  C   UNL     1       2.950  -1.139  23.658  0.00  0.00    +0.014 A 
ATOM     28  C   UNL     1       4.395   1.060  22.733  0.00  0.00    +0.019 A 
ATOM     29  C   UNL     1       4.345  -1.175  23.648  0.00  0.00    +0.019 A 
ATOM     30  C   UNL     1       5.067  -0.075  23.186  0.00  0.00    +0.052 A 
BRANCH  30  34
ATOM      6  N   UNL     1       7.656  -0.141  23.169  0.00  0.00    -0.191 NA
ATOM     34  C   UNL     1       6.495  -0.111  23.176  0.00  0.00    +0.099 C 
ENDBRANCH  30  34
ENDBRANCH  20  22
ENDBRANCH  14   4
ENDBRANCH   8  14
BRANCH  10  15
ATOM     15  C   UNL     1      -5.136   3.413  25.793  0.00  0.00    +0.103 C 
BRANCH  15  19
ATOM      2  O   UNL     1      -5.926   2.242  23.829  0.00  0.00    -0.276 OA
ATOM      5  N   UNL     1      -4.796   1.067  25.485  0.00  0.00    -0.311 N 
ATOM     19  C   UNL     1      -5.345   2.204  24.909  0.00  0.00    +0.214 C 
ATOM     36  H   UNL     1      -4.325   1.136  26.382  0.00  0.00    +0.149 HD
BRANCH   5  21
ATOM     21  C   UNL     1      -4.849  -0.236  24.862  0.00  0.00    +0.139 C 
BRANCH  21  23
ATOM      1  F   UNL     1      -0.014  -3.058  25.471  0.00  0.00    -0.205 F 
ATOM     23  C   UNL     1      -3.559  -0.988  25.024  0.00  0.00    -0.030 A 
ATOM     26  C   UNL     1      -2.705  -0.688  26.086  0.00  0.00    +0.008 A 
ATOM     27  C   UNL     1      -3.216  -1.987  24.114  0.00  0.00    +0.008 A 
ATOM     31  C   UNL     1      -1.508  -1.386  26.237  0.00  0.00    +0.038 A 
ATOM     32  C   UNL     1      -2.018  -2.687  24.265  0.00  0.00    +0.038 A 
ATOM     33  C   UNL     1      -1.163  -2.386  25.326  0.00  0.00    +0.123 A 
ENDBRANCH  21  23
ENDBRANCH   5  21
ENDBRANCH  15  19
ENDBRANCH  10  15
TORSDOF 9
ENDMDL
MODEL 3
REMARK VINA RESULT:       1.1      2.616      5.425
REMARK  Name = 38027552
REMARK  12 active torsions:
REMARK  status: ('A' for Active; 'I' for Inactive)
REMARK    1  A    between atoms: N_4  and  C_14
REMARK    2  A    between atoms: N_5  and  C_21
REMARK    3  A    between atoms: C_7  and  C_11
REMARK    4  A    between atoms: C_8  and  C_14
REMARK    5  A    between atoms: C_10  and  C_15
REMARK    6  A    between atoms: C_11  and  C_16
REMARK    7  A    between atoms: C_11  and  C_17
REMARK    8  A    between atoms: C_12  and  C_18
REMARK    9  A    between atoms: C_15  and  C_19
REMARK   10  A    between atoms: C_20  and  C_22
REMARK   11  A    between atoms: C_21  and  C_23
REMARK   12  A    between atoms: C_30  and  C_34
REMARK                            x       y       z     vdW  Elec       q    Type
REMARK                         _______ _______ _______ _____ _____    ______ ____
ROOT
ATOM      7  C   UNL     1      -1.892   0.560  24.943  0.00  0.00    +0.000 C 
ATOM      8  C   UNL     1      -0.961  -0.634  24.614  0.00  0.00    +0.032 C 
ATOM      9  C   UNL     1      -2.905   0.168  26.028  0.00  0.00    +0.012 C 
ATOM     10  C   UNL     1      -3.778  -1.029  25.606  0.00  0.00    +0.023 C 
ATOM     12  C   UNL     1      -2.947  -2.152  25.019  0.00  0.00    -0.073 C 
ATOM     13  C   UNL     1      -1.686  -1.960  24.594  0.00  0.00    -0.022 C 
ATOM     18  C   UNL     1      -3.584  -3.513  24.973  0.00  0.00    +0.039 C 
ENDROOT
BRANCH   7  11
ATOM     11  C   UNL     1      -1.100   1.791  25.392  0.00  0.00    -0.013 C 
ATOM     16  C   UNL     1      -0.161   1.430  26.539  0.00  0.00    +0.007 C 
ATOM     17  C   UNL     1      -0.320   2.379  24.220  0.00  0.00    +0.007 C 
ENDBRANCH   7  11
BRANCH   8  14
ATOM     14  C   UNL     1      -0.242  -0.425  23.277  0.00  0.00    +0.112 C 
BRANCH  14   4
ATOM      3  O   UNL     1       1.758  -0.283  21.223  0.00  0.00    -0.270 OA
ATOM      4  N   UNL     1       1.171  -0.344  23.467  0.00  0.00    -0.311 N 
ATOM     20  C   UNL     1       2.077  -0.278  22.409  0.00  0.00    +0.244 C 
ATOM     35  H   UNL     1       1.508  -0.345  24.424  0.00  0.00    +0.149 HD
BRANCH  20  22
ATOM     22  C   UNL     1       3.516  -0.226  22.774  0.00  0.00    +0.037 A 
ATOM     24  C   UNL     1       4.096  -1.280  23.481  0.00  0.00    +0.014 A 
ATOM     25  C   UNL     1       4.288   0.876  22.408  0.00  0.00    +0.014 A 
ATOM     28  C   UNL     1       5.448  -1.232  23.821  0.00  0.00    +0.019 A 
ATOM     29  C   UNL     1       5.641   0.924  22.750  0.00  0.00    +0.019 A 
ATOM     30  C   UNL     1       6.220  -0.130  23.456  0.00  0.00    +0.052 A 
BRANCH  30  34
ATOM      6  N   UNL     1       8.729  -0.039  24.089  0.00  0.00    -0.191 NA
ATOM     34  C   UNL     1       7.604  -0.080  23.805  0.00  0.00    +0.099 C 
ENDBRANCH  30  34
ENDBRANCH  20  22
ENDBRANCH  14   4
ENDBRANCH   8  14
BRANCH  10  15
ATOM     15  C   UNL     1      -4.879  -0.594  24.632  0.00  0.00    +0.103 C 
BRANCH  15  19
ATOM      2  O   UNL     1      -4.335   1.466  23.486  0.00  0.00    -0.276 OA
ATOM      5  N   UNL     1      -5.612   1.538  25.427  0.00  0.00    -0.311 N 
ATOM     19  C   UNL     1      -4.892   0.903  24.423  0.00  0.00    +0.214 C 
ATOM     36  H   UNL     1      -6.046   0.985  26.160  0.00  0.00    +0.149 HD
BRANCH   5  21
ATOM     21  C   UNL     1      -5.790   2.971  25.483  0.00  0.00    +0.139 C 
BRANCH  21  23
ATOM      1  F   UNL     1      -0.882   5.716  25.180  0.00  0.00    -0.205 F 
ATOM     23  C   UNL     1      -4.481   3.703  25.402  0.00  0.00    -0.030 A 
ATOM     26  C   UNL     1      -3.684   3.835  26.539  0.00  0.00    +0.008 A 
ATOM     27  C   UNL     1      -4.062   4.251  24.190  0.00  0.00    +0.008 A 
ATOM     31  C   UNL     1      -2.469   4.515  26.465  0.00  0.00    +0.038 A 
ATOM     32  C   UNL     1      -2.846   4.931  24.115  0.00  0.00    +0.038 A 
ATOM     33  C   UNL     1      -2.049   5.063  25.252  0.00  0.00    +0.123 A 
ENDBRANCH  21  23
ENDBRANCH   5  21
ENDBRANCH  15  19
ENDBRANCH  10  15
TORSDOF 9
ENDMDL
MODEL 4
REMARK VINA RESULT:       3.5      2.739      5.198
REMARK  Name = 38027552
REMARK  12 active torsions:
REMARK  status: ('A' for Active; 'I' for Inactive)
REMARK    1  A    between atoms: N_4  and  C_14
REMARK    2  A    between atoms: N_5  and  C_21
REMARK    3  A    between atoms: C_7  and  C_11
REMARK    4  A    between atoms: C_8  and  C_14
REMARK    5  A    between atoms: C_10  and  C_15
REMARK    6  A    between atoms: C_11  and  C_16
REMARK    7  A    between atoms: C_11  and  C_17
REMARK    8  A    between atoms: C_12  and  C_18
REMARK    9  A    between atoms: C_15  and  C_19
REMARK   10  A    between atoms: C_20  and  C_22
REMARK   11  A    between atoms: C_21  and  C_23
REMARK   12  A    between atoms: C_30  and  C_34
REMARK                            x       y       z     vdW  Elec       q    Type
REMARK                         _______ _______ _______ _____ _____    ______ ____
ROOT
ATOM      7  C   UNL     1      -3.472   2.205  23.737  0.00  0.00    +0.000 C 
ATOM      8  C   UNL     1      -4.326   3.409  24.208  0.00  0.00    +0.032 C 
ATOM      9  C   UNL     1      -4.335   0.938  23.644  0.00  0.00    +0.012 C 
ATOM     10  C   UNL     1      -4.987   0.576  24.992  0.00  0.00    +0.023 C 
ATOM     12  C   UNL     1      -5.624   1.783  25.651  0.00  0.00    -0.073 C 
ATOM     13  C   UNL     1      -5.327   3.040  25.278  0.00  0.00    -0.022 C 
ATOM     18  C   UNL     1      -6.647   1.509  26.720  0.00  0.00    +0.039 C 
ENDROOT
BRANCH   7  11
ATOM     11  C   UNL     1      -2.802   2.477  22.387  0.00  0.00    -0.013 C 
ATOM     16  C   UNL     1      -2.302   1.175  21.770  0.00  0.00    +0.007 C 
ATOM     17  C   UNL     1      -3.772   3.184  21.445  0.00  0.00    +0.007 C 
ENDBRANCH   7  11
BRANCH   8  14
ATOM     14  C   UNL     1      -3.440   4.553  24.711  0.00  0.00    +0.112 C 
BRANCH  14   4
ATOM      3  O   UNL     1      -0.638   4.005  24.411  0.00  0.00    -0.270 OA
ATOM      4  N   UNL     1      -2.547   4.096  25.728  0.00  0.00    -0.311 N 
ATOM     20  C   UNL     1      -1.193   3.853  25.496  0.00  0.00    +0.244 C 
ATOM     35  H   UNL     1      -2.939   3.940  26.650  0.00  0.00    +0.149 HD
BRANCH  20  22
ATOM     22  C   UNL     1      -0.405   3.354  26.652  0.00  0.00    +0.037 A 
ATOM     24  C   UNL     1       0.976   3.196  26.539  0.00  0.00    +0.014 A 
ATOM     25  C   UNL     1      -1.046   3.047  27.852  0.00  0.00    +0.014 A 
ATOM     28  C   UNL     1       1.717   2.730  27.625  0.00  0.00    +0.019 A 
ATOM     29  C   UNL     1      -0.305   2.580  28.939  0.00  0.00    +0.019 A 
ATOM     30  C   UNL     1       1.076   2.421  28.825  0.00  0.00    +0.052 A 
BRANCH  30  34
ATOM      6  N   UNL     1       2.449   1.555  30.842  0.00  0.00    -0.191 NA
ATOM     34  C   UNL     1       1.834   1.943  29.938  0.00  0.00    +0.099 C 
ENDBRANCH  30  34
ENDBRANCH  20  22
ENDBRANCH  14   4
ENDBRANCH   8  14
BRANCH  10  15
ATOM     15  C   UNL     1      -3.977  -0.092  25.932  0.00  0.00    +0.103 C 
BRANCH  15  19
ATOM      2  O   UNL     1      -3.519  -2.279  25.005  0.00  0.00    -0.276 OA
ATOM      5  N   UNL     1      -1.907  -0.612  24.854  0.00  0.00    -0.311 N 
ATOM     19  C   UNL     1      -3.141  -1.132  25.220  0.00  0.00    +0.214 C 
ATOM     36  H   UNL     1      -1.687   0.356  25.070  0.00  0.00    +0.149 HD
BRANCH   5  21
ATOM     21  C   UNL     1      -0.901  -1.382  24.160  0.00  0.00    +0.139 C 
BRANCH  21  23
ATOM      1  F   UNL     1       3.469   1.797  22.579  0.00  0.00    -0.205 F 
ATOM     23  C   UNL     1       0.264  -0.534  23.739  0.00  0.00    -0.030 A 
ATOM     26  C   UNL     1       1.237  -1.060  22.888  0.00  0.00    +0.008 A 
ATOM     27  C   UNL     1       0.374   0.778  24.197  0.00  0.00    +0.008 A 
ATOM     31  C   UNL     1       2.319  -0.273  22.496  0.00  0.00    +0.038 A 
ATOM     32  C   UNL     1       1.457   1.566  23.805  0.00  0.00    +0.038 A 
ATOM     33  C   UNL     1       2.430   1.040  22.955  0.00  0.00    +0.123 A 
ENDBRANCH  21  23
ENDBRANCH   5  21
ENDBRANCH  15  19
ENDBRANCH  10  15
TORSDOF 9
ENDMDL
