MODEL 1
REMARK VINA RESULT:       3.6      0.000      0.000
REMARK  Name = 11882508
REMARK  5 active torsions:
REMARK  status: ('A' for Active; 'I' for Inactive)
REMARK    1  A    between atoms: N_6  and  C_13
REMARK    2  A    between atoms: CA_17  and  CB_20
REMARK    3  A    between atoms: CB_20  and  CG_22
REMARK    4  A    between atoms: C_21  and  C_24
REMARK    5  A    between atoms: C_23  and  C_27
REMARK                            x       y       z     vdW  Elec       q    Type
REMARK                         _______ _______ _______ _____ _____    ______ ____
ROOT
ATOM      1  O   PHE A   2      -4.229  -2.192  24.134  0.00  0.00    -0.274 OA
ATOM      2  O   UNK A   1      -1.346   2.220  23.374  0.00  0.00    -0.274 OA
ATOM      5  N   UNK A   1      -2.198  -1.064  24.290  0.00  0.00    -0.288 N 
ATOM      7  N   PHE A   2      -3.381   1.155  23.414  0.00  0.00    -0.302 N 
ATOM     12  C   UNK A   1      -1.555   0.191  24.688  0.00  0.00    +0.164 C 
ATOM     13  C   UNK A   1       0.539  -0.709  23.549  0.00  0.00    +0.113 C 
ATOM     14  C   UNK A   1      -0.025   0.082  24.746  0.00  0.00    +0.059 C 
ATOM     15  C   UNK A   1      -0.171  -2.065  23.335  0.00  0.00    +0.046 C 
ATOM     16  C   UNK A   1      -1.367  -2.263  24.263  0.00  0.00    +0.110 C 
ATOM     17  CA  PHE A   2      -4.279   0.203  24.048  0.00  0.00    +0.163 C 
ATOM     18  C   PHE A   2      -3.582  -1.147  24.134  0.00  0.00    +0.237 C 
ATOM     19  C   UNK A   1      -2.040   1.271  23.733  0.00  0.00    +0.234 C 
ATOM     31  H   PHE A   2      -3.787   1.864  22.811  0.00  0.00    +0.150 HD
ENDROOT
BRANCH  13   6
ATOM      6  N   UNK A   1       2.000  -0.844  23.623  0.00  0.00    -0.236 N 
ATOM      8  N   UNK A   1       2.546  -2.028  23.929  0.00  0.00    -0.064 NA
ATOM      9  N   UNK A   1       3.864  -1.859  23.923  0.00  0.00    -0.124 NA
ATOM     21  C   UNK A   1       2.936   0.114  23.413  0.00  0.00    +0.156 A 
ATOM     23  C   UNK A   1       4.119  -0.553  23.609  0.00  0.00    +0.179 A 
BRANCH  21  24
ATOM      3  O   UNK A   1       3.462   2.169  22.370  0.00  0.00    -0.269 OA
ATOM     10  N   UNK A   1       1.504   2.065  23.532  0.00  0.00    -0.324 N 
ATOM     24  C   UNK A   1       2.688   1.477  23.072  0.00  0.00    +0.262 C 
ATOM     32  H   UNK A   1       0.833   1.552  24.095  0.00  0.00    +0.145 HD
ATOM     33  H   UNK A   1       1.279   3.028  23.309  0.00  0.00    +0.145 HD
ENDBRANCH  21  24
BRANCH  23  27
ATOM      4  O   UNK A   1       6.282  -0.403  22.667  0.00  0.00    -0.269 OA
ATOM     11  N   UNK A   1       5.804   0.995  24.402  0.00  0.00    -0.324 N 
ATOM     27  C   UNK A   1       5.444  -0.022  23.513  0.00  0.00    +0.264 C 
ATOM     34  H   UNK A   1       5.161   1.351  25.103  0.00  0.00    +0.145 HD
ATOM     35  H   UNK A   1       6.729   1.411  24.371  0.00  0.00    +0.145 HD
ENDBRANCH  23  27
ENDBRANCH  13   6
BRANCH  17  20
ATOM     20  CB  PHE A   2      -4.802   0.677  25.394  0.00  0.00    +0.067 C 
BRANCH  20  22
ATOM     22  CG  PHE A   2      -4.710   2.174  25.534  0.00  0.00    -0.045 A 
ATOM     25  CD1 PHE A   2      -5.834   2.953  25.291  0.00  0.00    +0.004 A 
ATOM     26  CD2 PHE A   2      -3.505   2.752  25.905  0.00  0.00    +0.004 A 
ATOM     28  CE1 PHE A   2      -5.747   4.339  25.420  0.00  0.00    +0.000 A 
ATOM     29  CE2 PHE A   2      -3.420   4.138  26.035  0.00  0.00    +0.000 A 
ATOM     30  CZ  PHE A   2      -4.542   4.931  25.793  0.00  0.00    +0.000 A 
ENDBRANCH  20  22
ENDBRANCH  17  20
TORSDOF 5
ENDMDL
MODEL 2
REMARK VINA RESULT:       3.7      2.524      8.044
REMARK  Name = 11882508
REMARK  5 active torsions:
REMARK  status: ('A' for Active; 'I' for Inactive)
REMARK    1  A    between atoms: N_6  and  C_13
REMARK    2  A    between atoms: CA_17  and  CB_20
REMARK    3  A    between atoms: CB_20  and  CG_22
REMARK    4  A    between atoms: C_21  and  C_24
REMARK    5  A    between atoms: C_23  and  C_27
REMARK                            x       y       z     vdW  Elec       q    Type
REMARK                         _______ _______ _______ _____ _____    ______ ____
ROOT
ATOM      1  O   PHE A   2      -1.104  -2.907  23.631  0.00  0.00    -0.274 OA
ATOM      2  O   UNK A   1      -0.062   1.957  25.532  0.00  0.00    -0.274 OA
ATOM      5  N   UNK A   1      -1.754  -0.696  23.967  0.00  0.00    -0.288 N 
ATOM      7  N   PHE A   2       0.636  -0.170  25.015  0.00  0.00    -0.302 N 
ATOM     12  C   UNK A   1      -1.324   0.702  23.883  0.00  0.00    +0.164 C 
ATOM     13  C   UNK A   1      -3.460   1.266  25.153  0.00  0.00    +0.113 C 
ATOM     14  C   UNK A   1      -2.488   1.691  24.034  0.00  0.00    +0.059 C 
ATOM     15  C   UNK A   1      -3.910  -0.208  25.031  0.00  0.00    +0.046 C 
ATOM     16  C   UNK A   1      -3.188  -0.960  23.916  0.00  0.00    +0.110 C 
ATOM     17  CA  PHE A   2       0.614  -1.304  24.106  0.00  0.00    +0.163 C 
ATOM     18  C   PHE A   2      -0.830  -1.739  23.901  0.00  0.00    +0.237 C 
ATOM     19  C   UNK A   1      -0.232   0.904  24.921  0.00  0.00    +0.234 C 
ATOM     31  H   PHE A   2       1.416  -0.092  25.661  0.00  0.00    +0.150 HD
ENDROOT
BRANCH  13   6
ATOM      6  N   UNK A   1      -4.593   2.193  25.274  0.00  0.00    -0.236 N 
ATOM      8  N   UNK A   1      -5.834   1.714  25.421  0.00  0.00    -0.064 NA
ATOM      9  N   UNK A   1      -6.646   2.763  25.506  0.00  0.00    -0.124 NA
ATOM     21  C   UNK A   1      -4.564   3.548  25.260  0.00  0.00    +0.156 A 
ATOM     23  C   UNK A   1      -5.884   3.893  25.409  0.00  0.00    +0.179 A 
BRANCH  21  24
ATOM      3  O   UNK A   1      -3.121   4.998  24.075  0.00  0.00    -0.269 OA
ATOM     10  N   UNK A   1      -2.549   4.488  26.222  0.00  0.00    -0.324 N 
ATOM     24  C   UNK A   1      -3.404   4.368  25.120  0.00  0.00    +0.262 C 
ATOM     32  H   UNK A   1      -2.731   4.011  27.099  0.00  0.00    +0.145 HD
ATOM     33  H   UNK A   1      -1.717   5.066  26.175  0.00  0.00    +0.145 HD
ENDBRANCH  21  24
BRANCH  23  27
ATOM      4  O   UNK A   1      -6.421   6.009  24.501  0.00  0.00    -0.269 OA
ATOM     11  N   UNK A   1      -7.053   5.610  26.653  0.00  0.00    -0.324 N 
ATOM     27  C   UNK A   1      -6.438   5.210  25.464  0.00  0.00    +0.264 C 
ATOM     34  H   UNK A   1      -7.106   5.001  27.464  0.00  0.00    +0.145 HD
ATOM     35  H   UNK A   1      -7.470   6.531  26.741  0.00  0.00    +0.145 HD
ENDBRANCH  23  27
ENDBRANCH  13   6
BRANCH  17  20
ATOM     20  CB  PHE A   2       1.335  -1.037  22.795  0.00  0.00    +0.067 C 
BRANCH  20  22
ATOM     22  CG  PHE A   2       2.755  -0.584  23.020  0.00  0.00    -0.045 A 
ATOM     25  CD1 PHE A   2       3.148   0.672  22.579  0.00  0.00    +0.004 A 
ATOM     26  CD2 PHE A   2       3.645  -1.428  23.667  0.00  0.00    +0.004 A 
ATOM     28  CE1 PHE A   2       4.462   1.091  22.788  0.00  0.00    +0.000 A 
ATOM     29  CE2 PHE A   2       4.959  -1.008  23.877  0.00  0.00    +0.000 A 
ATOM     30  CZ  PHE A   2       5.367   0.252  23.438  0.00  0.00    +0.000 A 
ENDBRANCH  20  22
ENDBRANCH  17  20
TORSDOF 5
ENDMDL
MODEL 3
REMARK VINA RESULT:       4.7      2.090      8.658
REMARK  Name = 11882508
REMARK  5 active torsions:
REMARK  status: ('A' for Active; 'I' for Inactive)
REMARK    1  A    between atoms: N_6  and  C_13
REMARK    2  A    between atoms: CA_17  and  CB_20
REMARK    3  A    between atoms: CB_20  and  CG_22
REMARK    4  A    between atoms: C_21  and  C_24
REMARK    5  A    between atoms: C_23  and  C_27
REMARK                            x       y       z     vdW  Elec       q    Type
REMARK                         _______ _______ _______ _____ _____    ______ ____
ROOT
ATOM      1  O   PHE A   2       3.203   2.238  22.944  0.00  0.00    -0.274 OA
ATOM      2  O   UNK A   1      -0.720  -1.363  22.920  0.00  0.00    -0.274 OA
ATOM      5  N   UNK A   1       1.136   1.509  23.731  0.00  0.00    -0.288 N 
ATOM      7  N   PHE A   2       1.401  -0.726  22.309  0.00  0.00    -0.302 N 
ATOM     12  C   UNK A   1       0.388   0.353  24.231  0.00  0.00    +0.164 C 
ATOM     13  C   UNK A   1      -1.693   1.807  24.003  0.00  0.00    +0.113 C 
ATOM     14  C   UNK A   1      -0.963   0.742  24.846  0.00  0.00    +0.059 C 
ATOM     15  C   UNK A   1      -0.797   3.018  23.659  0.00  0.00    +0.046 C 
ATOM     16  C   UNK A   1       0.651   2.833  24.104  0.00  0.00    +0.110 C 
ATOM     17  CA  PHE A   2       2.656  -0.077  22.650  0.00  0.00    +0.163 C 
ATOM     18  C   PHE A   2       2.366   1.349  23.093  0.00  0.00    +0.237 C 
ATOM     19  C   UNK A   1       0.256  -0.633  23.081  0.00  0.00    +0.234 C 
ATOM     31  H   PHE A   2       1.403  -1.394  21.544  0.00  0.00    +0.150 HD
ENDROOT
BRANCH  13   6
ATOM      6  N   UNK A   1      -2.969   2.205  24.612  0.00  0.00    -0.236 N 
ATOM      8  N   UNK A   1      -3.187   3.488  24.926  0.00  0.00    -0.064 NA
ATOM      9  N   UNK A   1      -4.406   3.556  25.451  0.00  0.00    -0.124 NA
ATOM     21  C   UNK A   1      -4.027   1.415  24.919  0.00  0.00    +0.156 A 
ATOM     23  C   UNK A   1      -4.933   2.295  25.453  0.00  0.00    +0.179 A 
BRANCH  21  24
ATOM      3  O   UNK A   1      -4.336  -0.520  23.596  0.00  0.00    -0.269 OA
ATOM     10  N   UNK A   1      -3.932  -0.833  25.817  0.00  0.00    -0.324 N 
ATOM     24  C   UNK A   1      -4.118   0.006  24.712  0.00  0.00    +0.262 C 
ATOM     32  H   UNK A   1      -3.742  -0.467  26.744  0.00  0.00    +0.145 HD
ATOM     33  H   UNK A   1      -3.979  -1.841  25.720  0.00  0.00    +0.145 HD
ENDBRANCH  21  24
BRANCH  23  27
ATOM      4  O   UNK A   1      -6.547   2.052  27.164  0.00  0.00    -0.269 OA
ATOM     11  N   UNK A   1      -7.233   1.667  25.025  0.00  0.00    -0.324 N 
ATOM     27  C   UNK A   1      -6.242   2.002  25.952  0.00  0.00    +0.264 C 
ATOM     34  H   UNK A   1      -7.044   1.621  24.028  0.00  0.00    +0.145 HD
ATOM     35  H   UNK A   1      -8.179   1.459  25.325  0.00  0.00    +0.145 HD
ENDBRANCH  23  27
ENDBRANCH  13   6
BRANCH  17  20
ATOM     20  CB  PHE A   2       3.473  -0.851  23.673  0.00  0.00    +0.067 C 
BRANCH  20  22
ATOM     22  CG  PHE A   2       4.939  -0.511  23.591  0.00  0.00    -0.045 A 
ATOM     25  CD1 PHE A   2       5.782  -1.307  22.829  0.00  0.00    +0.004 A 
ATOM     26  CD2 PHE A   2       5.422   0.593  24.277  0.00  0.00    +0.004 A 
ATOM     28  CE1 PHE A   2       7.139  -0.992  22.754  0.00  0.00    +0.000 A 
ATOM     29  CE2 PHE A   2       6.779   0.908  24.200  0.00  0.00    +0.000 A 
ATOM     30  CZ  PHE A   2       7.637   0.116  23.438  0.00  0.00    +0.000 A 
ENDBRANCH  20  22
ENDBRANCH  17  20
TORSDOF 5
ENDMDL
MODEL 4
REMARK VINA RESULT:       5.0      1.689      2.330
REMARK  Name = 11882508
REMARK  5 active torsions:
REMARK  status: ('A' for Active; 'I' for Inactive)
REMARK    1  A    between atoms: N_6  and  C_13
REMARK    2  A    between atoms: CA_17  and  CB_20
REMARK    3  A    between atoms: CB_20  and  CG_22
REMARK    4  A    between atoms: C_21  and  C_24
REMARK    5  A    between atoms: C_23  and  C_27
REMARK                            x       y       z     vdW  Elec       q    Type
REMARK                         _______ _______ _______ _____ _____    ______ ____
ROOT
ATOM      1  O   PHE A   2      -5.188  -0.096  26.249  0.00  0.00    -0.274 OA
ATOM      2  O   UNK A   1      -3.323   2.551  22.021  0.00  0.00    -0.274 OA
ATOM      5  N   UNK A   1      -3.385   0.677  24.993  0.00  0.00    -0.288 N 
ATOM      7  N   PHE A   2      -5.076   1.949  23.378  0.00  0.00    -0.302 N 
ATOM     12  C   UNK A   1      -2.830   1.833  24.286  0.00  0.00    +0.164 C 
ATOM     13  C   UNK A   1      -1.093   0.221  23.349  0.00  0.00    +0.113 C 
ATOM     14  C   UNK A   1      -1.359   1.639  23.894  0.00  0.00    +0.059 C 
ATOM     15  C   UNK A   1      -1.640  -0.890  24.273  0.00  0.00    +0.046 C 
ATOM     16  C   UNK A   1      -2.447  -0.344  25.447  0.00  0.00    +0.110 C 
ATOM     17  CA  PHE A   2      -5.592   1.701  24.715  0.00  0.00    +0.163 C 
ATOM     18  C   PHE A   2      -4.723   0.648  25.387  0.00  0.00    +0.237 C 
ATOM     19  C   UNK A   1      -3.732   2.111  23.093  0.00  0.00    +0.234 C 
ATOM     31  H   PHE A   2      -5.744   2.155  22.641  0.00  0.00    +0.150 HD
ENDROOT
BRANCH  13   6
ATOM      6  N   UNK A   1       0.323   0.024  23.007  0.00  0.00    -0.236 N 
ATOM      8  N   UNK A   1       0.683  -1.000  22.225  0.00  0.00    -0.064 NA
ATOM      9  N   UNK A   1       2.003  -0.933  22.083  0.00  0.00    -0.124 NA
ATOM     21  C   UNK A   1       1.384   0.775  23.391  0.00  0.00    +0.156 A 
ATOM     23  C   UNK A   1       2.446   0.148  22.791  0.00  0.00    +0.179 A 
BRANCH  21  24
ATOM      3  O   UNK A   1       1.582   3.093  23.812  0.00  0.00    -0.269 OA
ATOM     10  N   UNK A   1       0.997   1.763  25.569  0.00  0.00    -0.324 N 
ATOM     24  C   UNK A   1       1.343   1.934  24.223  0.00  0.00    +0.262 C 
ATOM     32  H   UNK A   1       0.782   0.850  25.957  0.00  0.00    +0.145 HD
ATOM     33  H   UNK A   1       0.946   2.556  26.199  0.00  0.00    +0.145 HD
ENDBRANCH  21  24
BRANCH  23  27
ATOM      4  O   UNK A   1       4.285   1.570  22.355  0.00  0.00    -0.269 OA
ATOM     11  N   UNK A   1       4.699  -0.331  23.542  0.00  0.00    -0.324 N 
ATOM     27  C   UNK A   1       3.826   0.520  22.857  0.00  0.00    +0.264 C 
ATOM     34  H   UNK A   1       4.381  -1.192  23.977  0.00  0.00    +0.145 HD
ATOM     35  H   UNK A   1       5.685  -0.109  23.625  0.00  0.00    +0.145 HD
ENDBRANCH  23  27
ENDBRANCH  13   6
BRANCH  17  20
ATOM     20  CB  PHE A   2      -5.729   2.964  25.549  0.00  0.00    +0.067 C 
BRANCH  20  22
ATOM     22  CG  PHE A   2      -4.471   3.794  25.518  0.00  0.00    -0.045 A 
ATOM     25  CD1 PHE A   2      -3.535   3.652  26.532  0.00  0.00    +0.004 A 
ATOM     26  CD2 PHE A   2      -4.268   4.685  24.474  0.00  0.00    +0.004 A 
ATOM     28  CE1 PHE A   2      -2.372   4.421  26.503  0.00  0.00    +0.000 A 
ATOM     29  CE2 PHE A   2      -3.104   5.452  24.445  0.00  0.00    +0.000 A 
ATOM     30  CZ  PHE A   2      -2.155   5.320  25.459  0.00  0.00    +0.000 A 
ENDBRANCH  20  22
ENDBRANCH  17  20
TORSDOF 5
ENDMDL
MODEL 5
REMARK VINA RESULT:       5.2      1.489      2.095
REMARK  Name = 11882508
REMARK  5 active torsions:
REMARK  status: ('A' for Active; 'I' for Inactive)
REMARK    1  A    between atoms: N_6  and  C_13
REMARK    2  A    between atoms: CA_17  and  CB_20
REMARK    3  A    between atoms: CB_20  and  CG_22
REMARK    4  A    between atoms: C_21  and  C_24
REMARK    5  A    between atoms: C_23  and  C_27
REMARK                            x       y       z     vdW  Elec       q    Type
REMARK                         _______ _______ _______ _____ _____    ______ ____
ROOT
ATOM      1  O   PHE A   2      -3.457  -1.581  25.887  0.00  0.00    -0.274 OA
ATOM      2  O   UNK A   1      -2.205   1.925  22.078  0.00  0.00    -0.274 OA
ATOM      5  N   UNK A   1      -1.904  -0.156  24.895  0.00  0.00    -0.288 N 
ATOM      7  N   PHE A   2      -3.775   0.668  23.188  0.00  0.00    -0.302 N 
ATOM     12  C   UNK A   1      -1.698   1.181  24.332  0.00  0.00    +0.164 C 
ATOM     13  C   UNK A   1       0.542   0.304  23.491  0.00  0.00    +0.113 C 
ATOM     14  C   UNK A   1      -0.216   1.503  24.095  0.00  0.00    +0.059 C 
ATOM     15  C   UNK A   1       0.310  -1.009  24.272  0.00  0.00    +0.046 C 
ATOM     16  C   UNK A   1      -0.727  -0.866  25.382  0.00  0.00    +0.110 C 
ATOM     17  CA  PHE A   2      -4.292   0.138  24.439  0.00  0.00    +0.163 C 
ATOM     18  C   PHE A   2      -3.188  -0.646  25.133  0.00  0.00    +0.237 C 
ATOM     19  C   UNK A   1      -2.537   1.275  23.067  0.00  0.00    +0.234 C 
ATOM     31  H   PHE A   2      -4.408   0.723  22.396  0.00  0.00    +0.150 HD
ENDROOT
BRANCH  13   6
ATOM      6  N   UNK A   1       1.968   0.601  23.298  0.00  0.00    -0.236 N 
ATOM      8  N   UNK A   1       2.344   1.806  22.852  0.00  0.00    -0.064 NA
ATOM      9  N   UNK A   1       3.671   1.793  22.775  0.00  0.00    -0.124 NA
ATOM     21  C   UNK A   1       3.025  -0.217  23.520  0.00  0.00    +0.156 A 
ATOM     23  C   UNK A   1       4.103   0.562  23.180  0.00  0.00    +0.179 A 
BRANCH  21  24
ATOM      3  O   UNK A   1       1.906  -2.141  24.316  0.00  0.00    -0.269 OA
ATOM     10  N   UNK A   1       4.170  -2.276  24.084  0.00  0.00    -0.324 N 
ATOM     24  C   UNK A   1       2.970  -1.562  23.994  0.00  0.00    +0.262 C 
ATOM     32  H   UNK A   1       5.061  -1.865  23.828  0.00  0.00    +0.145 HD
ATOM     33  H   UNK A   1       4.182  -3.237  24.408  0.00  0.00    +0.145 HD
ENDBRANCH  21  24
BRANCH  23  27
ATOM      4  O   UNK A   1       6.089  -0.342  22.271  0.00  0.00    -0.269 OA
ATOM     11  N   UNK A   1       6.202   0.496  24.387  0.00  0.00    -0.324 N 
ATOM     27  C   UNK A   1       5.486   0.200  23.223  0.00  0.00    +0.264 C 
ATOM     34  H   UNK A   1       5.767   0.944  25.188  0.00  0.00    +0.145 HD
ATOM     35  H   UNK A   1       7.187   0.268  24.465  0.00  0.00    +0.145 HD
ENDBRANCH  23  27
ENDBRANCH  13   6
BRANCH  17  20
ATOM     20  CB  PHE A   2      -4.903   1.203  25.335  0.00  0.00    +0.067 C 
BRANCH  20  22
ATOM     22  CG  PHE A   2      -4.182   2.520  25.209  0.00  0.00    -0.045 A 
ATOM     25  CD1 PHE A   2      -4.467   3.355  24.137  0.00  0.00    +0.004 A 
ATOM     26  CD2 PHE A   2      -3.246   2.880  26.167  0.00  0.00    +0.004 A 
ATOM     28  CE1 PHE A   2      -3.799   4.573  24.021  0.00  0.00    +0.000 A 
ATOM     29  CE2 PHE A   2      -2.579   4.100  26.051  0.00  0.00    +0.000 A 
ATOM     30  CZ  PHE A   2      -2.857   4.947  24.978  0.00  0.00    +0.000 A 
ENDBRANCH  20  22
ENDBRANCH  17  20
TORSDOF 5
ENDMDL
MODEL 6
REMARK VINA RESULT:       6.2      2.201      8.476
REMARK  Name = 11882508
REMARK  5 active torsions:
REMARK  status: ('A' for Active; 'I' for Inactive)
REMARK    1  A    between atoms: N_6  and  C_13
REMARK    2  A    between atoms: CA_17  and  CB_20
REMARK    3  A    between atoms: CB_20  and  CG_22
REMARK    4  A    between atoms: C_21  and  C_24
REMARK    5  A    between atoms: C_23  and  C_27
REMARK                            x       y       z     vdW  Elec       q    Type
REMARK                         _______ _______ _______ _____ _____    ______ ____
ROOT
ATOM      1  O   PHE A   2       2.813   2.128  23.114  0.00  0.00    -0.274 OA
ATOM      2  O   UNK A   1      -0.626  -1.928  22.833  0.00  0.00    -0.274 OA
ATOM      5  N   UNK A   1       0.825   1.126  23.795  0.00  0.00    -0.288 N 
ATOM      7  N   PHE A   2       1.420  -1.015  22.328  0.00  0.00    -0.302 N 
ATOM     12  C   UNK A   1       0.207  -0.129  24.233  0.00  0.00    +0.164 C 
ATOM     13  C   UNK A   1      -2.028   1.063  23.956  0.00  0.00    +0.113 C 
ATOM     14  C   UNK A   1      -1.204   0.071  24.801  0.00  0.00    +0.059 C 
ATOM     15  C   UNK A   1      -1.277   2.385  23.681  0.00  0.00    +0.046 C 
ATOM     16  C   UNK A   1       0.164   2.367  24.182  0.00  0.00    +0.110 C 
ATOM     17  CA  PHE A   2       2.571  -0.227  22.738  0.00  0.00    +0.163 C 
ATOM     18  C   PHE A   2       2.088   1.139  23.205  0.00  0.00    +0.237 C 
ATOM     19  C   UNK A   1       0.244  -1.088  23.053  0.00  0.00    +0.234 C 
ATOM     31  H   PHE A   2       1.535  -1.654  21.546  0.00  0.00    +0.150 HD
ENDROOT
BRANCH  13   6
ATOM      6  N   UNK A   1      -3.366   1.281  24.521  0.00  0.00    -0.236 N 
ATOM      8  N   UNK A   1      -4.285   0.309  24.454  0.00  0.00    -0.064 NA
ATOM      9  N   UNK A   1      -5.385   0.776  25.036  0.00  0.00    -0.124 NA
ATOM     21  C   UNK A   1      -3.838   2.391  25.140  0.00  0.00    +0.156 A 
ATOM     23  C   UNK A   1      -5.127   2.049  25.461  0.00  0.00    +0.179 A 
BRANCH  21  24
ATOM      3  O   UNK A   1      -3.223   4.622  24.658  0.00  0.00    -0.269 OA
ATOM     10  N   UNK A   1      -2.257   3.648  26.479  0.00  0.00    -0.324 N 
ATOM     24  C   UNK A   1      -3.116   3.600  25.374  0.00  0.00    +0.262 C 
ATOM     32  H   UNK A   1      -2.137   2.856  27.101  0.00  0.00    +0.145 HD
ATOM     33  H   UNK A   1      -1.729   4.487  26.692  0.00  0.00    +0.145 HD
ENDBRANCH  21  24
BRANCH  23  27
ATOM      4  O   UNK A   1      -6.817   2.432  27.070  0.00  0.00    -0.269 OA
ATOM     11  N   UNK A   1      -6.229   4.187  25.741  0.00  0.00    -0.324 N 
ATOM     27  C   UNK A   1      -6.099   2.853  26.136  0.00  0.00    +0.264 C 
ATOM     34  H   UNK A   1      -5.665   4.586  24.996  0.00  0.00    +0.145 HD
ATOM     35  H   UNK A   1      -6.897   4.802  26.193  0.00  0.00    +0.145 HD
ENDBRANCH  23  27
ENDBRANCH  13   6
BRANCH  17  20
ATOM     20  CB  PHE A   2       3.438  -0.925  23.773  0.00  0.00    +0.067 C 
BRANCH  20  22
ATOM     22  CG  PHE A   2       4.888  -0.535  23.644  0.00  0.00    -0.045 A 
ATOM     25  CD1 PHE A   2       5.344   0.613  24.277  0.00  0.00    +0.004 A 
ATOM     26  CD2 PHE A   2       5.744  -1.330  22.896  0.00  0.00    +0.004 A 
ATOM     28  CE1 PHE A   2       6.686   0.974  24.156  0.00  0.00    +0.000 A 
ATOM     29  CE2 PHE A   2       7.086  -0.969  22.777  0.00  0.00    +0.000 A 
ATOM     30  CZ  PHE A   2       7.557   0.183  23.408  0.00  0.00    +0.000 A 
ENDBRANCH  20  22
ENDBRANCH  17  20
TORSDOF 5
ENDMDL
MODEL 7
REMARK VINA RESULT:       7.0      2.705      8.310
REMARK  Name = 11882508
REMARK  5 active torsions:
REMARK  status: ('A' for Active; 'I' for Inactive)
REMARK    1  A    between atoms: N_6  and  C_13
REMARK    2  A    between atoms: CA_17  and  CB_20
REMARK    3  A    between atoms: CB_20  and  CG_22
REMARK    4  A    between atoms: C_21  and  C_24
REMARK    5  A    between atoms: C_23  and  C_27
REMARK                            x       y       z     vdW  Elec       q    Type
REMARK                         _______ _______ _______ _____ _____    ______ ____
ROOT
ATOM      1  O   PHE A   2      -1.441  -2.446  23.835  0.00  0.00    -0.274 OA
ATOM      2  O   UNK A   1       0.697   2.227  25.233  0.00  0.00    -0.274 OA
ATOM      5  N   UNK A   1      -1.548  -0.120  23.890  0.00  0.00    -0.288 N 
ATOM      7  N   PHE A   2       0.875  -0.050  24.991  0.00  0.00    -0.302 N 
ATOM     12  C   UNK A   1      -0.793   1.117  23.672  0.00  0.00    +0.164 C 
ATOM     13  C   UNK A   1      -2.759   2.317  24.763  0.00  0.00    +0.113 C 
ATOM     14  C   UNK A   1      -1.689   2.363  23.654  0.00  0.00    +0.059 C 
ATOM     15  C   UNK A   1      -3.547   0.988  24.783  0.00  0.00    +0.046 C 
ATOM     16  C   UNK A   1      -3.002  -0.042  23.797  0.00  0.00    +0.110 C 
ATOM     17  CA  PHE A   2       0.600  -1.248  24.214  0.00  0.00    +0.163 C 
ATOM     18  C   PHE A   2      -0.900  -1.351  23.986  0.00  0.00    +0.237 C 
ATOM     19  C   UNK A   1       0.292   1.178  24.736  0.00  0.00    +0.234 C 
ATOM     31  H   PHE A   2       1.636  -0.082  25.663  0.00  0.00    +0.150 HD
ENDROOT
BRANCH  13   6
ATOM      6  N   UNK A   1      -3.638   3.493  24.723  0.00  0.00    -0.236 N 
ATOM      8  N   UNK A   1      -3.205   4.631  24.165  0.00  0.00    -0.064 NA
ATOM      9  N   UNK A   1      -4.194   5.512  24.267  0.00  0.00    -0.124 NA
ATOM     21  C   UNK A   1      -4.903   3.603  25.197  0.00  0.00    +0.156 A 
ATOM     23  C   UNK A   1      -5.240   4.899  24.896  0.00  0.00    +0.179 A 
BRANCH  21  24
ATOM      3  O   UNK A   1      -5.700   2.432  27.090  0.00  0.00    -0.269 OA
ATOM     10  N   UNK A   1      -6.398   1.703  25.046  0.00  0.00    -0.324 N 
ATOM     24  C   UNK A   1      -5.655   2.578  25.846  0.00  0.00    +0.262 C 
ATOM     32  H   UNK A   1      -6.410   1.778  24.034  0.00  0.00    +0.145 HD
ATOM     33  H   UNK A   1      -6.955   0.964  25.461  0.00  0.00    +0.145 HD
ENDBRANCH  21  24
BRANCH  23  27
ATOM      4  O   UNK A   1      -6.935   6.491  24.470  0.00  0.00    -0.269 OA
ATOM     11  N   UNK A   1      -7.222   5.124  26.271  0.00  0.00    -0.324 N 
ATOM     27  C   UNK A   1      -6.478   5.562  25.171  0.00  0.00    +0.264 C 
ATOM     34  H   UNK A   1      -6.905   4.367  26.869  0.00  0.00    +0.145 HD
ATOM     35  H   UNK A   1      -8.110   5.555  26.504  0.00  0.00    +0.145 HD
ENDBRANCH  23  27
ENDBRANCH  13   6
BRANCH  17  20
ATOM     20  CB  PHE A   2       1.394  -1.318  22.920  0.00  0.00    +0.067 C 
BRANCH  20  22
ATOM     22  CG  PHE A   2       2.776  -0.739  23.079  0.00  0.00    -0.045 A 
ATOM     25  CD1 PHE A   2       3.742  -1.458  23.769  0.00  0.00    +0.004 A 
ATOM     26  CD2 PHE A   2       3.062   0.503  22.532  0.00  0.00    +0.004 A 
ATOM     28  CE1 PHE A   2       5.020  -0.921  23.917  0.00  0.00    +0.000 A 
ATOM     29  CE2 PHE A   2       4.341   1.039  22.678  0.00  0.00    +0.000 A 
ATOM     30  CZ  PHE A   2       5.321   0.326  23.370  0.00  0.00    +0.000 A 
ENDBRANCH  20  22
ENDBRANCH  17  20
TORSDOF 5
ENDMDL
