MODEL 1
REMARK VINA RESULT:       0.1      0.000      0.000
REMARK  Name = 51137899
REMARK  4 active torsions:
REMARK  status: ('A' for Active; 'I' for Inactive)
REMARK    1  A    between atoms: N_2  and  C_6
REMARK    2  A    between atoms: N_4  and  C_19
REMARK    3  A    between atoms: C_7  and  C_15
REMARK    4  A    between atoms: C_16  and  C_20
REMARK                            x       y       z     vdW  Elec       q    Type
REMARK                         _______ _______ _______ _____ _____    ______ ____
ROOT
ATOM      2  N   UNL     1      17.290  -5.886  26.015  0.00  0.00    -0.299 NA
ATOM      7  C   UNL     1      16.571  -6.447  28.176  0.00  0.00    +0.070 C 
ATOM      8  C   UNL     1      16.936  -5.250  27.287  0.00  0.00    +0.096 C 
ATOM      9  C   UNL     1      16.270  -6.914  25.812  0.00  0.00    +0.085 C 
ATOM     10  C   UNL     1      16.149  -7.550  27.191  0.00  0.00    +0.028 C 
ENDROOT
BRANCH   7  15
ATOM      4  N   UNL     1      15.792  -5.214  30.232  0.00  0.00    -0.330 N 
ATOM      5  N   UNL     1      14.326  -6.604  29.305  0.00  0.00    -0.232 NA
ATOM     15  C   UNL     1      15.540  -6.106  29.228  0.00  0.00    +0.115 A 
ATOM     17  C   UNL     1      14.665  -5.129  31.009  0.00  0.00    +0.069 A 
ATOM     18  C   UNL     1      13.765  -6.006  30.410  0.00  0.00    +0.089 A 
ATOM     19  C   UNL     1      17.023  -4.486  30.441  0.00  0.00    +0.150 C 
ATOM     21  C   UNL     1      14.366  -4.384  32.150  0.00  0.00    +0.028 A 
ATOM     22  C   UNL     1      12.486  -6.161  30.969  0.00  0.00    +0.030 A 
ATOM     23  C   UNL     1      13.087  -4.551  32.693  0.00  0.00    +0.002 A 
ATOM     24  C   UNL     1      12.162  -5.423  32.115  0.00  0.00    +0.002 A 
ENDBRANCH   7  15
BRANCH   2   6
ATOM      1  O   UNL     1      14.880  -0.949  23.254  0.00  0.00    -0.276 OA
ATOM      3  N   UNL     1      16.063  -2.949  23.236  0.00  0.00    -0.302 N 
ATOM      6  C   UNL     1      17.345  -4.930  24.912  0.00  0.00    +0.060 C 
ATOM     11  C   UNL     1      16.346  -5.329  23.819  0.00  0.00    +0.038 C 
ATOM     12  C   UNL     1      17.043  -3.516  25.425  0.00  0.00    +0.038 C 
ATOM     13  C   UNL     1      16.317  -4.290  22.697  0.00  0.00    +0.109 C 
ATOM     14  C   UNL     1      17.001  -2.516  24.272  0.00  0.00    +0.109 C 
ATOM     16  C   UNL     1      15.052  -2.087  22.810  0.00  0.00    +0.212 C 
ATOM     20  C   UNL     1      14.124  -2.609  21.743  0.00  0.00    +0.109 C 
ENDBRANCH   2   6
TORSDOF 2
ENDMDL
MODEL 2
REMARK VINA RESULT:       2.2      2.167      2.841
REMARK  Name = 51137899
REMARK  4 active torsions:
REMARK  status: ('A' for Active; 'I' for Inactive)
REMARK    1  A    between atoms: N_2  and  C_6
REMARK    2  A    between atoms: N_4  and  C_19
REMARK    3  A    between atoms: C_7  and  C_15
REMARK    4  A    between atoms: C_16  and  C_20
REMARK                            x       y       z     vdW  Elec       q    Type
REMARK                         _______ _______ _______ _____ _____    ______ ____
ROOT
ATOM      2  N   UNL     1      16.517  -5.236  26.793  0.00  0.00    -0.299 NA
ATOM      7  C   UNL     1      16.055  -6.254  28.855  0.00  0.00    +0.070 C 
ATOM      8  C   UNL     1      15.380  -5.590  27.646  0.00  0.00    +0.096 C 
ATOM      9  C   UNL     1      17.399  -6.402  26.838  0.00  0.00    +0.085 C 
ATOM     10  C   UNL     1      17.399  -6.772  28.315  0.00  0.00    +0.028 C 
ENDROOT
BRANCH   7  15
ATOM      4  N   UNL     1      14.134  -6.974  30.319  0.00  0.00    -0.330 N 
ATOM      5  N   UNL     1      15.330  -8.604  29.394  0.00  0.00    -0.232 NA
ATOM     15  C   UNL     1      15.186  -7.303  29.512  0.00  0.00    +0.115 A 
ATOM     17  C   UNL     1      13.558  -8.142  30.751  0.00  0.00    +0.069 A 
ATOM     18  C   UNL     1      14.323  -9.144  30.160  0.00  0.00    +0.089 A 
ATOM     19  C   UNL     1      13.699  -5.638  30.658  0.00  0.00    +0.150 C 
ATOM     21  C   UNL     1      12.467  -8.399  31.582  0.00  0.00    +0.028 A 
ATOM     22  C   UNL     1      13.995 -10.488  30.402  0.00  0.00    +0.030 A 
ATOM     23  C   UNL     1      12.155  -9.743  31.812  0.00  0.00    +0.002 A 
ATOM     24  C   UNL     1      12.903 -10.771  31.234  0.00  0.00    +0.002 A 
ENDBRANCH   7  15
BRANCH   2   6
ATOM      1  O   UNL     1      17.405  -1.803  21.770  0.00  0.00    -0.276 OA
ATOM      3  N   UNL     1      16.069  -3.052  23.204  0.00  0.00    -0.302 N 
ATOM      6  C   UNL     1      16.108  -4.899  25.432  0.00  0.00    +0.060 C 
ATOM     11  C   UNL     1      15.223  -3.647  25.443  0.00  0.00    +0.038 C 
ATOM     12  C   UNL     1      17.345  -4.674  24.552  0.00  0.00    +0.038 C 
ATOM     13  C   UNL     1      14.861  -3.219  24.020  0.00  0.00    +0.109 C 
ATOM     14  C   UNL     1      16.940  -4.227  23.148  0.00  0.00    +0.109 C 
ATOM     16  C   UNL     1      16.401  -1.907  22.479  0.00  0.00    +0.212 C 
ATOM     20  C   UNL     1      15.455  -0.739  22.591  0.00  0.00    +0.109 C 
ENDBRANCH   2   6
TORSDOF 2
ENDMDL
MODEL 3
REMARK VINA RESULT:       3.4     16.381     18.072
REMARK  Name = 51137899
REMARK  4 active torsions:
REMARK  status: ('A' for Active; 'I' for Inactive)
REMARK    1  A    between atoms: N_2  and  C_6
REMARK    2  A    between atoms: N_4  and  C_19
REMARK    3  A    between atoms: C_7  and  C_15
REMARK    4  A    between atoms: C_16  and  C_20
REMARK                            x       y       z     vdW  Elec       q    Type
REMARK                         _______ _______ _______ _____ _____    ______ ____
ROOT
ATOM      2  N   UNL     1      -0.340  -1.664  24.556  0.00  0.00    -0.299 NA
ATOM      7  C   UNL     1      -2.193  -0.685  25.610  0.00  0.00    +0.070 C 
ATOM      8  C   UNL     1      -0.799  -0.364  25.053  0.00  0.00    +0.096 C 
ATOM      9  C   UNL     1      -1.500  -2.239  23.876  0.00  0.00    +0.085 C 
ATOM     10  C   UNL     1      -2.642  -1.938  24.839  0.00  0.00    +0.028 C 
ENDROOT
BRANCH   7  15
ATOM      4  N   UNL     1      -2.702   1.779  25.469  0.00  0.00    -0.330 N 
ATOM      5  N   UNL     1      -4.455   0.413  25.504  0.00  0.00    -0.232 NA
ATOM     15  C   UNL     1      -3.144   0.487  25.528  0.00  0.00    +0.115 A 
ATOM     17  C   UNL     1      -3.803   2.594  25.402  0.00  0.00    +0.069 A 
ATOM     18  C   UNL     1      -4.884   1.718  25.426  0.00  0.00    +0.089 A 
ATOM     19  C   UNL     1      -1.324   2.214  25.475  0.00  0.00    +0.150 C 
ATOM     21  C   UNL     1      -3.941   3.981  25.326  0.00  0.00    +0.028 A 
ATOM     22  C   UNL     1      -6.188   2.238  25.371  0.00  0.00    +0.030 A 
ATOM     23  C   UNL     1      -5.246   4.481  25.272  0.00  0.00    +0.002 A 
ATOM     24  C   UNL     1      -6.351   3.627  25.294  0.00  0.00    +0.002 A 
ENDBRANCH   7  15
BRANCH   2   6
ATOM      1  O   UNL     1       5.430   0.301  23.753  0.00  0.00    -0.276 OA
ATOM      3  N   UNL     1       3.318  -0.268  22.968  0.00  0.00    -0.302 N 
ATOM      6  C   UNL     1       0.820  -1.546  23.676  0.00  0.00    +0.060 C 
ATOM     11  C   UNL     1       0.855  -0.153  23.035  0.00  0.00    +0.038 C 
ATOM     12  C   UNL     1       2.109  -1.806  24.467  0.00  0.00    +0.038 C 
ATOM     13  C   UNL     1       2.113   0.027  22.184  0.00  0.00    +0.109 C 
ATOM     14  C   UNL     1       3.339  -1.594  23.587  0.00  0.00    +0.109 C 
ATOM     16  C   UNL     1       4.412   0.585  23.117  0.00  0.00    +0.212 C 
ATOM     20  C   UNL     1       4.311   1.935  22.453  0.00  0.00    +0.109 C 
ENDBRANCH   2   6
TORSDOF 2
ENDMDL
MODEL 4
REMARK VINA RESULT:       3.5     16.091     18.364
REMARK  Name = 51137899
REMARK  4 active torsions:
REMARK  status: ('A' for Active; 'I' for Inactive)
REMARK    1  A    between atoms: N_2  and  C_6
REMARK    2  A    between atoms: N_4  and  C_19
REMARK    3  A    between atoms: C_7  and  C_15
REMARK    4  A    between atoms: C_16  and  C_20
REMARK                            x       y       z     vdW  Elec       q    Type
REMARK                         _______ _______ _______ _____ _____    ______ ____
ROOT
ATOM      2  N   UNL     1      -2.496  -0.936  24.397  0.00  0.00    -0.299 NA
ATOM      7  C   UNL     1      -0.276  -1.685  24.276  0.00  0.00    +0.070 C 
ATOM      8  C   UNL     1      -1.337  -0.888  23.503  0.00  0.00    +0.096 C 
ATOM      9  C   UNL     1      -1.951  -0.700  25.734  0.00  0.00    +0.085 C 
ATOM     10  C   UNL     1      -0.702  -1.571  25.750  0.00  0.00    +0.028 C 
ENDROOT
BRANCH   7  15
ATOM      4  N   UNL     1       1.401  -0.011  23.417  0.00  0.00    -0.330 N 
ATOM      5  N   UNL     1       2.231  -1.908  24.226  0.00  0.00    -0.232 NA
ATOM     15  C   UNL     1       1.134  -1.226  23.983  0.00  0.00    +0.115 A 
ATOM     17  C   UNL     1       2.762   0.099  23.286  0.00  0.00    +0.069 A 
ATOM     18  C   UNL     1       3.256  -1.097  23.797  0.00  0.00    +0.089 A 
ATOM     19  C   UNL     1       0.427   0.984  23.027  0.00  0.00    +0.150 C 
ATOM     21  C   UNL     1       3.577   1.112  22.779  0.00  0.00    +0.028 A 
ATOM     22  C   UNL     1       4.644  -1.314  23.811  0.00  0.00    +0.030 A 
ATOM     23  C   UNL     1       4.956   0.879  22.801  0.00  0.00    +0.002 A 
ATOM     24  C   UNL     1       5.483  -0.311  23.307  0.00  0.00    +0.002 A 
ENDBRANCH   7  15
BRANCH   2   6
ATOM      1  O   UNL     1      -4.297   4.940  24.246  0.00  0.00    -0.276 OA
ATOM      3  N   UNL     1      -4.719   2.657  24.332  0.00  0.00    -0.302 N 
ATOM      6  C   UNL     1      -3.522   0.039  24.033  0.00  0.00    +0.060 C 
ATOM     11  C   UNL     1      -4.364   0.400  25.263  0.00  0.00    +0.038 C 
ATOM     12  C   UNL     1      -2.867   1.295  23.444  0.00  0.00    +0.038 C 
ATOM     13  C   UNL     1      -5.382   1.491  24.928  0.00  0.00    +0.109 C 
ATOM     14  C   UNL     1      -3.914   2.365  23.144  0.00  0.00    +0.109 C 
ATOM     16  C   UNL     1      -4.837   3.971  24.785  0.00  0.00    +0.212 C 
ATOM     20  C   UNL     1      -5.679   4.188  26.016  0.00  0.00    +0.109 C 
ENDBRANCH   2   6
TORSDOF 2
ENDMDL
