MODEL 1
REMARK VINA RESULT:      -2.0      0.000      0.000
REMARK  Name = 26742374
REMARK  10 active torsions:
REMARK  status: ('A' for Active; 'I' for Inactive)
REMARK    1  A    between atoms: S_1  and  C_23
REMARK    2  A    between atoms: S_1  and  C_29
REMARK    3  A    between atoms: O_3  and  C_31
REMARK    4  A    between atoms: N_6  and  C_16
REMARK    5  A    between atoms: C_10  and  C_17
REMARK    6  A    between atoms: C_11  and  C_16
REMARK    7  A    between atoms: C_19  and  C_22
REMARK    8  A    between atoms: C_20  and  C_23
REMARK    9  A    between atoms: C_21  and  C_24
REMARK   10  A    between atoms: C_29  and  C_31
REMARK                            x       y       z     vdW  Elec       q    Type
REMARK                         _______ _______ _______ _____ _____    ______ ____
ROOT
ATOM      5  N   UNL     1      -1.835  -2.293  23.817  0.00  0.00    -0.297 NA
ATOM      9  C   UNL     1      -3.792  -1.954  25.501  0.00  0.00    +0.002 C 
ATOM     10  C   UNL     1      -3.840  -0.872  24.386  0.00  0.00    +0.055 C 
ATOM     11  C   UNL     1      -1.314  -2.301  25.210  0.00  0.00    +0.074 C 
ATOM     12  C   UNL     1      -2.421  -1.897  26.207  0.00  0.00    +0.024 C 
ATOM     13  C   UNL     1      -3.883  -3.323  24.796  0.00  0.00    +0.019 C 
ATOM     14  C   UNL     1      -2.538  -1.015  23.546  0.00  0.00    +0.094 C 
ATOM     15  C   UNL     1      -2.815  -3.398  23.692  0.00  0.00    +0.085 C 
ENDROOT
BRANCH  10  17
ATOM      7  N   UNL     1      -5.340   0.847  25.266  0.00  0.00    -0.237 NA
ATOM      8  N   UNL     1      -4.646   3.140  25.537  0.00  0.00    -0.232 NA
ATOM     17  C   UNL     1      -4.107   0.570  24.794  0.00  0.00    +0.050 A 
ATOM     18  C   UNL     1      -3.105   1.510  24.665  0.00  0.00    +0.052 A 
ATOM     19  C   UNL     1      -3.436   2.792  25.056  0.00  0.00    +0.075 A 
ATOM     21  C   UNL     1      -5.538   2.133  25.615  0.00  0.00    +0.127 A 
ATOM     24  C   UNL     1      -6.890   2.480  26.140  0.00  0.00    +0.088 C 
BRANCH  19  22
ATOM     22  C   UNL     1      -2.477   3.868  24.971  0.00  0.00    +0.000 A 
ATOM     25  C   UNL     1      -2.890   5.187  25.157  0.00  0.00    +0.010 A 
ATOM     26  C   UNL     1      -1.137   3.587  24.703  0.00  0.00    +0.010 A 
ATOM     27  C   UNL     1      -1.963   6.226  25.076  0.00  0.00    +0.001 A 
ATOM     28  C   UNL     1      -0.211   4.626  24.621  0.00  0.00    +0.001 A 
ATOM     30  C   UNL     1      -0.623   5.946  24.807  0.00  0.00    +0.000 A 
ENDBRANCH  19  22
ENDBRANCH  10  17
BRANCH  11  16
ATOM     16  C   UNL     1      -0.059  -1.440  25.368  0.00  0.00    +0.123 C 
BRANCH  16   6
ATOM      2  O   UNL     1       0.398   0.989  23.863  0.00  0.00    -0.275 OA
ATOM      6  N   UNL     1       0.632  -1.311  24.123  0.00  0.00    -0.313 N 
ATOM     20  C   UNL     1       0.809  -0.097  23.460  0.00  0.00    +0.223 C 
ATOM     32  H   UNL     1       1.003  -2.158  23.703  0.00  0.00    +0.149 HD
BRANCH  20  23
ATOM     23  C   UNL     1       1.557  -0.229  22.155  0.00  0.00    +0.165 C 
BRANCH  23   1
ATOM      1  S   UNL     1       3.159   0.596  22.311  0.00  0.00    -0.140 S 
BRANCH   1  29
ATOM     29  C   UNL     1       4.005  -0.646  23.318  0.00  0.00    +0.189 C 
BRANCH  29  31
ATOM      4  O   UNL     1       6.373  -0.257  23.104  0.00  0.00    -0.250 OA
ATOM     31  C   UNL     1       5.342  -0.114  23.747  0.00  0.00    +0.315 C 
BRANCH  31   3
ATOM      3  O   UNL     1       5.285   0.559  24.924  0.00  0.00    -0.480 OA
ATOM     33  H   UNL     1       5.909   0.194  25.586  0.00  0.00    +0.295 HD
ENDBRANCH  31   3
ENDBRANCH  29  31
ENDBRANCH   1  29
ENDBRANCH  23   1
ENDBRANCH  20  23
ENDBRANCH  16   6
ENDBRANCH  11  16
TORSDOF 9
ENDMDL
MODEL 2
REMARK VINA RESULT:       0.2      2.486      3.128
REMARK  Name = 26742374
REMARK  10 active torsions:
REMARK  status: ('A' for Active; 'I' for Inactive)
REMARK    1  A    between atoms: S_1  and  C_23
REMARK    2  A    between atoms: S_1  and  C_29
REMARK    3  A    between atoms: O_3  and  C_31
REMARK    4  A    between atoms: N_6  and  C_16
REMARK    5  A    between atoms: C_10  and  C_17
REMARK    6  A    between atoms: C_11  and  C_16
REMARK    7  A    between atoms: C_19  and  C_22
REMARK    8  A    between atoms: C_20  and  C_23
REMARK    9  A    between atoms: C_21  and  C_24
REMARK   10  A    between atoms: C_29  and  C_31
REMARK                            x       y       z     vdW  Elec       q    Type
REMARK                         _______ _______ _______ _____ _____    ______ ____
ROOT
ATOM      5  N   UNL     1      -2.055  -2.193  23.752  0.00  0.00    -0.297 NA
ATOM      9  C   UNL     1      -3.358  -1.635  25.936  0.00  0.00    +0.002 C 
ATOM     10  C   UNL     1      -3.898  -0.789  24.750  0.00  0.00    +0.055 C 
ATOM     11  C   UNL     1      -1.099  -1.911  24.856  0.00  0.00    +0.074 C 
ATOM     12  C   UNL     1      -1.845  -1.379  26.098  0.00  0.00    +0.024 C 
ATOM     13  C   UNL     1      -3.527  -3.116  25.540  0.00  0.00    +0.019 C 
ATOM     14  C   UNL     1      -2.947  -1.026  23.542  0.00  0.00    +0.094 C 
ATOM     15  C   UNL     1      -2.890  -3.348  24.159  0.00  0.00    +0.085 C 
ENDROOT
BRANCH  10  17
ATOM      7  N   UNL     1      -5.411   1.016  25.409  0.00  0.00    -0.237 NA
ATOM      8  N   UNL     1      -4.723   3.326  25.423  0.00  0.00    -0.232 NA
ATOM     17  C   UNL     1      -4.172   0.689  24.986  0.00  0.00    +0.050 A 
ATOM     18  C   UNL     1      -3.170   1.612  24.762  0.00  0.00    +0.052 A 
ATOM     19  C   UNL     1      -3.507   2.928  24.999  0.00  0.00    +0.075 A 
ATOM     21  C   UNL     1      -5.614   2.333  25.606  0.00  0.00    +0.127 A 
ATOM     24  C   UNL     1      -6.973   2.734  26.073  0.00  0.00    +0.088 C 
BRANCH  19  22
ATOM     22  C   UNL     1      -2.549   3.990  24.801  0.00  0.00    +0.000 A 
ATOM     25  C   UNL     1      -2.666   5.179  25.522  0.00  0.00    +0.010 A 
ATOM     26  C   UNL     1      -1.506   3.826  23.890  0.00  0.00    +0.010 A 
ATOM     27  C   UNL     1      -1.739   6.203  25.332  0.00  0.00    +0.001 A 
ATOM     28  C   UNL     1      -0.579   4.852  23.700  0.00  0.00    +0.001 A 
ATOM     30  C   UNL     1      -0.696   6.041  24.421  0.00  0.00    +0.000 A 
ENDBRANCH  19  22
ENDBRANCH  10  17
BRANCH  11  16
ATOM     16  C   UNL     1       0.031  -0.975  24.423  0.00  0.00    +0.123 C 
BRANCH  16   6
ATOM      2  O   UNL     1       1.342   1.512  23.737  0.00  0.00    -0.275 OA
ATOM      6  N   UNL     1      -0.025   0.260  25.141  0.00  0.00    -0.313 N 
ATOM     20  C   UNL     1       0.640   1.418  24.741  0.00  0.00    +0.223 C 
ATOM     32  H   UNL     1      -0.576   0.281  25.995  0.00  0.00    +0.149 HD
BRANCH  20  23
ATOM     23  C   UNL     1       0.436   2.583  25.679  0.00  0.00    +0.165 C 
BRANCH  23   1
ATOM      1  S   UNL     1       0.084   1.948  27.336  0.00  0.00    -0.140 S 
BRANCH   1  29
ATOM     29  C   UNL     1       1.499   2.661  28.206  0.00  0.00    +0.189 C 
BRANCH  29  31
ATOM      4  O   UNL     1       0.641   2.851  30.449  0.00  0.00    -0.250 OA
ATOM     31  C   UNL     1       1.414   2.317  29.665  0.00  0.00    +0.315 C 
BRANCH  31   3
ATOM      3  O   UNL     1       2.279   1.335  30.024  0.00  0.00    -0.480 OA
ATOM     33  H   UNL     1       2.406   1.296  30.995  0.00  0.00    +0.295 HD
ENDBRANCH  31   3
ENDBRANCH  29  31
ENDBRANCH   1  29
ENDBRANCH  23   1
ENDBRANCH  20  23
ENDBRANCH  16   6
ENDBRANCH  11  16
TORSDOF 9
ENDMDL
MODEL 3
REMARK VINA RESULT:       0.6      2.741      5.932
REMARK  Name = 26742374
REMARK  10 active torsions:
REMARK  status: ('A' for Active; 'I' for Inactive)
REMARK    1  A    between atoms: S_1  and  C_23
REMARK    2  A    between atoms: S_1  and  C_29
REMARK    3  A    between atoms: O_3  and  C_31
REMARK    4  A    between atoms: N_6  and  C_16
REMARK    5  A    between atoms: C_10  and  C_17
REMARK    6  A    between atoms: C_11  and  C_16
REMARK    7  A    between atoms: C_19  and  C_22
REMARK    8  A    between atoms: C_20  and  C_23
REMARK    9  A    between atoms: C_21  and  C_24
REMARK   10  A    between atoms: C_29  and  C_31
REMARK                            x       y       z     vdW  Elec       q    Type
REMARK                         _______ _______ _______ _____ _____    ______ ____
ROOT
ATOM      5  N   UNL     1      -3.664  -1.564  25.933  0.00  0.00    -0.297 NA
ATOM      9  C   UNL     1      -2.889  -1.698  23.450  0.00  0.00    +0.002 C 
ATOM     10  C   UNL     1      -1.674  -1.450  24.387  0.00  0.00    +0.055 C 
ATOM     11  C   UNL     1      -4.503  -0.671  25.089  0.00  0.00    +0.074 C 
ATOM     12  C   UNL     1      -3.930  -0.578  23.659  0.00  0.00    +0.024 C 
ATOM     13  C   UNL     1      -3.544  -3.017  23.910  0.00  0.00    +0.019 C 
ATOM     14  C   UNL     1      -2.236  -1.181  25.813  0.00  0.00    +0.094 C 
ATOM     15  C   UNL     1      -3.819  -2.947  25.423  0.00  0.00    +0.085 C 
ENDROOT
BRANCH  10  17
ATOM      7  N   UNL     1      -1.112   0.814  23.653  0.00  0.00    -0.237 NA
ATOM      8  N   UNL     1       1.158   1.492  23.205  0.00  0.00    -0.232 NA
ATOM     17  C   UNL     1      -0.644  -0.411  23.968  0.00  0.00    +0.050 A 
ATOM     18  C   UNL     1       0.692  -0.756  23.925  0.00  0.00    +0.052 A 
ATOM     19  C   UNL     1       1.555   0.246  23.532  0.00  0.00    +0.075 A 
ATOM     21  C   UNL     1      -0.170   1.705  23.286  0.00  0.00    +0.127 A 
ATOM     24  C   UNL     1      -0.648   3.071  22.929  0.00  0.00    +0.088 C 
BRANCH  19  22
ATOM     22  C   UNL     1       2.978   0.013  23.446  0.00  0.00    +0.000 A 
ATOM     25  C   UNL     1       3.823   1.023  22.985  0.00  0.00    +0.010 A 
ATOM     26  C   UNL     1       3.506  -1.220  23.825  0.00  0.00    +0.010 A 
ATOM     27  C   UNL     1       5.197   0.798  22.903  0.00  0.00    +0.001 A 
ATOM     28  C   UNL     1       4.880  -1.445  23.743  0.00  0.00    +0.001 A 
ATOM     30  C   UNL     1       5.726  -0.436  23.281  0.00  0.00    +0.000 A 
ENDBRANCH  19  22
ENDBRANCH  10  17
BRANCH  11  16
ATOM     16  C   UNL     1      -4.698   0.711  25.718  0.00  0.00    +0.123 C 
BRANCH  16   6
ATOM      2  O   UNL     1      -5.126   3.573  25.737  0.00  0.00    -0.275 OA
ATOM      6  N   UNL     1      -3.948   1.703  25.012  0.00  0.00    -0.313 N 
ATOM     20  C   UNL     1      -4.221   3.068  25.076  0.00  0.00    +0.223 C 
ATOM     32  H   UNL     1      -3.180   1.383  24.428  0.00  0.00    +0.149 HD
BRANCH  20  23
ATOM     23  C   UNL     1      -3.297   3.907  24.225  0.00  0.00    +0.165 C 
BRANCH  23   1
ATOM      1  S   UNL     1      -2.047   4.666  25.290  0.00  0.00    -0.140 S 
BRANCH   1  29
ATOM     29  C   UNL     1      -1.824   3.304  26.459  0.00  0.00    +0.189 C 
BRANCH  29  31
ATOM      4  O   UNL     1       0.545   3.462  26.049  0.00  0.00    -0.250 OA
ATOM     31  C   UNL     1      -0.423   2.776  26.349  0.00  0.00    +0.315 C 
BRANCH  31   3
ATOM      3  O   UNL     1      -0.339   1.451  26.633  0.00  0.00    -0.480 OA
ATOM     33  H   UNL     1      -0.617   0.896  25.875  0.00  0.00    +0.295 HD
ENDBRANCH  31   3
ENDBRANCH  29  31
ENDBRANCH   1  29
ENDBRANCH  23   1
ENDBRANCH  20  23
ENDBRANCH  16   6
ENDBRANCH  11  16
TORSDOF 9
ENDMDL
MODEL 4
REMARK VINA RESULT:       1.2      3.120      5.648
REMARK  Name = 26742374
REMARK  10 active torsions:
REMARK  status: ('A' for Active; 'I' for Inactive)
REMARK    1  A    between atoms: S_1  and  C_23
REMARK    2  A    between atoms: S_1  and  C_29
REMARK    3  A    between atoms: O_3  and  C_31
REMARK    4  A    between atoms: N_6  and  C_16
REMARK    5  A    between atoms: C_10  and  C_17
REMARK    6  A    between atoms: C_11  and  C_16
REMARK    7  A    between atoms: C_19  and  C_22
REMARK    8  A    between atoms: C_20  and  C_23
REMARK    9  A    between atoms: C_21  and  C_24
REMARK   10  A    between atoms: C_29  and  C_31
REMARK                            x       y       z     vdW  Elec       q    Type
REMARK                         _______ _______ _______ _____ _____    ______ ____
ROOT
ATOM      5  N   UNL     1      -3.162  -2.284  26.094  0.00  0.00    -0.297 NA
ATOM      9  C   UNL     1      -2.479  -2.014  23.596  0.00  0.00    +0.002 C 
ATOM     10  C   UNL     1      -1.279  -1.684  24.527  0.00  0.00    +0.055 C 
ATOM     11  C   UNL     1      -4.162  -1.446  25.382  0.00  0.00    +0.074 C 
ATOM     12  C   UNL     1      -3.671  -1.103  23.959  0.00  0.00    +0.024 C 
ATOM     13  C   UNL     1      -2.902  -3.463  23.913  0.00  0.00    +0.019 C 
ATOM     14  C   UNL     1      -1.816  -1.669  25.987  0.00  0.00    +0.094 C 
ATOM     15  C   UNL     1      -3.122  -3.608  25.429  0.00  0.00    +0.085 C 
ENDROOT
BRANCH  10  17
ATOM      7  N   UNL     1       0.752  -0.672  23.615  0.00  0.00    -0.237 NA
ATOM      8  N   UNL     1       1.113   1.712  23.620  0.00  0.00    -0.232 NA
ATOM     17  C   UNL     1      -0.439  -0.455  24.210  0.00  0.00    +0.050 A 
ATOM     18  C   UNL     1      -0.916   0.799  24.536  0.00  0.00    +0.052 A 
ATOM     19  C   UNL     1      -0.088   1.855  24.215  0.00  0.00    +0.075 A 
ATOM     21  C   UNL     1       1.466   0.440  23.352  0.00  0.00    +0.127 A 
ATOM     24  C   UNL     1       2.791   0.241  22.696  0.00  0.00    +0.088 C 
BRANCH  19  22
ATOM     22  C   UNL     1      -0.471   3.216  24.504  0.00  0.00    +0.000 A 
ATOM     25  C   UNL     1      -0.010   4.257  23.698  0.00  0.00    +0.010 A 
ATOM     26  C   UNL     1      -1.303   3.490  25.590  0.00  0.00    +0.010 A 
ATOM     27  C   UNL     1      -0.381   5.572  23.978  0.00  0.00    +0.001 A 
ATOM     28  C   UNL     1      -1.673   4.806  25.870  0.00  0.00    +0.001 A 
ATOM     30  C   UNL     1      -1.212   5.847  25.064  0.00  0.00    +0.000 A 
ENDBRANCH  19  22
ENDBRANCH  10  17
BRANCH  11  16
ATOM     16  C   UNL     1      -4.542  -0.192  26.172  0.00  0.00    +0.123 C 
BRANCH  16   6
ATOM      2  O   UNL     1      -6.354   2.023  26.603  0.00  0.00    -0.275 OA
ATOM      6  N   UNL     1      -4.785   0.911  25.295  0.00  0.00    -0.313 N 
ATOM     20  C   UNL     1      -5.679   1.942  25.579  0.00  0.00    +0.223 C 
ATOM     32  H   UNL     1      -4.278   0.929  24.414  0.00  0.00    +0.149 HD
BRANCH  20  23
ATOM     23  C   UNL     1      -5.769   2.978  24.484  0.00  0.00    +0.165 C 
BRANCH  23   1
ATOM      1  S   UNL     1      -4.155   3.773  24.294  0.00  0.00    -0.140 S 
BRANCH   1  29
ATOM     29  C   UNL     1      -3.959   3.561  22.509  0.00  0.00    +0.189 C 
BRANCH  29  31
ATOM      4  O   UNL     1      -3.199   1.321  22.968  0.00  0.00    -0.250 OA
ATOM     31  C   UNL     1      -3.187   2.303  22.237  0.00  0.00    +0.315 C 
BRANCH  31   3
ATOM      3  O   UNL     1      -2.480   2.361  21.079  0.00  0.00    -0.480 OA
ATOM     33  H   UNL     1      -2.294   1.468  20.719  0.00  0.00    +0.295 HD
ENDBRANCH  31   3
ENDBRANCH  29  31
ENDBRANCH   1  29
ENDBRANCH  23   1
ENDBRANCH  20  23
ENDBRANCH  16   6
ENDBRANCH  11  16
TORSDOF 9
ENDMDL
MODEL 5
REMARK VINA RESULT:       1.2      2.726      6.060
REMARK  Name = 26742374
REMARK  10 active torsions:
REMARK  status: ('A' for Active; 'I' for Inactive)
REMARK    1  A    between atoms: S_1  and  C_23
REMARK    2  A    between atoms: S_1  and  C_29
REMARK    3  A    between atoms: O_3  and  C_31
REMARK    4  A    between atoms: N_6  and  C_16
REMARK    5  A    between atoms: C_10  and  C_17
REMARK    6  A    between atoms: C_11  and  C_16
REMARK    7  A    between atoms: C_19  and  C_22
REMARK    8  A    between atoms: C_20  and  C_23
REMARK    9  A    between atoms: C_21  and  C_24
REMARK   10  A    between atoms: C_29  and  C_31
REMARK                            x       y       z     vdW  Elec       q    Type
REMARK                         _______ _______ _______ _____ _____    ______ ____
ROOT
ATOM      5  N   UNL     1      -5.113   2.883  24.289  0.00  0.00    -0.297 NA
ATOM      9  C   UNL     1      -3.467   4.393  25.627  0.00  0.00    +0.002 C 
ATOM     10  C   UNL     1      -2.705   3.594  24.533  0.00  0.00    +0.055 C 
ATOM     11  C   UNL     1      -5.311   2.681  25.749  0.00  0.00    +0.074 C 
ATOM     12  C   UNL     1      -4.211   3.408  26.553  0.00  0.00    +0.024 C 
ATOM     13  C   UNL     1      -4.539   5.231  24.900  0.00  0.00    +0.019 C 
ATOM     14  C   UNL     1      -3.709   2.576  23.920  0.00  0.00    +0.094 C 
ATOM     15  C   UNL     1      -5.370   4.311  23.988  0.00  0.00    +0.085 C 
ENDROOT
BRANCH  10  17
ATOM      7  N   UNL     1      -1.020   3.011  26.207  0.00  0.00    -0.237 NA
ATOM      8  N   UNL     1       0.986   1.799  25.641  0.00  0.00    -0.232 NA
ATOM     17  C   UNL     1      -1.381   2.944  24.909  0.00  0.00    +0.050 A 
ATOM     18  C   UNL     1      -0.622   2.331  23.932  0.00  0.00    +0.052 A 
ATOM     19  C   UNL     1       0.563   1.771  24.361  0.00  0.00    +0.075 A 
ATOM     21  C   UNL     1       0.158   2.426  26.499  0.00  0.00    +0.127 A 
ATOM     24  C   UNL     1       0.592   2.479  27.925  0.00  0.00    +0.088 C 
BRANCH  19  22
ATOM     22  C   UNL     1       1.448   1.101  23.438  0.00  0.00    +0.000 A 
ATOM     25  C   UNL     1       0.945   0.135  22.566  0.00  0.00    +0.010 A 
ATOM     26  C   UNL     1       2.805   1.421  23.417  0.00  0.00    +0.010 A 
ATOM     27  C   UNL     1       1.800  -0.511  21.673  0.00  0.00    +0.001 A 
ATOM     28  C   UNL     1       3.660   0.774  22.525  0.00  0.00    +0.001 A 
ATOM     30  C   UNL     1       3.158  -0.192  21.652  0.00  0.00    +0.000 A 
ENDBRANCH  19  22
ENDBRANCH  10  17
BRANCH  11  16
ATOM     16  C   UNL     1      -5.411   1.202  26.126  0.00  0.00    +0.123 C 
BRANCH  16   6
ATOM      2  O   UNL     1      -3.675  -1.109  26.267  0.00  0.00    -0.275 OA
ATOM      6  N   UNL     1      -4.988   0.369  25.043  0.00  0.00    -0.313 N 
ATOM     20  C   UNL     1      -4.146  -0.731  25.196  0.00  0.00    +0.223 C 
ATOM     32  H   UNL     1      -5.319   0.607  24.112  0.00  0.00    +0.149 HD
BRANCH  20  23
ATOM     23  C   UNL     1      -3.833  -1.435  23.898  0.00  0.00    +0.165 C 
BRANCH  23   1
ATOM      1  S   UNL     1      -2.616  -2.735  24.214  0.00  0.00    -0.140 S 
BRANCH   1  29
ATOM     29  C   UNL     1      -1.114  -1.734  24.096  0.00  0.00    +0.189 C 
BRANCH  29  31
ATOM      4  O   UNL     1       0.459  -2.498  25.753  0.00  0.00    -0.250 OA
ATOM     31  C   UNL     1      -0.422  -1.713  25.427  0.00  0.00    +0.315 C 
BRANCH  31   3
ATOM      3  O   UNL     1      -0.866  -0.716  26.234  0.00  0.00    -0.480 OA
ATOM     33  H   UNL     1      -0.507   0.157  25.970  0.00  0.00    +0.295 HD
ENDBRANCH  31   3
ENDBRANCH  29  31
ENDBRANCH   1  29
ENDBRANCH  23   1
ENDBRANCH  20  23
ENDBRANCH  16   6
ENDBRANCH  11  16
TORSDOF 9
ENDMDL
MODEL 6
REMARK VINA RESULT:       1.9      2.914      4.634
REMARK  Name = 26742374
REMARK  10 active torsions:
REMARK  status: ('A' for Active; 'I' for Inactive)
REMARK    1  A    between atoms: S_1  and  C_23
REMARK    2  A    between atoms: S_1  and  C_29
REMARK    3  A    between atoms: O_3  and  C_31
REMARK    4  A    between atoms: N_6  and  C_16
REMARK    5  A    between atoms: C_10  and  C_17
REMARK    6  A    between atoms: C_11  and  C_16
REMARK    7  A    between atoms: C_19  and  C_22
REMARK    8  A    between atoms: C_20  and  C_23
REMARK    9  A    between atoms: C_21  and  C_24
REMARK   10  A    between atoms: C_29  and  C_31
REMARK                            x       y       z     vdW  Elec       q    Type
REMARK                         _______ _______ _______ _____ _____    ______ ____
ROOT
ATOM      5  N   UNL     1      -5.313   1.325  23.946  0.00  0.00    -0.297 NA
ATOM      9  C   UNL     1      -4.429   1.983  26.306  0.00  0.00    +0.002 C 
ATOM     10  C   UNL     1      -3.777   2.875  25.212  0.00  0.00    +0.055 C 
ATOM     11  C   UNL     1      -4.861   0.111  24.677  0.00  0.00    +0.074 C 
ATOM     12  C   UNL     1      -4.147   0.499  25.989  0.00  0.00    +0.024 C 
ATOM     13  C   UNL     1      -5.954   2.188  26.196  0.00  0.00    +0.019 C 
ATOM     14  C   UNL     1      -4.194   2.293  23.831  0.00  0.00    +0.094 C 
ATOM     15  C   UNL     1      -6.394   1.957  24.739  0.00  0.00    +0.085 C 
ENDROOT
BRANCH  10  17
ATOM      7  N   UNL     1      -1.690   3.642  24.195  0.00  0.00    -0.237 NA
ATOM      8  N   UNL     1       0.403   3.630  25.391  0.00  0.00    -0.232 NA
ATOM     17  C   UNL     1      -2.281   3.139  25.298  0.00  0.00    +0.050 A 
ATOM     18  C   UNL     1      -1.606   2.859  26.469  0.00  0.00    +0.052 A 
ATOM     19  C   UNL     1      -0.252   3.126  26.457  0.00  0.00    +0.075 A 
ATOM     21  C   UNL     1      -0.365   3.860  24.309  0.00  0.00    +0.127 A 
ATOM     24  C   UNL     1       0.324   4.415  23.109  0.00  0.00    +0.088 C 
BRANCH  19  22
ATOM     22  C   UNL     1       0.567   2.877  27.619  0.00  0.00    +0.000 A 
ATOM     25  C   UNL     1      -0.031   2.581  28.844  0.00  0.00    +0.010 A 
ATOM     26  C   UNL     1       1.957   2.931  27.516  0.00  0.00    +0.010 A 
ATOM     27  C   UNL     1       0.761   2.339  29.966  0.00  0.00    +0.001 A 
ATOM     28  C   UNL     1       2.749   2.689  28.638  0.00  0.00    +0.001 A 
ATOM     30  C   UNL     1       2.152   2.393  29.864  0.00  0.00    +0.000 A 
ENDBRANCH  19  22
ENDBRANCH  10  17
BRANCH  11  16
ATOM     16  C   UNL     1      -4.001  -0.807  23.807  0.00  0.00    +0.123 C 
BRANCH  16   6
ATOM      2  O   UNL     1      -2.179  -2.947  24.499  0.00  0.00    -0.275 OA
ATOM      6  N   UNL     1      -2.618  -0.689  24.153  0.00  0.00    -0.313 N 
ATOM     20  C   UNL     1      -1.806  -1.776  24.475  0.00  0.00    +0.223 C 
ATOM     32  H   UNL     1      -2.217   0.244  24.169  0.00  0.00    +0.149 HD
BRANCH  20  23
ATOM     23  C   UNL     1      -0.389  -1.386  24.821  0.00  0.00    +0.165 C 
BRANCH  23   1
ATOM      1  S   UNL     1      -0.023   0.219  24.072  0.00  0.00    -0.140 S 
BRANCH   1  29
ATOM     29  C   UNL     1       1.084  -0.343  22.756  0.00  0.00    +0.189 C 
BRANCH  29  31
ATOM      4  O   UNL     1       3.331   0.230  22.101  0.00  0.00    -0.250 OA
ATOM     31  C   UNL     1       2.339   0.480  22.774  0.00  0.00    +0.315 C 
BRANCH  31   3
ATOM      3  O   UNL     1       2.255   1.547  23.608  0.00  0.00    -0.480 OA
ATOM     33  H   UNL     1       1.344   1.905  23.655  0.00  0.00    +0.295 HD
ENDBRANCH  31   3
ENDBRANCH  29  31
ENDBRANCH   1  29
ENDBRANCH  23   1
ENDBRANCH  20  23
ENDBRANCH  16   6
ENDBRANCH  11  16
TORSDOF 9
ENDMDL
MODEL 7
REMARK VINA RESULT:       1.9      2.757      3.697
REMARK  Name = 26742374
REMARK  10 active torsions:
REMARK  status: ('A' for Active; 'I' for Inactive)
REMARK    1  A    between atoms: S_1  and  C_23
REMARK    2  A    between atoms: S_1  and  C_29
REMARK    3  A    between atoms: O_3  and  C_31
REMARK    4  A    between atoms: N_6  and  C_16
REMARK    5  A    between atoms: C_10  and  C_17
REMARK    6  A    between atoms: C_11  and  C_16
REMARK    7  A    between atoms: C_19  and  C_22
REMARK    8  A    between atoms: C_20  and  C_23
REMARK    9  A    between atoms: C_21  and  C_24
REMARK   10  A    between atoms: C_29  and  C_31
REMARK                            x       y       z     vdW  Elec       q    Type
REMARK                         _______ _______ _______ _____ _____    ______ ____
ROOT
ATOM      5  N   UNL     1      -3.695  -0.882  23.565  0.00  0.00    -0.297 NA
ATOM      9  C   UNL     1      -3.636   0.286  25.892  0.00  0.00    +0.002 C 
ATOM     10  C   UNL     1      -3.163   1.264  24.781  0.00  0.00    +0.055 C 
ATOM     11  C   UNL     1      -2.977  -1.738  24.545  0.00  0.00    +0.074 C 
ATOM     12  C   UNL     1      -2.751  -0.978  25.870  0.00  0.00    +0.024 C 
ATOM     13  C   UNL     1      -5.066  -0.155  25.517  0.00  0.00    +0.019 C 
ATOM     14  C   UNL     1      -3.032   0.442  23.466  0.00  0.00    +0.094 C 
ATOM     15  C   UNL     1      -5.074  -0.674  24.068  0.00  0.00    +0.085 C 
ENDROOT
BRANCH  10  17
ATOM      7  N   UNL     1      -1.593   3.010  24.097  0.00  0.00    -0.237 NA
ATOM      8  N   UNL     1       0.268   3.676  25.478  0.00  0.00    -0.232 NA
ATOM     17  C   UNL     1      -1.933   2.118  25.051  0.00  0.00    +0.050 A 
ATOM     18  C   UNL     1      -1.232   1.949  26.228  0.00  0.00    +0.052 A 
ATOM     19  C   UNL     1      -0.129   2.763  26.388  0.00  0.00    +0.075 A 
ATOM     21  C   UNL     1      -0.498   3.745  24.372  0.00  0.00    +0.127 A 
ATOM     24  C   UNL     1      -0.089   4.742  23.341  0.00  0.00    +0.088 C 
BRANCH  19  22
ATOM     22  C   UNL     1       0.689   2.684  27.575  0.00  0.00    +0.000 A 
ATOM     25  C   UNL     1       0.114   2.333  28.796  0.00  0.00    +0.010 A 
ATOM     26  C   UNL     1       2.054   2.959  27.499  0.00  0.00    +0.010 A 
ATOM     27  C   UNL     1       0.906   2.256  29.942  0.00  0.00    +0.001 A 
ATOM     28  C   UNL     1       2.845   2.883  28.645  0.00  0.00    +0.001 A 
ATOM     30  C   UNL     1       2.271   2.531  29.868  0.00  0.00    +0.000 A 
ENDBRANCH  19  22
ENDBRANCH  10  17
BRANCH  11  16
ATOM     16  C   UNL     1      -1.672  -2.302  23.981  0.00  0.00    +0.123 C 
BRANCH  16   6
ATOM      2  O   UNL     1       0.614  -0.947  25.126  0.00  0.00    -0.275 OA
ATOM      6  N   UNL     1      -0.887  -1.270  23.379  0.00  0.00    -0.313 N 
ATOM     20  C   UNL     1       0.204  -0.666  24.002  0.00  0.00    +0.223 C 
ATOM     32  H   UNL     1      -1.154  -0.960  22.449  0.00  0.00    +0.149 HD
BRANCH  20  23
ATOM     23  C   UNL     1       0.855   0.410  23.166  0.00  0.00    +0.165 C 
BRANCH  23   1
ATOM      1  S   UNL     1       2.206  -0.324  22.213  0.00  0.00    -0.140 S 
BRANCH   1  29
ATOM     29  C   UNL     1       3.548   0.748  22.776  0.00  0.00    +0.189 C 
BRANCH  29  31
ATOM      4  O   UNL     1       5.795   0.273  23.505  0.00  0.00    -0.250 OA
ATOM     31  C   UNL     1       4.631  -0.088  23.394  0.00  0.00    +0.315 C 
BRANCH  31   3
ATOM      3  O   UNL     1       4.178  -1.290  23.834  0.00  0.00    -0.480 OA
ATOM     33  H   UNL     1       3.781  -1.226  24.728  0.00  0.00    +0.295 HD
ENDBRANCH  31   3
ENDBRANCH  29  31
ENDBRANCH   1  29
ENDBRANCH  23   1
ENDBRANCH  20  23
ENDBRANCH  16   6
ENDBRANCH  11  16
TORSDOF 9
ENDMDL
MODEL 8
REMARK VINA RESULT:       2.0      2.798      6.855
REMARK  Name = 26742374
REMARK  10 active torsions:
REMARK  status: ('A' for Active; 'I' for Inactive)
REMARK    1  A    between atoms: S_1  and  C_23
REMARK    2  A    between atoms: S_1  and  C_29
REMARK    3  A    between atoms: O_3  and  C_31
REMARK    4  A    between atoms: N_6  and  C_16
REMARK    5  A    between atoms: C_10  and  C_17
REMARK    6  A    between atoms: C_11  and  C_16
REMARK    7  A    between atoms: C_19  and  C_22
REMARK    8  A    between atoms: C_20  and  C_23
REMARK    9  A    between atoms: C_21  and  C_24
REMARK   10  A    between atoms: C_29  and  C_31
REMARK                            x       y       z     vdW  Elec       q    Type
REMARK                         _______ _______ _______ _____ _____    ______ ____
ROOT
ATOM      5  N   UNL     1      -2.984   4.170  24.344  0.00  0.00    -0.297 NA
ATOM      9  C   UNL     1      -0.524   3.912  25.156  0.00  0.00    +0.002 C 
ATOM     10  C   UNL     1      -0.719   3.212  23.782  0.00  0.00    +0.055 C 
ATOM     11  C   UNL     1      -2.961   3.676  25.746  0.00  0.00    +0.074 C 
ATOM     12  C   UNL     1      -1.521   3.321  26.175  0.00  0.00    +0.024 C 
ATOM     13  C   UNL     1      -0.902   5.395  24.958  0.00  0.00    +0.019 C 
ATOM     14  C   UNL     1      -2.242   3.234  23.464  0.00  0.00    +0.094 C 
ATOM     15  C   UNL     1      -2.295   5.482  24.312  0.00  0.00    +0.085 C 
ENDROOT
BRANCH  10  17
ATOM      7  N   UNL     1      -0.967   0.812  23.386  0.00  0.00    -0.237 NA
ATOM      8  N   UNL     1       0.930  -0.666  23.227  0.00  0.00    -0.232 NA
ATOM     17  C   UNL     1      -0.108   1.833  23.584  0.00  0.00    +0.050 A 
ATOM     18  C   UNL     1       1.264   1.685  23.616  0.00  0.00    +0.052 A 
ATOM     19  C   UNL     1       1.731   0.400  23.431  0.00  0.00    +0.075 A 
ATOM     21  C   UNL     1      -0.388  -0.393  23.217  0.00  0.00    +0.127 A 
ATOM     24  C   UNL     1      -1.306  -1.547  22.997  0.00  0.00    +0.088 C 
BRANCH  19  22
ATOM     22  C   UNL     1       3.145   0.112  23.443  0.00  0.00    +0.000 A 
ATOM     25  C   UNL     1       3.595  -1.158  23.806  0.00  0.00    +0.010 A 
ATOM     26  C   UNL     1       4.061   1.102  23.089  0.00  0.00    +0.010 A 
ATOM     27  C   UNL     1       4.962  -1.436  23.817  0.00  0.00    +0.001 A 
ATOM     28  C   UNL     1       5.428   0.824  23.101  0.00  0.00    +0.001 A 
ATOM     30  C   UNL     1       5.879  -0.445  23.464  0.00  0.00    +0.000 A 
ENDBRANCH  19  22
ENDBRANCH  10  17
BRANCH  11  16
ATOM     16  C   UNL     1      -3.928   2.512  25.971  0.00  0.00    +0.123 C 
BRANCH  16   6
ATOM      2  O   UNL     1      -5.711   0.417  25.072  0.00  0.00    -0.275 OA
ATOM      6  N   UNL     1      -3.608   1.411  25.118  0.00  0.00    -0.313 N 
ATOM     20  C   UNL     1      -4.531   0.440  24.730  0.00  0.00    +0.223 C 
ATOM     32  H   UNL     1      -2.650   1.336  24.788  0.00  0.00    +0.149 HD
BRANCH  20  23
ATOM     23  C   UNL     1      -3.941  -0.629  23.841  0.00  0.00    +0.165 C 
BRANCH  23   1
ATOM      1  S   UNL     1      -3.703  -2.136  24.813  0.00  0.00    -0.140 S 
BRANCH   1  29
ATOM     29  C   UNL     1      -2.998  -1.389  26.301  0.00  0.00    +0.189 C 
BRANCH  29  31
ATOM      4  O   UNL     1      -0.776  -2.201  25.845  0.00  0.00    -0.250 OA
ATOM     31  C   UNL     1      -1.510  -1.268  26.142  0.00  0.00    +0.315 C 
BRANCH  31   3
ATOM      3  O   UNL     1      -1.061  -0.004  26.348  0.00  0.00    -0.480 OA
ATOM     33  H   UNL     1      -0.197   0.154  25.913  0.00  0.00    +0.295 HD
ENDBRANCH  31   3
ENDBRANCH  29  31
ENDBRANCH   1  29
ENDBRANCH  23   1
ENDBRANCH  20  23
ENDBRANCH  16   6
ENDBRANCH  11  16
TORSDOF 9
ENDMDL
