MODEL 1
REMARK VINA RESULT:       0.1      0.000      0.000
REMARK  Name = 45783811
REMARK  8 active torsions:
REMARK  status: ('A' for Active; 'I' for Inactive)
REMARK    1  A    between atoms: N_4  and  C_14
REMARK    2  A    between atoms: N_7  and  C_23
REMARK    3  A    between atoms: N_9  and  C_27
REMARK    4  A    between atoms: N_9  and  C_28
REMARK    5  A    between atoms: N_9  and  C_29
REMARK    6  A    between atoms: C_10  and  C_15
REMARK    7  A    between atoms: C_14  and  C_16
REMARK    8  A    between atoms: C_19  and  C_22
REMARK                            x       y       z     vdW  Elec       q    Type
REMARK                         _______ _______ _______ _____ _____    ______ ____
ROOT
ATOM      4  N   UNL     1      -5.507   2.425  25.483  0.00  0.00    -0.287 NA
ATOM     10  C   UNL     1      -4.628   3.103  24.510  0.00  0.00    +0.146 C 
ATOM     11  C   UNL     1      -4.892   4.604  24.724  0.00  0.00    +0.030 C 
ATOM     12  C   UNL     1      -5.976   4.669  25.790  0.00  0.00    +0.017 C 
ATOM     13  C   UNL     1      -6.648   3.314  25.699  0.00  0.00    +0.085 C 
ENDROOT
BRANCH  10  15
ATOM      1  O   UNL     1      -2.593   3.094  25.866  0.00  0.00    -0.336 OA
ATOM      5  N   UNL     1      -2.362   2.115  23.864  0.00  0.00    -0.190 NA
ATOM      6  N   UNL     1      -1.266   2.656  25.798  0.00  0.00    -0.056 NA
ATOM     15  C   UNL     1      -3.169   2.735  24.688  0.00  0.00    +0.245 A 
ATOM     19  C   UNL     1      -1.207   2.090  24.589  0.00  0.00    +0.204 A 
BRANCH  19  22
ATOM      8  N   UNL     1       2.369   1.639  23.674  0.00  0.00    -0.240 NA
ATOM     22  C   UNL     1      -0.010   1.488  24.075  0.00  0.00    +0.041 A 
ATOM     24  C   UNL     1      -0.034   0.223  23.498  0.00  0.00    +0.016 A 
ATOM     25  C   UNL     1       1.207   2.148  24.139  0.00  0.00    +0.124 A 
ATOM     26  C   UNL     1       1.143  -0.334  23.009  0.00  0.00    +0.044 A 
ATOM     27  C   UNL     1       2.307   0.408  23.119  0.00  0.00    +0.121 A 
BRANCH  27   9
ATOM      9  N   UNL     1       3.497  -0.174  22.617  0.00  0.00    -0.321 N 
ATOM     28  C   UNL     1       4.239  -1.121  23.419  0.00  0.00    +0.130 C 
ATOM     29  C   UNL     1       3.982   0.183  21.302  0.00  0.00    +0.130 C 
ENDBRANCH  27   9
ENDBRANCH  19  22
ENDBRANCH  10  15
BRANCH   4  14
ATOM     14  C   UNL     1      -5.922   1.096  25.053  0.00  0.00    +0.120 C 
BRANCH  14  16
ATOM     16  C   UNL     1      -4.757   0.145  24.964  0.00  0.00    -0.033 A 
ATOM     17  C   UNL     1      -3.960  -0.090  26.084  0.00  0.00    +0.007 A 
ATOM     18  C   UNL     1      -4.475  -0.501  23.760  0.00  0.00    +0.007 A 
ATOM     20  C   UNL     1      -2.881  -0.969  26.000  0.00  0.00    +0.033 A 
ATOM     21  C   UNL     1      -3.396  -1.380  23.676  0.00  0.00    +0.033 A 
ATOM     23  C   UNL     1      -2.599  -1.615  24.797  0.00  0.00    +0.126 A 
BRANCH  23   7
ATOM      2  O   UNL     1      -0.582  -2.429  25.563  0.00  0.00    -0.126 OA
ATOM      3  O   UNL     1      -1.478  -3.359  23.787  0.00  0.00    -0.126 OA
ATOM      7  N   UNL     1      -1.501  -2.511  24.712  0.00  0.00    +0.056 N 
ENDBRANCH  23   7
ENDBRANCH  14  16
ENDBRANCH   4  14
TORSDOF 6
ENDMDL
MODEL 2
REMARK VINA RESULT:       0.7      1.340      1.585
REMARK  Name = 45783811
REMARK  8 active torsions:
REMARK  status: ('A' for Active; 'I' for Inactive)
REMARK    1  A    between atoms: N_4  and  C_14
REMARK    2  A    between atoms: N_7  and  C_23
REMARK    3  A    between atoms: N_9  and  C_27
REMARK    4  A    between atoms: N_9  and  C_28
REMARK    5  A    between atoms: N_9  and  C_29
REMARK    6  A    between atoms: C_10  and  C_15
REMARK    7  A    between atoms: C_14  and  C_16
REMARK    8  A    between atoms: C_19  and  C_22
REMARK                            x       y       z     vdW  Elec       q    Type
REMARK                         _______ _______ _______ _____ _____    ______ ____
ROOT
ATOM      4  N   UNL     1      -4.239   2.824  25.724  0.00  0.00    -0.287 NA
ATOM     10  C   UNL     1      -3.875   3.350  24.394  0.00  0.00    +0.146 C 
ATOM     11  C   UNL     1      -3.503   4.823  24.644  0.00  0.00    +0.030 C 
ATOM     12  C   UNL     1      -3.748   5.048  26.129  0.00  0.00    +0.017 C 
ATOM     13  C   UNL     1      -4.738   3.961  26.496  0.00  0.00    +0.085 C 
ENDROOT
BRANCH  10  15
ATOM      1  O   UNL     1      -2.997   2.075  22.502  0.00  0.00    -0.336 OA
ATOM      5  N   UNL     1      -1.562   2.282  24.209  0.00  0.00    -0.190 NA
ATOM      6  N   UNL     1      -1.834   1.398  22.116  0.00  0.00    -0.056 NA
ATOM     15  C   UNL     1      -2.753   2.566  23.745  0.00  0.00    +0.245 A 
ATOM     19  C   UNL     1      -1.035   1.565  23.175  0.00  0.00    +0.204 A 
BRANCH  19  22
ATOM      8  N   UNL     1       2.659   1.407  23.569  0.00  0.00    -0.240 NA
ATOM     22  C   UNL     1       0.295   1.030  23.230  0.00  0.00    +0.041 A 
ATOM     24  C   UNL     1       0.534  -0.322  23.010  0.00  0.00    +0.016 A 
ATOM     25  C   UNL     1       1.382   1.845  23.504  0.00  0.00    +0.124 A 
ATOM     26  C   UNL     1       1.835  -0.810  23.070  0.00  0.00    +0.044 A 
ATOM     27  C   UNL     1       2.852   0.087  23.349  0.00  0.00    +0.121 A 
BRANCH  27   9
ATOM      9  N   UNL     1       4.172  -0.427  23.408  0.00  0.00    -0.321 N 
ATOM     28  C   UNL     1       4.400  -1.810  23.762  0.00  0.00    +0.130 C 
ATOM     29  C   UNL     1       5.300   0.432  23.121  0.00  0.00    +0.130 C 
ENDBRANCH  27   9
ENDBRANCH  19  22
ENDBRANCH  10  15
BRANCH   4  14
ATOM     14  C   UNL     1      -5.206   1.735  25.666  0.00  0.00    +0.120 C 
BRANCH  14  16
ATOM     16  C   UNL     1      -4.563   0.435  25.259  0.00  0.00    -0.033 A 
ATOM     17  C   UNL     1      -3.501  -0.082  26.002  0.00  0.00    +0.007 A 
ATOM     18  C   UNL     1      -5.030  -0.252  24.139  0.00  0.00    +0.007 A 
ATOM     20  C   UNL     1      -2.906  -1.285  25.624  0.00  0.00    +0.033 A 
ATOM     21  C   UNL     1      -4.435  -1.456  23.761  0.00  0.00    +0.033 A 
ATOM     23  C   UNL     1      -3.373  -1.973  24.503  0.00  0.00    +0.126 A 
BRANCH  23   7
ATOM      2  O   UNL     1      -1.524  -3.235  23.948  0.00  0.00    -0.126 OA
ATOM      3  O   UNL     1      -3.492  -4.210  23.958  0.00  0.00    -0.126 OA
ATOM      7  N   UNL     1      -2.767  -3.198  24.119  0.00  0.00    +0.056 N 
ENDBRANCH  23   7
ENDBRANCH  14  16
ENDBRANCH   4  14
TORSDOF 6
ENDMDL
MODEL 3
REMARK VINA RESULT:       3.1      2.188      4.928
REMARK  Name = 45783811
REMARK  8 active torsions:
REMARK  status: ('A' for Active; 'I' for Inactive)
REMARK    1  A    between atoms: N_4  and  C_14
REMARK    2  A    between atoms: N_7  and  C_23
REMARK    3  A    between atoms: N_9  and  C_27
REMARK    4  A    between atoms: N_9  and  C_28
REMARK    5  A    between atoms: N_9  and  C_29
REMARK    6  A    between atoms: C_10  and  C_15
REMARK    7  A    between atoms: C_14  and  C_16
REMARK    8  A    between atoms: C_19  and  C_22
REMARK                            x       y       z     vdW  Elec       q    Type
REMARK                         _______ _______ _______ _____ _____    ______ ____
ROOT
ATOM      4  N   UNL     1      -3.577  -0.740  24.560  0.00  0.00    -0.287 NA
ATOM     10  C   UNL     1      -2.391  -1.619  24.612  0.00  0.00    +0.146 C 
ATOM     11  C   UNL     1      -2.795  -2.869  23.809  0.00  0.00    +0.030 C 
ATOM     12  C   UNL     1      -4.241  -2.628  23.399  0.00  0.00    +0.017 C 
ATOM     13  C   UNL     1      -4.737  -1.620  24.415  0.00  0.00    +0.085 C 
ENDROOT
BRANCH  10  15
ATOM      1  O   UNL     1      -1.342   0.107  23.235  0.00  0.00    -0.336 OA
ATOM      5  N   UNL     1       0.112  -1.242  24.275  0.00  0.00    -0.190 NA
ATOM      6  N   UNL     1      -0.067   0.550  22.864  0.00  0.00    -0.056 NA
ATOM     15  C   UNL     1      -1.147  -0.950  24.066  0.00  0.00    +0.245 A 
ATOM     19  C   UNL     1       0.736  -0.295  23.517  0.00  0.00    +0.204 A 
BRANCH  19  22
ATOM      8  N   UNL     1       4.314  -1.277  23.775  0.00  0.00    -0.240 NA
ATOM     22  C   UNL     1       2.167  -0.218  23.436  0.00  0.00    +0.041 A 
ATOM     24  C   UNL     1       2.798   0.928  22.966  0.00  0.00    +0.016 A 
ATOM     25  C   UNL     1       2.963  -1.284  23.824  0.00  0.00    +0.124 A 
ATOM     26  C   UNL     1       4.187   0.973  22.900  0.00  0.00    +0.044 A 
ATOM     27  C   UNL     1       4.892  -0.145  23.313  0.00  0.00    +0.121 A 
BRANCH  27   9
ATOM      9  N   UNL     1       6.306  -0.085  23.238  0.00  0.00    -0.321 N 
ATOM     28  C   UNL     1       7.033  -1.031  22.422  0.00  0.00    +0.130 C 
ATOM     29  C   UNL     1       7.031   0.920  23.985  0.00  0.00    +0.130 C 
ENDBRANCH  27   9
ENDBRANCH  19  22
ENDBRANCH  10  15
BRANCH   4  14
ATOM     14  C   UNL     1      -3.695   0.135  25.718  0.00  0.00    +0.120 C 
BRANCH  14  16
ATOM     16  C   UNL     1      -3.056   1.477  25.474  0.00  0.00    -0.033 A 
ATOM     17  C   UNL     1      -3.783   2.495  24.857  0.00  0.00    +0.007 A 
ATOM     18  C   UNL     1      -1.737   1.702  25.867  0.00  0.00    +0.007 A 
ATOM     20  C   UNL     1      -3.190   3.737  24.631  0.00  0.00    +0.033 A 
ATOM     21  C   UNL     1      -1.144   2.944  25.641  0.00  0.00    +0.033 A 
ATOM     23  C   UNL     1      -1.870   3.962  25.022  0.00  0.00    +0.126 A 
BRANCH  23   7
ATOM      2  O   UNL     1      -0.131   5.271  24.263  0.00  0.00    -0.126 OA
ATOM      3  O   UNL     1      -1.887   6.266  25.127  0.00  0.00    -0.126 OA
ATOM      7  N   UNL     1      -1.268   5.227  24.793  0.00  0.00    +0.056 N 
ENDBRANCH  23   7
ENDBRANCH  14  16
ENDBRANCH   4  14
TORSDOF 6
ENDMDL
