MODEL 1
REMARK VINA RESULT:      -2.2      0.000      0.000
REMARK  Name = 71693183
REMARK  15 active torsions:
REMARK  status: ('A' for Active; 'I' for Inactive)
REMARK    1  A    between atoms: O_2  and  C_31
REMARK    2  A    between atoms: O_2  and  C_32
REMARK    3  A    between atoms: N_4  and  C_15
REMARK    4  A    between atoms: N_7  and  C_24
REMARK    5  A    between atoms: N_7  and  C_29
REMARK    6  A    between atoms: N_7  and  C_30
REMARK    7  A    between atoms: C_8  and  C_12
REMARK    8  A    between atoms: C_9  and  C_15
REMARK    9  A    between atoms: C_11  and  C_16
REMARK   10  A    between atoms: C_12  and  C_17
REMARK   11  A    between atoms: C_12  and  C_18
REMARK   12  A    between atoms: C_13  and  C_19
REMARK   13  A    between atoms: C_16  and  C_20
REMARK   14  A    between atoms: C_21  and  C_24
REMARK   15  A    between atoms: C_27  and  C_31
REMARK                            x       y       z     vdW  Elec       q    Type
REMARK                         _______ _______ _______ _____ _____    ______ ____
ROOT
ATOM      8  C   UNL     1      -4.467   2.310  25.417  0.00  0.00    +0.000 C 
ATOM      9  C   UNL     1      -4.276   2.627  23.913  0.00  0.00    +0.032 C 
ATOM     10  C   UNL     1      -4.376   3.598  26.252  0.00  0.00    +0.012 C 
ATOM     11  C   UNL     1      -3.025   4.315  26.072  0.00  0.00    +0.022 C 
ATOM     13  C   UNL     1      -2.637   4.426  24.612  0.00  0.00    -0.073 C 
ATOM     14  C   UNL     1      -3.217   3.674  23.659  0.00  0.00    -0.022 C 
ATOM     19  C   UNL     1      -1.600   5.458  24.263  0.00  0.00    +0.039 C 
ENDROOT
BRANCH   8  12
ATOM     12  C   UNL     1      -5.802   1.610  25.686  0.00  0.00    -0.013 C 
ATOM     17  C   UNL     1      -6.811   1.951  24.593  0.00  0.00    +0.007 C 
ATOM     18  C   UNL     1      -6.341   2.000  27.059  0.00  0.00    +0.007 C 
ENDBRANCH   8  12
BRANCH   9  15
ATOM     15  C   UNL     1      -3.941   1.359  23.118  0.00  0.00    +0.112 C 
BRANCH  15   4
ATOM      1  O   UNL     1      -5.233  -1.070  24.016  0.00  0.00    -0.274 OA
ATOM      4  N   UNL     1      -3.395   0.353  23.974  0.00  0.00    -0.314 N 
ATOM     21  C   UNL     1      -4.086  -0.796  24.362  0.00  0.00    +0.227 C 
ATOM     33  H   UNL     1      -2.428   0.456  24.268  0.00  0.00    +0.149 HD
BRANCH  21  24
ATOM     24  C   UNL     1      -3.275  -1.670  25.297  0.00  0.00    +0.180 C 
BRANCH  24   7
ATOM      7  N   UNL     1      -3.022  -2.946  24.644  0.00  0.00    -0.300 NA
ATOM     29  C   UNL     1      -1.710  -2.944  23.992  0.00  0.00    +0.105 C 
ATOM     30  C   UNL     1      -4.071  -3.244  23.665  0.00  0.00    +0.105 C 
ENDBRANCH  24   7
ENDBRANCH  21  24
ENDBRANCH  15   4
ENDBRANCH   9  15
BRANCH  11  16
ATOM     16  C   UNL     1      -1.921   3.625  26.882  0.00  0.00    +0.082 C 
BRANCH  16  20
ATOM      5  N   UNL     1      -0.035   3.113  25.321  0.00  0.00    -0.342 N 
ATOM      6  N   UNL     1      -1.348   1.400  25.851  0.00  0.00    -0.232 NA
ATOM     20  C   UNL     1      -1.123   2.682  26.027  0.00  0.00    +0.109 A 
ATOM     22  C   UNL     1       0.478   2.036  24.644  0.00  0.00    +0.067 A 
ATOM     23  C   UNL     1      -0.359   0.979  24.992  0.00  0.00    +0.089 A 
ATOM     25  C   UNL     1       1.568   1.899  23.784  0.00  0.00    +0.042 A 
ATOM     26  C   UNL     1      -0.109  -0.297  24.459  0.00  0.00    +0.030 A 
ATOM     27  C   UNL     1       1.803   0.622  23.263  0.00  0.00    +0.061 A 
ATOM     28  C   UNL     1       0.980  -0.458  23.594  0.00  0.00    +0.017 A 
ATOM     34  H   UNL     1       0.331   4.055  25.300  0.00  0.00    +0.167 HD
BRANCH  27  31
ATOM      3  O   UNL     1       2.843  -0.138  21.257  0.00  0.00    -0.245 OA
ATOM     31  C   UNL     1       2.925   0.417  22.360  0.00  0.00    +0.339 C 
BRANCH  31   2
ATOM      2  O   UNL     1       4.086   0.917  22.882  0.00  0.00    -0.464 OA
ATOM     32  C   UNL     1       5.018  -0.033  23.411  0.00  0.00    +0.280 C 
ENDBRANCH  31   2
ENDBRANCH  27  31
ENDBRANCH  16  20
ENDBRANCH  11  16
TORSDOF 9
ENDMDL
MODEL 2
REMARK VINA RESULT:       0.0      2.591      6.770
REMARK  Name = 71693183
REMARK  15 active torsions:
REMARK  status: ('A' for Active; 'I' for Inactive)
REMARK    1  A    between atoms: O_2  and  C_31
REMARK    2  A    between atoms: O_2  and  C_32
REMARK    3  A    between atoms: N_4  and  C_15
REMARK    4  A    between atoms: N_7  and  C_24
REMARK    5  A    between atoms: N_7  and  C_29
REMARK    6  A    between atoms: N_7  and  C_30
REMARK    7  A    between atoms: C_8  and  C_12
REMARK    8  A    between atoms: C_9  and  C_15
REMARK    9  A    between atoms: C_11  and  C_16
REMARK   10  A    between atoms: C_12  and  C_17
REMARK   11  A    between atoms: C_12  and  C_18
REMARK   12  A    between atoms: C_13  and  C_19
REMARK   13  A    between atoms: C_16  and  C_20
REMARK   14  A    between atoms: C_21  and  C_24
REMARK   15  A    between atoms: C_27  and  C_31
REMARK                            x       y       z     vdW  Elec       q    Type
REMARK                         _______ _______ _______ _____ _____    ______ ____
ROOT
ATOM      8  C   UNL     1      -1.376  -0.156  24.876  0.00  0.00    +0.000 C 
ATOM      9  C   UNL     1      -0.416  -1.182  24.224  0.00  0.00    +0.032 C 
ATOM     10  C   UNL     1      -2.335  -0.861  25.849  0.00  0.00    +0.012 C 
ATOM     11  C   UNL     1      -3.178  -1.945  25.152  0.00  0.00    +0.022 C 
ATOM     13  C   UNL     1      -2.330  -2.839  24.271  0.00  0.00    -0.073 C 
ATOM     14  C   UNL     1      -1.093  -2.488  23.878  0.00  0.00    -0.022 C 
ATOM     19  C   UNL     1      -2.918  -4.169  23.889  0.00  0.00    +0.039 C 
ENDROOT
BRANCH   8  12
ATOM     12  C   UNL     1      -0.613   0.951  25.610  0.00  0.00    -0.013 C 
ATOM     17  C   UNL     1      -1.514   1.624  26.640  0.00  0.00    +0.007 C 
ATOM     18  C   UNL     1      -0.071   1.973  24.616  0.00  0.00    +0.007 C 
ENDBRANCH   8  12
BRANCH   9  15
ATOM     15  C   UNL     1       0.246  -0.602  22.969  0.00  0.00    +0.112 C 
BRANCH  15   4
ATOM      1  O   UNL     1       2.494  -0.169  21.198  0.00  0.00    -0.274 OA
ATOM      4  N   UNL     1       1.499   0.006  23.292  0.00  0.00    -0.314 N 
ATOM     21  C   UNL     1       2.538   0.180  22.376  0.00  0.00    +0.227 C 
ATOM     33  H   UNL     1       1.614   0.385  24.228  0.00  0.00    +0.149 HD
BRANCH  21  24
ATOM     24  C   UNL     1       3.759   0.823  23.001  0.00  0.00    +0.180 C 
BRANCH  24   7
ATOM      7  N   UNL     1       4.811  -0.176  23.111  0.00  0.00    -0.300 NA
ATOM     29  C   UNL     1       4.313  -1.382  23.779  0.00  0.00    +0.105 C 
ATOM     30  C   UNL     1       5.965   0.362  23.835  0.00  0.00    +0.105 C 
ENDBRANCH  24   7
ENDBRANCH  21  24
ENDBRANCH  15   4
ENDBRANCH   9  15
BRANCH  11  16
ATOM     16  C   UNL     1      -4.330  -1.322  24.354  0.00  0.00    +0.082 C 
BRANCH  16  20
ATOM      5  N   UNL     1      -3.570   0.982  23.743  0.00  0.00    -0.342 N 
ATOM      6  N   UNL     1      -5.097   0.859  25.353  0.00  0.00    -0.232 NA
ATOM     20  C   UNL     1      -4.359   0.172  24.511  0.00  0.00    +0.109 A 
ATOM     22  C   UNL     1      -3.815   2.279  24.114  0.00  0.00    +0.067 A 
ATOM     23  C   UNL     1      -4.772   2.176  25.121  0.00  0.00    +0.089 A 
ATOM     25  C   UNL     1      -3.299   3.496  23.670  0.00  0.00    +0.042 A 
ATOM     26  C   UNL     1      -5.252   3.346  25.731  0.00  0.00    +0.030 A 
ATOM     27  C   UNL     1      -3.789   4.652  24.289  0.00  0.00    +0.061 A 
ATOM     28  C   UNL     1      -4.748   4.580  25.301  0.00  0.00    +0.017 A 
ATOM     34  H   UNL     1      -2.921   0.682  23.028  0.00  0.00    +0.167 HD
BRANCH  27  31
ATOM      3  O   UNL     1      -3.766   6.620  22.944  0.00  0.00    -0.245 OA
ATOM     31  C   UNL     1      -3.287   5.951  23.868  0.00  0.00    +0.339 C 
BRANCH  31   2
ATOM      2  O   UNL     1      -2.216   6.343  24.624  0.00  0.00    -0.464 OA
ATOM     32  C   UNL     1      -1.287   5.323  25.006  0.00  0.00    +0.280 C 
ENDBRANCH  31   2
ENDBRANCH  27  31
ENDBRANCH  16  20
ENDBRANCH  11  16
TORSDOF 9
ENDMDL
MODEL 3
REMARK VINA RESULT:       1.2      2.061      5.158
REMARK  Name = 71693183
REMARK  15 active torsions:
REMARK  status: ('A' for Active; 'I' for Inactive)
REMARK    1  A    between atoms: O_2  and  C_31
REMARK    2  A    between atoms: O_2  and  C_32
REMARK    3  A    between atoms: N_4  and  C_15
REMARK    4  A    between atoms: N_7  and  C_24
REMARK    5  A    between atoms: N_7  and  C_29
REMARK    6  A    between atoms: N_7  and  C_30
REMARK    7  A    between atoms: C_8  and  C_12
REMARK    8  A    between atoms: C_9  and  C_15
REMARK    9  A    between atoms: C_11  and  C_16
REMARK   10  A    between atoms: C_12  and  C_17
REMARK   11  A    between atoms: C_12  and  C_18
REMARK   12  A    between atoms: C_13  and  C_19
REMARK   13  A    between atoms: C_16  and  C_20
REMARK   14  A    between atoms: C_21  and  C_24
REMARK   15  A    between atoms: C_27  and  C_31
REMARK                            x       y       z     vdW  Elec       q    Type
REMARK                         _______ _______ _______ _____ _____    ______ ____
ROOT
ATOM      8  C   UNL     1      -2.768   2.742  23.788  0.00  0.00    +0.000 C 
ATOM      9  C   UNL     1      -1.529   3.116  24.639  0.00  0.00    +0.032 C 
ATOM     10  C   UNL     1      -3.836   3.844  23.881  0.00  0.00    +0.012 C 
ATOM     11  C   UNL     1      -4.296   4.087  25.331  0.00  0.00    +0.022 C 
ATOM     13  C   UNL     1      -3.122   4.200  26.283  0.00  0.00    -0.073 C 
ATOM     14  C   UNL     1      -1.890   3.773  25.951  0.00  0.00    -0.022 C 
ATOM     19  C   UNL     1      -3.385   4.858  27.609  0.00  0.00    +0.039 C 
ENDROOT
BRANCH   8  12
ATOM     12  C   UNL     1      -2.399   2.501  22.321  0.00  0.00    -0.013 C 
ATOM     17  C   UNL     1      -3.427   3.151  21.400  0.00  0.00    +0.007 C 
ATOM     18  C   UNL     1      -2.288   1.006  22.039  0.00  0.00    +0.007 C 
ENDBRANCH   8  12
BRANCH   9  15
ATOM     15  C   UNL     1      -0.651   1.889  24.908  0.00  0.00    +0.112 C 
BRANCH  15   4
ATOM      1  O   UNL     1       0.816   0.035  23.239  0.00  0.00    -0.274 OA
ATOM      4  N   UNL     1       0.655   2.069  24.353  0.00  0.00    -0.314 N 
ATOM     21  C   UNL     1       1.296   1.122  23.553  0.00  0.00    +0.227 C 
ATOM     33  H   UNL     1       1.114   2.962  24.504  0.00  0.00    +0.149 HD
BRANCH  21  24
ATOM     24  C   UNL     1       2.682   1.565  23.131  0.00  0.00    +0.180 C 
BRANCH  24   7
ATOM      7  N   UNL     1       3.478   0.384  22.824  0.00  0.00    -0.300 NA
ATOM     29  C   UNL     1       4.827   0.510  23.382  0.00  0.00    +0.105 C 
ATOM     30  C   UNL     1       3.548   0.169  21.377  0.00  0.00    +0.105 C 
ENDBRANCH  24   7
ENDBRANCH  21  24
ENDBRANCH  15   4
ENDBRANCH   9  15
BRANCH  11  16
ATOM     16  C   UNL     1      -5.273   2.999  25.792  0.00  0.00    +0.082 C 
BRANCH  16  20
ATOM      5  N   UNL     1      -3.587   1.159  25.624  0.00  0.00    -0.342 N 
ATOM      6  N   UNL     1      -5.540   0.780  24.631  0.00  0.00    -0.232 NA
ATOM     20  C   UNL     1      -4.834   1.639  25.333  0.00  0.00    +0.109 A 
ATOM     22  C   UNL     1      -3.482  -0.094  25.076  0.00  0.00    +0.067 A 
ATOM     23  C   UNL     1      -4.713  -0.307  24.461  0.00  0.00    +0.089 A 
ATOM     25  C   UNL     1      -2.448  -1.030  25.064  0.00  0.00    +0.042 A 
ATOM     26  C   UNL     1      -4.943  -1.519  23.791  0.00  0.00    +0.030 A 
ATOM     27  C   UNL     1      -2.694  -2.232  24.392  0.00  0.00    +0.061 A 
ATOM     28  C   UNL     1      -3.919  -2.474  23.766  0.00  0.00    +0.017 A 
ATOM     34  H   UNL     1      -2.870   1.638  26.152  0.00  0.00    +0.167 HD
BRANCH  27  31
ATOM      3  O   UNL     1      -1.477  -4.026  23.400  0.00  0.00    -0.245 OA
ATOM     31  C   UNL     1      -1.652  -3.247  24.345  0.00  0.00    +0.339 C 
BRANCH  31   2
ATOM      2  O   UNL     1      -0.888  -3.234  25.479  0.00  0.00    -0.464 OA
ATOM     32  C   UNL     1       0.337  -2.495  25.424  0.00  0.00    +0.280 C 
ENDBRANCH  31   2
ENDBRANCH  27  31
ENDBRANCH  16  20
ENDBRANCH  11  16
TORSDOF 9
ENDMDL
MODEL 4
REMARK VINA RESULT:       1.6     14.142     16.269
REMARK  Name = 71693183
REMARK  15 active torsions:
REMARK  status: ('A' for Active; 'I' for Inactive)
REMARK    1  A    between atoms: O_2  and  C_31
REMARK    2  A    between atoms: O_2  and  C_32
REMARK    3  A    between atoms: N_4  and  C_15
REMARK    4  A    between atoms: N_7  and  C_24
REMARK    5  A    between atoms: N_7  and  C_29
REMARK    6  A    between atoms: N_7  and  C_30
REMARK    7  A    between atoms: C_8  and  C_12
REMARK    8  A    between atoms: C_9  and  C_15
REMARK    9  A    between atoms: C_11  and  C_16
REMARK   10  A    between atoms: C_12  and  C_17
REMARK   11  A    between atoms: C_12  and  C_18
REMARK   12  A    between atoms: C_13  and  C_19
REMARK   13  A    between atoms: C_16  and  C_20
REMARK   14  A    between atoms: C_21  and  C_24
REMARK   15  A    between atoms: C_27  and  C_31
REMARK                            x       y       z     vdW  Elec       q    Type
REMARK                         _______ _______ _______ _____ _____    ______ ____
ROOT
ATOM      8  C   UNL     1      -6.220 -10.212  11.479  0.00  0.00    +0.000 C 
ATOM      9  C   UNL     1      -6.416 -10.675  12.944  0.00  0.00    +0.032 C 
ATOM     10  C   UNL     1      -4.898 -10.759  10.916  0.00  0.00    +0.012 C 
ATOM     11  C   UNL     1      -3.680 -10.302  11.740  0.00  0.00    +0.022 C 
ATOM     13  C   UNL     1      -3.907 -10.480  13.227  0.00  0.00    -0.073 C 
ATOM     14  C   UNL     1      -5.135 -10.660  13.746  0.00  0.00    -0.022 C 
ATOM     19  C   UNL     1      -2.684 -10.495  14.103  0.00  0.00    +0.039 C 
ENDROOT
BRANCH   8  12
ATOM     12  C   UNL     1      -7.384 -10.646  10.585  0.00  0.00    -0.013 C 
ATOM     17  C   UNL     1      -6.922 -10.779   9.137  0.00  0.00    +0.007 C 
ATOM     18  C   UNL     1      -8.538  -9.654  10.694  0.00  0.00    +0.007 C 
ENDBRANCH   8  12
BRANCH   9  15
ATOM     15  C   UNL     1      -7.474  -9.826  13.657  0.00  0.00    +0.112 C 
BRANCH  15   4
ATOM      1  O   UNL     1      -9.105  -8.693  15.762  0.00  0.00    -0.274 OA
ATOM      4  N   UNL     1      -7.934 -10.479  14.843  0.00  0.00    -0.314 N 
ATOM     21  C   UNL     1      -8.722  -9.860  15.815  0.00  0.00    +0.227 C 
ATOM     33  H   UNL     1      -7.722 -11.466  14.952  0.00  0.00    +0.149 HD
BRANCH  21  24
ATOM     24  C   UNL     1      -9.035 -10.780  16.977  0.00  0.00    +0.180 C 
BRANCH  24   7
ATOM      7  N   UNL     1      -8.576 -10.152  18.208  0.00  0.00    -0.300 NA
ATOM     29  C   UNL     1      -7.169 -10.475  18.460  0.00  0.00    +0.105 C 
ATOM     30  C   UNL     1      -9.401 -10.572  19.343  0.00  0.00    +0.105 C 
ENDBRANCH  24   7
ENDBRANCH  21  24
ENDBRANCH  15   4
ENDBRANCH   9  15
BRANCH  11  16
ATOM     16  C   UNL     1      -3.304  -8.852  11.413  0.00  0.00    +0.082 C 
BRANCH  16  20
ATOM      5  N   UNL     1      -1.198  -7.663  12.051  0.00  0.00    -0.342 N 
ATOM      6  N   UNL     1      -0.955  -9.406  10.693  0.00  0.00    -0.232 NA
ATOM     20  C   UNL     1      -1.814  -8.671  11.363  0.00  0.00    +0.109 A 
ATOM     22  C   UNL     1       0.149  -7.755  11.811  0.00  0.00    +0.067 A 
ATOM     23  C   UNL     1       0.275  -8.850  10.960  0.00  0.00    +0.089 A 
ATOM     25  C   UNL     1       1.235  -6.997  12.249  0.00  0.00    +0.042 A 
ATOM     26  C   UNL     1       1.552  -9.226  10.512  0.00  0.00    +0.030 A 
ATOM     27  C   UNL     1       2.500  -7.385  11.793  0.00  0.00    +0.061 A 
ATOM     28  C   UNL     1       2.657  -8.480  10.940  0.00  0.00    +0.017 A 
ATOM     34  H   UNL     1      -1.651  -6.973  12.635  0.00  0.00    +0.167 HD
BRANCH  27  31
ATOM      3  O   UNL     1       3.648  -5.451  12.584  0.00  0.00    -0.245 OA
ATOM     31  C   UNL     1       3.671  -6.632  12.216  0.00  0.00    +0.339 C 
BRANCH  31   2
ATOM      2  O   UNL     1       4.805  -7.395  12.158  0.00  0.00    -0.464 OA
ATOM     32  C   UNL     1       5.925  -6.948  12.931  0.00  0.00    +0.280 C 
ENDBRANCH  31   2
ENDBRANCH  27  31
ENDBRANCH  16  20
ENDBRANCH  11  16
TORSDOF 9
ENDMDL
MODEL 5
REMARK VINA RESULT:       1.8      2.701      5.232
REMARK  Name = 71693183
REMARK  15 active torsions:
REMARK  status: ('A' for Active; 'I' for Inactive)
REMARK    1  A    between atoms: O_2  and  C_31
REMARK    2  A    between atoms: O_2  and  C_32
REMARK    3  A    between atoms: N_4  and  C_15
REMARK    4  A    between atoms: N_7  and  C_24
REMARK    5  A    between atoms: N_7  and  C_29
REMARK    6  A    between atoms: N_7  and  C_30
REMARK    7  A    between atoms: C_8  and  C_12
REMARK    8  A    between atoms: C_9  and  C_15
REMARK    9  A    between atoms: C_11  and  C_16
REMARK   10  A    between atoms: C_12  and  C_17
REMARK   11  A    between atoms: C_12  and  C_18
REMARK   12  A    between atoms: C_13  and  C_19
REMARK   13  A    between atoms: C_16  and  C_20
REMARK   14  A    between atoms: C_21  and  C_24
REMARK   15  A    between atoms: C_27  and  C_31
REMARK                            x       y       z     vdW  Elec       q    Type
REMARK                         _______ _______ _______ _____ _____    ______ ____
ROOT
ATOM      8  C   UNL     1      -3.352  -0.328  24.926  0.00  0.00    +0.000 C 
ATOM      9  C   UNL     1      -2.157  -0.569  23.970  0.00  0.00    +0.032 C 
ATOM     10  C   UNL     1      -4.572   0.181  24.142  0.00  0.00    +0.012 C 
ATOM     11  C   UNL     1      -4.276   1.493  23.391  0.00  0.00    +0.022 C 
ATOM     13  C   UNL     1      -2.966   1.425  22.634  0.00  0.00    -0.073 C 
ATOM     14  C   UNL     1      -2.037   0.488  22.897  0.00  0.00    -0.022 C 
ATOM     19  C   UNL     1      -2.765   2.430  21.534  0.00  0.00    +0.039 C 
ENDROOT
BRANCH   8  12
ATOM     12  C   UNL     1      -3.725  -1.596  25.700  0.00  0.00    -0.013 C 
ATOM     17  C   UNL     1      -2.915  -1.689  26.990  0.00  0.00    +0.007 C 
ATOM     18  C   UNL     1      -3.505  -2.833  24.834  0.00  0.00    +0.007 C 
ENDBRANCH   8  12
BRANCH   9  15
ATOM     15  C   UNL     1      -0.838  -0.662  24.745  0.00  0.00    +0.112 C 
BRANCH  15   4
ATOM      1  O   UNL     1       0.928   1.477  23.920  0.00  0.00    -0.274 OA
ATOM      4  N   UNL     1       0.272  -0.752  23.848  0.00  0.00    -0.314 N 
ATOM     21  C   UNL     1       1.079   0.332  23.500  0.00  0.00    +0.227 C 
ATOM     33  H   UNL     1       0.519  -1.671  23.492  0.00  0.00    +0.149 HD
BRANCH  21  24
ATOM     24  C   UNL     1       2.160  -0.047  22.508  0.00  0.00    +0.180 C 
BRANCH  24   7
ATOM      7  N   UNL     1       3.460   0.150  23.133  0.00  0.00    -0.300 NA
ATOM     29  C   UNL     1       4.368   0.860  22.228  0.00  0.00    +0.105 C 
ATOM     30  C   UNL     1       4.044  -1.134  23.530  0.00  0.00    +0.105 C 
ENDBRANCH  24   7
ENDBRANCH  21  24
ENDBRANCH  15   4
ENDBRANCH   9  15
BRANCH  11  16
ATOM     16  C   UNL     1      -4.297   2.693  24.345  0.00  0.00    +0.082 C 
BRANCH  16  20
ATOM      5  N   UNL     1      -2.522   2.214  26.041  0.00  0.00    -0.342 N 
ATOM      6  N   UNL     1      -2.046   3.802  24.561  0.00  0.00    -0.232 NA
ATOM     20  C   UNL     1      -2.946   2.929  24.957  0.00  0.00    +0.109 A 
ATOM     22  C   UNL     1      -1.264   2.652  26.366  0.00  0.00    +0.067 A 
ATOM     23  C   UNL     1      -0.989   3.643  25.428  0.00  0.00    +0.089 A 
ATOM     25  C   UNL     1      -0.370   2.279  27.370  0.00  0.00    +0.042 A 
ATOM     26  C   UNL     1       0.244   4.312  25.479  0.00  0.00    +0.030 A 
ATOM     27  C   UNL     1       0.855   2.954  27.406  0.00  0.00    +0.061 A 
ATOM     28  C   UNL     1       1.158   3.954  26.478  0.00  0.00    +0.017 A 
ATOM     34  H   UNL     1      -3.040   1.488  26.519  0.00  0.00    +0.167 HD
BRANCH  27  31
ATOM      3  O   UNL     1       3.022   2.934  28.400  0.00  0.00    -0.245 OA
ATOM     31  C   UNL     1       1.828   2.609  28.431  0.00  0.00    +0.339 C 
BRANCH  31   2
ATOM      2  O   UNL     1       1.259   1.878  29.437  0.00  0.00    -0.464 OA
ATOM     32  C   UNL     1       0.885   2.591  30.621  0.00  0.00    +0.280 C 
ENDBRANCH  31   2
ENDBRANCH  27  31
ENDBRANCH  16  20
ENDBRANCH  11  16
TORSDOF 9
ENDMDL
