MODEL 1
REMARK VINA RESULT:      12.9      0.000      0.000
REMARK  Name = 11885132
REMARK  4 active torsions:
REMARK  status: ('A' for Active; 'I' for Inactive)
REMARK    1  A    between atoms: O_4  and  C_28
REMARK    2  A    between atoms: O_4  and  C_32
REMARK    3  A    between atoms: N_7  and  C_21
REMARK    4  A    between atoms: C_18  and  C_20
REMARK                            x       y       z     vdW  Elec       q    Type
REMARK                         _______ _______ _______ _____ _____    ______ ____
ROOT
ATOM      2  O   UNL     1       0.632   1.756  26.070  0.00  0.00    -0.267 OA
ATOM      3  O   UNL     1      -4.352   1.869  23.120  0.00  0.00    -0.252 OA
ATOM      5  N   UNL     1      -4.077   3.145  25.030  0.00  0.00    -0.284 N 
ATOM      6  N   UNL     1      -0.917   3.376  25.428  0.00  0.00    -0.311 N 
ATOM      7  N   UNL     1      -4.541   0.837  25.189  0.00  0.00    -0.269 N 
ATOM      8  C   UNL     1      -2.822   4.144  26.955  0.00  0.00    +0.027 C 
ATOM      9  C   UNL     1      -2.591   5.116  24.711  0.00  0.00    +0.054 C 
ATOM     10  C   UNL     1      -2.724   5.458  26.193  0.00  0.00    +0.018 C 
ATOM     11  C   UNL     1      -4.041   3.322  26.490  0.00  0.00    +0.114 C 
ATOM     12  C   UNL     1      -1.509   3.371  26.772  0.00  0.00    +0.130 C 
ATOM     13  C   UNL     1      -3.855   4.369  24.251  0.00  0.00    +0.119 C 
ATOM     14  C   UNL     1      -1.364   4.263  24.447  0.00  0.00    +0.027 A 
ATOM     15  C   UNL     1      -0.731   4.337  23.265  0.00  0.00    +0.022 A 
ATOM     16  C   UNL     1       0.186   2.525  25.217  0.00  0.00    +0.259 A 
ATOM     17  C   UNL     1      -4.321   1.930  24.352  0.00  0.00    +0.306 C 
ATOM     18  C   UNL     1       0.849   2.600  23.869  0.00  0.00    +0.047 A 
ATOM     19  C   UNL     1       0.387   3.486  22.974  0.00  0.00    +0.015 A 
ATOM     33  H   UNL     1      -4.932   1.008  26.109  0.00  0.00    +0.156 HD
ENDROOT
BRANCH   7  21
ATOM      1 CL   UNL     1      -3.632  -4.877  23.931  0.00  0.00    -0.084 Cl
ATOM     21  C   UNL     1      -4.324  -0.530  24.888  0.00  0.00    +0.035 A 
ATOM     26  C   UNL     1      -4.859  -1.076  23.725  0.00  0.00    +0.025 A 
ATOM     27  C   UNL     1      -3.576  -1.320  25.757  0.00  0.00    +0.025 A 
ATOM     29  C   UNL     1      -4.645  -2.422  23.428  0.00  0.00    +0.022 A 
ATOM     30  C   UNL     1      -3.362  -2.665  25.460  0.00  0.00    +0.022 A 
ATOM     31  C   UNL     1      -3.896  -3.216  24.297  0.00  0.00    +0.041 A 
ENDBRANCH   7  21
BRANCH  18  20
ATOM     20  C   UNL     1       1.976   1.716  23.522  0.00  0.00    -0.012 A 
ATOM     22  C   UNL     1       1.813   0.331  23.559  0.00  0.00    +0.012 A 
ATOM     23  C   UNL     1       3.206   2.263  23.156  0.00  0.00    +0.012 A 
ATOM     24  C   UNL     1       2.879  -0.506  23.231  0.00  0.00    +0.046 A 
ATOM     25  C   UNL     1       4.272   1.426  22.828  0.00  0.00    +0.046 A 
ATOM     28  C   UNL     1       4.109   0.041  22.866  0.00  0.00    +0.120 A 
BRANCH  28   4
ATOM      4  O   UNL     1       5.150  -0.775  22.546  0.00  0.00    -0.495 OA
ATOM     32  C   UNL     1       6.340  -0.645  23.322  0.00  0.00    +0.277 C 
ENDBRANCH  28   4
ENDBRANCH  18  20
TORSDOF 3
ENDMDL
MODEL 2
REMARK VINA RESULT:      13.3      0.189      1.218
REMARK  Name = 11885132
REMARK  4 active torsions:
REMARK  status: ('A' for Active; 'I' for Inactive)
REMARK    1  A    between atoms: O_4  and  C_28
REMARK    2  A    between atoms: O_4  and  C_32
REMARK    3  A    between atoms: N_7  and  C_21
REMARK    4  A    between atoms: C_18  and  C_20
REMARK                            x       y       z     vdW  Elec       q    Type
REMARK                         _______ _______ _______ _____ _____    ______ ____
ROOT
ATOM      2  O   UNL     1       0.789   1.762  26.027  0.00  0.00    -0.267 OA
ATOM      3  O   UNL     1      -4.210   1.869  23.104  0.00  0.00    -0.252 OA
ATOM      5  N   UNL     1      -3.909   3.185  24.983  0.00  0.00    -0.284 N 
ATOM      6  N   UNL     1      -0.744   3.385  25.357  0.00  0.00    -0.311 N 
ATOM      7  N   UNL     1      -4.400   0.887  25.197  0.00  0.00    -0.269 N 
ATOM      8  C   UNL     1      -2.630   4.211  26.877  0.00  0.00    +0.027 C 
ATOM      9  C   UNL     1      -2.400   5.130  24.611  0.00  0.00    +0.054 C 
ATOM     10  C   UNL     1      -2.520   5.506  26.086  0.00  0.00    +0.018 C 
ATOM     11  C   UNL     1      -3.862   3.394  26.439  0.00  0.00    +0.114 C 
ATOM     12  C   UNL     1      -1.327   3.419  26.704  0.00  0.00    +0.130 C 
ATOM     13  C   UNL     1      -3.676   4.388  24.175  0.00  0.00    +0.119 C 
ATOM     14  C   UNL     1      -1.186   4.256  24.359  0.00  0.00    +0.027 A 
ATOM     15  C   UNL     1      -0.559   4.296  23.172  0.00  0.00    +0.022 A 
ATOM     16  C   UNL     1       0.347   2.517  25.160  0.00  0.00    +0.259 A 
ATOM     17  C   UNL     1      -4.171   1.958  24.334  0.00  0.00    +0.306 C 
ATOM     18  C   UNL     1       1.003   2.553  23.806  0.00  0.00    +0.047 A 
ATOM     19  C   UNL     1       0.547   3.425  22.894  0.00  0.00    +0.015 A 
ATOM     33  H   UNL     1      -4.783   1.083  26.115  0.00  0.00    +0.156 HD
ENDROOT
BRANCH   7  21
ATOM      1 CL   UNL     1      -3.571  -4.865  24.062  0.00  0.00    -0.084 Cl
ATOM     21  C   UNL     1      -4.201  -0.489  24.926  0.00  0.00    +0.035 A 
ATOM     26  C   UNL     1      -3.460  -1.268  25.809  0.00  0.00    +0.025 A 
ATOM     27  C   UNL     1      -4.750  -1.054  23.777  0.00  0.00    +0.025 A 
ATOM     29  C   UNL     1      -3.265  -2.624  25.541  0.00  0.00    +0.022 A 
ATOM     30  C   UNL     1      -4.554  -2.409  23.510  0.00  0.00    +0.022 A 
ATOM     31  C   UNL     1      -3.812  -3.193  24.392  0.00  0.00    +0.041 A 
ENDBRANCH   7  21
BRANCH  18  20
ATOM     20  C   UNL     1       2.117   1.647  23.473  0.00  0.00    -0.012 A 
ATOM     22  C   UNL     1       3.407   2.156  23.318  0.00  0.00    +0.012 A 
ATOM     23  C   UNL     1       1.883   0.281  23.312  0.00  0.00    +0.012 A 
ATOM     24  C   UNL     1       4.461   1.299  23.002  0.00  0.00    +0.046 A 
ATOM     25  C   UNL     1       2.937  -0.575  22.996  0.00  0.00    +0.046 A 
ATOM     28  C   UNL     1       4.227  -0.066  22.841  0.00  0.00    +0.120 A 
BRANCH  28   4
ATOM      4  O   UNL     1       5.255  -0.903  22.532  0.00  0.00    -0.495 OA
ATOM     32  C   UNL     1       6.422  -0.826  23.348  0.00  0.00    +0.277 C 
ENDBRANCH  28   4
ENDBRANCH  18  20
TORSDOF 3
ENDMDL
