MODEL 1
REMARK VINA RESULT:       4.0      0.000      0.000
REMARK  Name = 11882016
REMARK  10 active torsions:
REMARK  status: ('A' for Active; 'I' for Inactive)
REMARK    1  A    between atoms: S_1  and  C_21
REMARK    2  A    between atoms: S_1  and  C_27
REMARK    3  A    between atoms: N_10  and  C_14
REMARK    4  A    between atoms: N_11  and  C_20
REMARK    5  A    between atoms: N_12  and  C_26
REMARK    6  A    between atoms: C_15  and  C_18
REMARK    7  A    between atoms: C_19  and  C_21
REMARK    8  A    between atoms: C_20  and  C_23
REMARK    9  A    between atoms: C_20  and  C_24
REMARK   10  A    between atoms: C_23  and  C_25
REMARK                            x       y       z     vdW  Elec       q    Type
REMARK                         _______ _______ _______ _____ _____    ______ ____
ROOT
ATOM      6  O   UNL     1      -4.414   2.015  26.362  0.00  0.00    -0.275 OA
ATOM      9  N   UNL     1      -3.482   0.586  24.799  0.00  0.00    -0.287 N 
ATOM     14  C   UNL     1      -2.223  -0.948  23.493  0.00  0.00    +0.094 C 
ATOM     15  C   UNL     1      -2.661  -0.166  25.737  0.00  0.00    +0.164 C 
ATOM     16  C   UNL     1      -2.189  -1.392  24.958  0.00  0.00    +0.055 C 
ATOM     17  C   UNL     1      -3.388   0.035  23.446  0.00  0.00    +0.131 C 
ATOM     19  C   UNL     1      -4.362   1.575  25.213  0.00  0.00    +0.226 C 
ENDROOT
BRANCH  14  10
ATOM      7  O   UNL     1       0.415  -1.692  24.331  0.00  0.00    -0.252 OA
ATOM     10  N   UNL     1      -0.984  -0.330  23.091  0.00  0.00    -0.295 N 
ATOM     12  N   UNL     1       1.285   0.027  22.991  0.00  0.00    -0.267 N 
ATOM     22  C   UNL     1       0.270  -0.756  23.548  0.00  0.00    +0.304 C 
ATOM     36  H   UNL     1      -1.025   0.493  22.497  0.00  0.00    +0.151 HD
ATOM     38  H   UNL     1       0.996   0.768  22.358  0.00  0.00    +0.156 HD
BRANCH  12  26
ATOM      3  F   UNL     1       2.979   2.220  22.691  0.00  0.00    -0.203 F 
ATOM      4  F   UNL     1       6.750  -0.408  23.816  0.00  0.00    -0.205 F 
ATOM     26  C   UNL     1       2.679  -0.081  23.200  0.00  0.00    +0.070 A 
ATOM     30  C   UNL     1       3.500   1.035  23.042  0.00  0.00    +0.147 A 
ATOM     31  C   UNL     1       3.233  -1.308  23.565  0.00  0.00    +0.029 A 
ATOM     33  C   UNL     1       4.875   0.925  23.250  0.00  0.00    +0.078 A 
ATOM     34  C   UNL     1       4.608  -1.419  23.772  0.00  0.00    +0.040 A 
ATOM     35  C   UNL     1       5.429  -0.302  23.614  0.00  0.00    +0.126 A 
ENDBRANCH  12  26
ENDBRANCH  14  10
BRANCH  15  18
ATOM      5  O   UNL     1      -0.555   0.235  26.785  0.00  0.00    -0.274 OA
ATOM     11  N   UNL     1      -1.678   2.017  25.795  0.00  0.00    -0.302 N 
ATOM     18  C   UNL     1      -1.509   0.693  26.163  0.00  0.00    +0.234 C 
ATOM     37  H   UNL     1      -2.527   2.290  25.307  0.00  0.00    +0.150 HD
BRANCH  11  20
ATOM     20  C   UNL     1      -0.719   3.053  26.107  0.00  0.00    +0.163 C 
BRANCH  20  24
ATOM      8  O   UNL     1      -0.800   5.225  25.021  0.00  0.00    -0.274 OA
ATOM     13  N   UNL     1      -0.471   3.359  23.723  0.00  0.00    -0.328 N 
ATOM     24  C   UNL     1      -0.689   4.006  24.921  0.00  0.00    +0.231 C 
ATOM     39  H   UNL     1      -0.413   3.880  22.855  0.00  0.00    +0.145 HD
ATOM     40  H   UNL     1      -0.378   2.350  23.654  0.00  0.00    +0.145 HD
ENDBRANCH  20  24
BRANCH  20  23
ATOM     23  C   UNL     1       0.681   2.488  26.375  0.00  0.00    +0.074 C 
BRANCH  23  25
ATOM      2  S   UNL     1       2.699   2.805  28.270  0.00  0.00    -0.102 S 
ATOM     25  C   UNL     1       1.060   2.562  27.836  0.00  0.00    -0.008 A 
ATOM     28  C   UNL     1       0.243   2.457  28.940  0.00  0.00    +0.011 A 
ATOM     29  C   UNL     1       0.972   2.578  30.158  0.00  0.00    +0.008 A 
ATOM     32  C   UNL     1       2.318   2.771  29.939  0.00  0.00    +0.045 A 
ENDBRANCH  23  25
ENDBRANCH  20  23
ENDBRANCH  11  20
ENDBRANCH  15  18
BRANCH  19  21
ATOM     21  C   UNL     1      -5.280   2.117  24.147  0.00  0.00    +0.164 C 
BRANCH  21   1
ATOM      1  S   UNL     1      -4.360   3.347  23.209  0.00  0.00    -0.155 S 
ATOM     27  C   UNL     1      -4.033   4.527  24.542  0.00  0.00    +0.085 C 
ENDBRANCH  21   1
ENDBRANCH  19  21
TORSDOF 9
ENDMDL
MODEL 2
REMARK VINA RESULT:       4.1      2.033      3.144
REMARK  Name = 11882016
REMARK  10 active torsions:
REMARK  status: ('A' for Active; 'I' for Inactive)
REMARK    1  A    between atoms: S_1  and  C_21
REMARK    2  A    between atoms: S_1  and  C_27
REMARK    3  A    between atoms: N_10  and  C_14
REMARK    4  A    between atoms: N_11  and  C_20
REMARK    5  A    between atoms: N_12  and  C_26
REMARK    6  A    between atoms: C_15  and  C_18
REMARK    7  A    between atoms: C_19  and  C_21
REMARK    8  A    between atoms: C_20  and  C_23
REMARK    9  A    between atoms: C_20  and  C_24
REMARK   10  A    between atoms: C_23  and  C_25
REMARK                            x       y       z     vdW  Elec       q    Type
REMARK                         _______ _______ _______ _____ _____    ______ ____
ROOT
ATOM      6  O   UNL     1      -4.183   1.076  26.497  0.00  0.00    -0.275 OA
ATOM      9  N   UNL     1      -3.267  -0.392  24.960  0.00  0.00    -0.287 N 
ATOM     14  C   UNL     1      -1.999  -1.924  23.662  0.00  0.00    +0.094 C 
ATOM     15  C   UNL     1      -2.331  -1.023  25.879  0.00  0.00    +0.164 C 
ATOM     16  C   UNL     1      -1.830  -2.266  25.145  0.00  0.00    +0.055 C 
ATOM     17  C   UNL     1      -3.230  -1.025  23.641  0.00  0.00    +0.131 C 
ATOM     19  C   UNL     1      -4.183   0.563  25.377  0.00  0.00    +0.226 C 
ENDROOT
BRANCH  14  10
ATOM      7  O   UNL     1       0.667  -2.028  24.706  0.00  0.00    -0.252 OA
ATOM     10  N   UNL     1      -0.838  -1.256  23.130  0.00  0.00    -0.295 N 
ATOM     12  N   UNL     1       1.361  -0.605  22.973  0.00  0.00    -0.267 N 
ATOM     22  C   UNL     1       0.436  -1.358  23.702  0.00  0.00    +0.304 C 
ATOM     36  H   UNL     1      -0.961  -0.631  22.339  0.00  0.00    +0.151 HD
ATOM     38  H   UNL     1       1.007  -0.105  22.162  0.00  0.00    +0.156 HD
BRANCH  12  26
ATOM      3  F   UNL     1       2.622   1.865  22.697  0.00  0.00    -0.203 F 
ATOM      4  F   UNL     1       6.782   0.000  23.964  0.00  0.00    -0.205 F 
ATOM     26  C   UNL     1       2.744  -0.448  23.225  0.00  0.00    +0.070 A 
ATOM     30  C   UNL     1       3.345   0.802  23.077  0.00  0.00    +0.147 A 
ATOM     31  C   UNL     1       3.506  -1.546  23.620  0.00  0.00    +0.029 A 
ATOM     33  C   UNL     1       4.709   0.954  23.327  0.00  0.00    +0.078 A 
ATOM     34  C   UNL     1       4.871  -1.395  23.870  0.00  0.00    +0.040 A 
ATOM     35  C   UNL     1       5.471  -0.145  23.723  0.00  0.00    +0.126 A 
ENDBRANCH  12  26
ENDBRANCH  14  10
BRANCH  15  18
ATOM      5  O   UNL     1      -0.560  -0.120  27.200  0.00  0.00    -0.274 OA
ATOM     11  N   UNL     1      -1.050   0.864  25.148  0.00  0.00    -0.302 N 
ATOM     18  C   UNL     1      -1.215  -0.064  26.162  0.00  0.00    +0.234 C 
ATOM     37  H   UNL     1      -1.673   0.834  24.346  0.00  0.00    +0.150 HD
BRANCH  11  20
ATOM     20  C   UNL     1      -0.056   1.912  25.190  0.00  0.00    +0.163 C 
BRANCH  20  24
ATOM      8  O   UNL     1      -1.276   3.195  26.855  0.00  0.00    -0.274 OA
ATOM     13  N   UNL     1       0.890   2.578  27.312  0.00  0.00    -0.328 N 
ATOM     24  C   UNL     1      -0.232   2.643  26.513  0.00  0.00    +0.231 C 
ATOM     39  H   UNL     1       0.900   3.011  28.229  0.00  0.00    +0.145 HD
ATOM     40  H   UNL     1       1.744   2.116  27.018  0.00  0.00    +0.145 HD
ENDBRANCH  20  24
BRANCH  20  23
ATOM     23  C   UNL     1      -0.194   2.891  24.016  0.00  0.00    +0.074 C 
BRANCH  23  25
ATOM      2  S   UNL     1      -2.369   2.314  22.375  0.00  0.00    -0.102 S 
ATOM     25  C   UNL     1      -1.637   3.167  23.667  0.00  0.00    -0.008 A 
ATOM     28  C   UNL     1      -2.509   4.053  24.260  0.00  0.00    +0.011 A 
ATOM     29  C   UNL     1      -3.795   4.031  23.647  0.00  0.00    +0.008 A 
ATOM     32  C   UNL     1      -3.857   3.129  22.608  0.00  0.00    +0.045 A 
ENDBRANCH  23  25
ENDBRANCH  20  23
ENDBRANCH  11  20
ENDBRANCH  15  18
BRANCH  19  21
ATOM     21  C   UNL     1      -5.209   0.972  24.351  0.00  0.00    +0.164 C 
BRANCH  21   1
ATOM      1  S   UNL     1      -6.584   1.732  25.227  0.00  0.00    -0.155 S 
ATOM     27  C   UNL     1      -5.774   3.269  25.736  0.00  0.00    +0.085 C 
ENDBRANCH  21   1
ENDBRANCH  19  21
TORSDOF 9
ENDMDL
MODEL 3
REMARK VINA RESULT:       6.0      2.224      3.628
REMARK  Name = 11882016
REMARK  10 active torsions:
REMARK  status: ('A' for Active; 'I' for Inactive)
REMARK    1  A    between atoms: S_1  and  C_21
REMARK    2  A    between atoms: S_1  and  C_27
REMARK    3  A    between atoms: N_10  and  C_14
REMARK    4  A    between atoms: N_11  and  C_20
REMARK    5  A    between atoms: N_12  and  C_26
REMARK    6  A    between atoms: C_15  and  C_18
REMARK    7  A    between atoms: C_19  and  C_21
REMARK    8  A    between atoms: C_20  and  C_23
REMARK    9  A    between atoms: C_20  and  C_24
REMARK   10  A    between atoms: C_23  and  C_25
REMARK                            x       y       z     vdW  Elec       q    Type
REMARK                         _______ _______ _______ _____ _____    ______ ____
ROOT
ATOM      6  O   UNL     1      -5.142   3.535  24.902  0.00  0.00    -0.275 OA
ATOM      9  N   UNL     1      -3.572   2.582  23.494  0.00  0.00    -0.287 N 
ATOM     14  C   UNL     1      -2.009   1.254  22.296  0.00  0.00    +0.094 C 
ATOM     15  C   UNL     1      -3.885   1.198  23.817  0.00  0.00    +0.164 C 
ATOM     16  C   UNL     1      -3.174   0.369  22.750  0.00  0.00    +0.055 C 
ATOM     17  C   UNL     1      -2.560   2.669  22.441  0.00  0.00    +0.131 C 
ATOM     19  C   UNL     1      -4.295   3.645  24.014  0.00  0.00    +0.226 C 
ENDROOT
BRANCH  14  10
ATOM      7  O   UNL     1       0.536   0.283  21.407  0.00  0.00    -0.252 OA
ATOM     10  N   UNL     1      -0.835   1.050  23.104  0.00  0.00    -0.295 N 
ATOM     12  N   UNL     1       1.335   0.476  23.606  0.00  0.00    -0.267 N 
ATOM     22  C   UNL     1       0.377   0.570  22.592  0.00  0.00    +0.304 C 
ATOM     36  H   UNL     1      -0.905   1.203  24.106  0.00  0.00    +0.151 HD
ATOM     38  H   UNL     1       1.042   0.753  24.539  0.00  0.00    +0.156 HD
BRANCH  12  26
ATOM      3  F   UNL     1       3.358   2.173  22.716  0.00  0.00    -0.203 F 
ATOM      4  F   UNL     1       6.584  -1.257  23.184  0.00  0.00    -0.205 F 
ATOM     26  C   UNL     1       2.674   0.036  23.497  0.00  0.00    +0.070 A 
ATOM     30  C   UNL     1       3.664   0.911  23.048  0.00  0.00    +0.147 A 
ATOM     31  C   UNL     1       3.005  -1.275  23.839  0.00  0.00    +0.029 A 
ATOM     33  C   UNL     1       4.984   0.474  22.942  0.00  0.00    +0.078 A 
ATOM     34  C   UNL     1       4.325  -1.712  23.732  0.00  0.00    +0.040 A 
ATOM     35  C   UNL     1       5.314  -0.837  23.284  0.00  0.00    +0.126 A 
ENDBRANCH  12  26
ENDBRANCH  14  10
BRANCH  15  18
ATOM      5  O   UNL     1      -4.105   0.555  26.106  0.00  0.00    -0.274 OA
ATOM     11  N   UNL     1      -1.991   1.066  25.277  0.00  0.00    -0.302 N 
ATOM     18  C   UNL     1      -3.362   0.894  25.189  0.00  0.00    +0.234 C 
ATOM     37  H   UNL     1      -1.479   1.381  24.457  0.00  0.00    +0.150 HD
BRANCH  11  20
ATOM     20  C   UNL     1      -1.245   0.860  26.497  0.00  0.00    +0.163 C 
BRANCH  20  24
ATOM      8  O   UNL     1       0.396   2.331  25.473  0.00  0.00    -0.274 OA
ATOM     13  N   UNL     1       0.291   2.228  27.766  0.00  0.00    -0.328 N 
ATOM     24  C   UNL     1      -0.099   1.862  26.495  0.00  0.00    +0.231 C 
ATOM     39  H   UNL     1       1.036   2.902  27.906  0.00  0.00    +0.145 HD
ATOM     40  H   UNL     1      -0.129   1.834  28.602  0.00  0.00    +0.145 HD
ENDBRANCH  20  24
BRANCH  20  23
ATOM     23  C   UNL     1      -0.704  -0.571  26.613  0.00  0.00    +0.074 C 
BRANCH  23  25
ATOM      2  S   UNL     1      -3.026  -2.049  26.183  0.00  0.00    -0.102 S 
ATOM     25  C   UNL     1      -1.454  -1.541  25.730  0.00  0.00    -0.008 A 
ATOM     28  C   UNL     1      -1.046  -2.116  24.547  0.00  0.00    +0.011 A 
ATOM     29  C   UNL     1      -2.037  -2.985  24.005  0.00  0.00    +0.008 A 
ATOM     32  C   UNL     1      -3.164  -3.041  24.794  0.00  0.00    +0.045 A 
ENDBRANCH  23  25
ENDBRANCH  20  23
ENDBRANCH  11  20
ENDBRANCH  15  18
BRANCH  19  21
ATOM     21  C   UNL     1      -3.976   4.998  23.429  0.00  0.00    +0.164 C 
BRANCH  21   1
ATOM      1  S   UNL     1      -2.454   5.578  24.194  0.00  0.00    -0.155 S 
ATOM     27  C   UNL     1      -2.489   4.561  25.691  0.00  0.00    +0.085 C 
ENDBRANCH  21   1
ENDBRANCH  19  21
TORSDOF 9
ENDMDL
MODEL 4
REMARK VINA RESULT:       6.2      2.926      6.167
REMARK  Name = 11882016
REMARK  10 active torsions:
REMARK  status: ('A' for Active; 'I' for Inactive)
REMARK    1  A    between atoms: S_1  and  C_21
REMARK    2  A    between atoms: S_1  and  C_27
REMARK    3  A    between atoms: N_10  and  C_14
REMARK    4  A    between atoms: N_11  and  C_20
REMARK    5  A    between atoms: N_12  and  C_26
REMARK    6  A    between atoms: C_15  and  C_18
REMARK    7  A    between atoms: C_19  and  C_21
REMARK    8  A    between atoms: C_20  and  C_23
REMARK    9  A    between atoms: C_20  and  C_24
REMARK   10  A    between atoms: C_23  and  C_25
REMARK                            x       y       z     vdW  Elec       q    Type
REMARK                         _______ _______ _______ _____ _____    ______ ____
ROOT
ATOM      6  O   UNL     1      -1.839   5.114  23.859  0.00  0.00    -0.275 OA
ATOM      9  N   UNL     1      -1.029   3.760  25.552  0.00  0.00    -0.287 N 
ATOM     14  C   UNL     1       0.060   2.208  26.983  0.00  0.00    +0.094 C 
ATOM     15  C   UNL     1       0.220   3.407  24.892  0.00  0.00    +0.164 C 
ATOM     16  C   UNL     1       1.076   2.761  25.979  0.00  0.00    +0.055 C 
ATOM     17  C   UNL     1      -1.097   3.198  26.902  0.00  0.00    +0.131 C 
ATOM     19  C   UNL     1      -1.928   4.661  25.001  0.00  0.00    +0.226 C 
ENDROOT
BRANCH  14  10
ATOM      7  O   UNL     1      -2.268   1.463  25.487  0.00  0.00    -0.252 OA
ATOM     10  N   UNL     1      -0.356   0.870  26.643  0.00  0.00    -0.295 N 
ATOM     12  N   UNL     1      -1.658  -0.790  25.731  0.00  0.00    -0.267 N 
ATOM     22  C   UNL     1      -1.512   0.589  25.905  0.00  0.00    +0.304 C 
ATOM     36  H   UNL     1       0.182   0.090  27.009  0.00  0.00    +0.151 HD
ATOM     38  H   UNL     1      -0.941  -1.382  26.142  0.00  0.00    +0.156 HD
BRANCH  12  26
ATOM      3  F   UNL     1      -1.421  -3.483  25.053  0.00  0.00    -0.203 F 
ATOM      4  F   UNL     1      -5.709  -3.464  23.053  0.00  0.00    -0.205 F 
ATOM     26  C   UNL     1      -2.690  -1.474  25.047  0.00  0.00    +0.070 A 
ATOM     30  C   UNL     1      -2.540  -2.823  24.722  0.00  0.00    +0.147 A 
ATOM     31  C   UNL     1      -3.858  -0.798  24.697  0.00  0.00    +0.029 A 
ATOM     33  C   UNL     1      -3.559  -3.495  24.049  0.00  0.00    +0.078 A 
ATOM     34  C   UNL     1      -4.878  -1.471  24.023  0.00  0.00    +0.040 A 
ATOM     35  C   UNL     1      -4.728  -2.818  23.699  0.00  0.00    +0.126 A 
ENDBRANCH  12  26
ENDBRANCH  14  10
BRANCH  15  18
ATOM      5  O   UNL     1      -1.096   2.535  23.102  0.00  0.00    -0.274 OA
ATOM     11  N   UNL     1       0.902   1.476  23.652  0.00  0.00    -0.302 N 
ATOM     18  C   UNL     1      -0.077   2.446  23.781  0.00  0.00    +0.234 C 
ATOM     37  H   UNL     1       1.691   1.482  24.292  0.00  0.00    +0.150 HD
BRANCH  11  20
ATOM     20  C   UNL     1       0.841   0.418  22.669  0.00  0.00    +0.163 C 
BRANCH  20  24
ATOM      8  O   UNL     1       0.881  -1.053  24.604  0.00  0.00    -0.274 OA
ATOM     13  N   UNL     1      -0.071  -1.821  22.659  0.00  0.00    -0.328 N 
ATOM     24  C   UNL     1       0.583  -0.878  23.425  0.00  0.00    +0.231 C 
ATOM     39  H   UNL     1      -0.317  -2.725  23.047  0.00  0.00    +0.145 HD
ATOM     40  H   UNL     1      -0.314  -1.662  21.687  0.00  0.00    +0.145 HD
ENDBRANCH  20  24
BRANCH  20  23
ATOM     23  C   UNL     1       2.133   0.310  21.849  0.00  0.00    +0.074 C 
BRANCH  23  25
ATOM      2  S   UNL     1       3.720  -1.294  23.483  0.00  0.00    -0.102 S 
ATOM     25  C   UNL     1       3.359   0.198  22.725  0.00  0.00    -0.008 A 
ATOM     28  C   UNL     1       4.288   1.169  23.028  0.00  0.00    +0.011 A 
ATOM     29  C   UNL     1       5.310   0.682  23.893  0.00  0.00    +0.008 A 
ATOM     32  C   UNL     1       5.123  -0.643  24.219  0.00  0.00    +0.045 A 
ENDBRANCH  23  25
ENDBRANCH  20  23
ENDBRANCH  11  20
ENDBRANCH  15  18
BRANCH  19  21
ATOM     21  C   UNL     1      -3.071   5.068  25.896  0.00  0.00    +0.164 C 
BRANCH  21   1
ATOM      1  S   UNL     1      -4.381   3.852  25.695  0.00  0.00    -0.155 S 
ATOM     27  C   UNL     1      -4.242   3.583  23.910  0.00  0.00    +0.085 C 
ENDBRANCH  21   1
ENDBRANCH  19  21
TORSDOF 9
ENDMDL
MODEL 5
REMARK VINA RESULT:       6.4      2.798      5.322
REMARK  Name = 11882016
REMARK  10 active torsions:
REMARK  status: ('A' for Active; 'I' for Inactive)
REMARK    1  A    between atoms: S_1  and  C_21
REMARK    2  A    between atoms: S_1  and  C_27
REMARK    3  A    between atoms: N_10  and  C_14
REMARK    4  A    between atoms: N_11  and  C_20
REMARK    5  A    between atoms: N_12  and  C_26
REMARK    6  A    between atoms: C_15  and  C_18
REMARK    7  A    between atoms: C_19  and  C_21
REMARK    8  A    between atoms: C_20  and  C_23
REMARK    9  A    between atoms: C_20  and  C_24
REMARK   10  A    between atoms: C_23  and  C_25
REMARK                            x       y       z     vdW  Elec       q    Type
REMARK                         _______ _______ _______ _____ _____    ______ ____
ROOT
ATOM      6  O   UNL     1      -4.264  -0.164  23.578  0.00  0.00    -0.275 OA
ATOM      9  N   UNL     1      -3.449   1.965  23.976  0.00  0.00    -0.287 N 
ATOM     14  C   UNL     1      -2.314   4.049  24.089  0.00  0.00    +0.094 C 
ATOM     15  C   UNL     1      -2.686   2.079  22.741  0.00  0.00    +0.164 C 
ATOM     16  C   UNL     1      -2.312   3.556  22.639  0.00  0.00    +0.055 C 
ATOM     17  C   UNL     1      -3.399   3.206  24.750  0.00  0.00    +0.131 C 
ATOM     19  C   UNL     1      -4.249   0.867  24.254  0.00  0.00    +0.226 C 
ENDROOT
BRANCH  14  10
ATOM      7  O   UNL     1      -1.836   3.118  26.757  0.00  0.00    -0.252 OA
ATOM     10  N   UNL     1      -1.032   3.862  24.721  0.00  0.00    -0.295 N 
ATOM     12  N   UNL     1       0.471   3.320  26.374  0.00  0.00    -0.267 N 
ATOM     22  C   UNL     1      -0.883   3.401  26.035  0.00  0.00    +0.304 C 
ATOM     36  H   UNL     1      -0.197   4.137  24.210  0.00  0.00    +0.151 HD
ATOM     38  H   UNL     1       1.140   3.593  25.658  0.00  0.00    +0.156 HD
BRANCH  12  26
ATOM      3  F   UNL     1       2.876   4.376  27.308  0.00  0.00    -0.203 F 
ATOM      4  F   UNL     1       2.673   1.678  31.189  0.00  0.00    -0.205 F 
ATOM     26  C   UNL     1       1.035   2.902  27.601  0.00  0.00    +0.070 A 
ATOM     30  C   UNL     1       2.240   3.450  28.041  0.00  0.00    +0.147 A 
ATOM     31  C   UNL     1       0.384   1.940  28.373  0.00  0.00    +0.029 A 
ATOM     33  C   UNL     1       2.794   3.037  29.252  0.00  0.00    +0.078 A 
ATOM     34  C   UNL     1       0.938   1.526  29.585  0.00  0.00    +0.040 A 
ATOM     35  C   UNL     1       2.142   2.074  30.024  0.00  0.00    +0.126 A 
ENDBRANCH  12  26
ENDBRANCH  14  10
BRANCH  15  18
ATOM      5  O   UNL     1      -0.948   0.704  21.854  0.00  0.00    -0.274 OA
ATOM     11  N   UNL     1      -1.055   1.042  24.154  0.00  0.00    -0.302 N 
ATOM     18  C   UNL     1      -1.470   1.208  22.845  0.00  0.00    +0.234 C 
ATOM     37  H   UNL     1      -1.584   1.484  24.901  0.00  0.00    +0.150 HD
BRANCH  11  20
ATOM     20  C   UNL     1       0.081   0.229  24.526  0.00  0.00    +0.163 C 
BRANCH  20  24
ATOM      8  O   UNL     1       1.671   1.953  23.887  0.00  0.00    -0.274 OA
ATOM     13  N   UNL     1       1.947  -0.165  23.041  0.00  0.00    -0.328 N 
ATOM     24  C   UNL     1       1.291   0.788  23.790  0.00  0.00    +0.231 C 
ATOM     39  H   UNL     1       2.780   0.072  22.513  0.00  0.00    +0.145 HD
ATOM     40  H   UNL     1       1.624  -1.125  22.973  0.00  0.00    +0.145 HD
ENDBRANCH  20  24
BRANCH  20  23
ATOM     23  C   UNL     1      -0.121  -1.250  24.174  0.00  0.00    +0.074 C 
BRANCH  23  25
ATOM      2  S   UNL     1      -2.048  -1.201  26.186  0.00  0.00    -0.102 S 
ATOM     25  C   UNL     1      -1.430  -1.791  24.701  0.00  0.00    -0.008 A 
ATOM     28  C   UNL     1      -2.253  -2.743  24.141  0.00  0.00    +0.011 A 
ATOM     29  C   UNL     1      -3.406  -2.991  24.941  0.00  0.00    +0.008 A 
ATOM     32  C   UNL     1      -3.421  -2.219  26.082  0.00  0.00    +0.045 A 
ENDBRANCH  23  25
ENDBRANCH  20  23
ENDBRANCH  11  20
ENDBRANCH  15  18
BRANCH  19  21
ATOM     21  C   UNL     1      -5.123   0.990  25.475  0.00  0.00    +0.164 C 
BRANCH  21   1
ATOM      1  S   UNL     1      -6.571   1.955  25.015  0.00  0.00    -0.155 S 
ATOM     27  C   UNL     1      -6.097   3.538  25.756  0.00  0.00    +0.085 C 
ENDBRANCH  21   1
ENDBRANCH  19  21
TORSDOF 9
ENDMDL
MODEL 6
REMARK VINA RESULT:       6.7      3.027      4.964
REMARK  Name = 11882016
REMARK  10 active torsions:
REMARK  status: ('A' for Active; 'I' for Inactive)
REMARK    1  A    between atoms: S_1  and  C_21
REMARK    2  A    between atoms: S_1  and  C_27
REMARK    3  A    between atoms: N_10  and  C_14
REMARK    4  A    between atoms: N_11  and  C_20
REMARK    5  A    between atoms: N_12  and  C_26
REMARK    6  A    between atoms: C_15  and  C_18
REMARK    7  A    between atoms: C_19  and  C_21
REMARK    8  A    between atoms: C_20  and  C_23
REMARK    9  A    between atoms: C_20  and  C_24
REMARK   10  A    between atoms: C_23  and  C_25
REMARK                            x       y       z     vdW  Elec       q    Type
REMARK                         _______ _______ _______ _____ _____    ______ ____
ROOT
ATOM      6  O   UNL     1      -6.412   3.609  24.878  0.00  0.00    -0.275 OA
ATOM      9  N   UNL     1      -4.296   3.808  25.793  0.00  0.00    -0.287 N 
ATOM     14  C   UNL     1      -1.993   4.047  26.322  0.00  0.00    +0.094 C 
ATOM     15  C   UNL     1      -3.675   4.423  24.629  0.00  0.00    +0.164 C 
ATOM     16  C   UNL     1      -2.327   4.942  25.125  0.00  0.00    +0.055 C 
ATOM     17  C   UNL     1      -3.359   3.719  26.914  0.00  0.00    +0.131 C 
ATOM     19  C   UNL     1      -5.652   3.523  25.844  0.00  0.00    +0.226 C 
ENDROOT
BRANCH  14  10
ATOM      7  O   UNL     1       0.051   3.864  24.322  0.00  0.00    -0.252 OA
ATOM     10  N   UNL     1      -1.283   2.859  25.921  0.00  0.00    -0.295 N 
ATOM     12  N   UNL     1       0.218   1.563  24.757  0.00  0.00    -0.267 N 
ATOM     22  C   UNL     1      -0.293   2.853  24.931  0.00  0.00    +0.304 C 
ATOM     36  H   UNL     1      -1.556   1.971  26.332  0.00  0.00    +0.151 HD
ATOM     38  H   UNL     1      -0.177   0.832  25.342  0.00  0.00    +0.156 HD
BRANCH  12  26
ATOM      3  F   UNL     1      -0.084  -0.731  23.204  0.00  0.00    -0.203 F 
ATOM      4  F   UNL     1       4.167  -0.079  21.230  0.00  0.00    -0.205 F 
ATOM     26  C   UNL     1       1.224   1.142  23.857  0.00  0.00    +0.070 A 
ATOM     30  C   UNL     1       1.042  -0.012  23.093  0.00  0.00    +0.147 A 
ATOM     31  C   UNL     1       2.399   1.882  23.734  0.00  0.00    +0.029 A 
ATOM     33  C   UNL     1       2.036  -0.424  22.207  0.00  0.00    +0.078 A 
ATOM     34  C   UNL     1       3.394   1.469  22.847  0.00  0.00    +0.040 A 
ATOM     35  C   UNL     1       3.212   0.316  22.084  0.00  0.00    +0.126 A 
ENDBRANCH  12  26
ENDBRANCH  14  10
BRANCH  15  18
ATOM      5  O   UNL     1      -3.943   3.536  22.429  0.00  0.00    -0.274 OA
ATOM     11  N   UNL     1      -2.839   2.260  24.033  0.00  0.00    -0.302 N 
ATOM     18  C   UNL     1      -3.505   3.380  23.566  0.00  0.00    +0.234 C 
ATOM     37  H   UNL     1      -2.547   2.228  25.006  0.00  0.00    +0.150 HD
BRANCH  11  20
ATOM     20  C   UNL     1      -2.568   1.102  23.211  0.00  0.00    +0.163 C 
BRANCH  20  24
ATOM      8  O   UNL     1      -2.615   1.148  20.782  0.00  0.00    -0.274 OA
ATOM     13  N   UNL     1      -1.322   2.693  21.885  0.00  0.00    -0.328 N 
ATOM     24  C   UNL     1      -2.179   1.614  21.831  0.00  0.00    +0.231 C 
ATOM     39  H   UNL     1      -0.998   3.141  21.035  0.00  0.00    +0.145 HD
ATOM     40  H   UNL     1      -0.972   3.071  22.760  0.00  0.00    +0.145 HD
ENDBRANCH  20  24
BRANCH  20  23
ATOM     23  C   UNL     1      -3.777   0.164  23.111  0.00  0.00    +0.074 C 
BRANCH  23  25
ATOM      2  S   UNL     1      -2.664  -1.020  25.374  0.00  0.00    -0.102 S 
ATOM     25  C   UNL     1      -3.604  -1.085  23.944  0.00  0.00    -0.008 A 
ATOM     28  C   UNL     1      -4.114  -2.344  23.719  0.00  0.00    +0.011 A 
ATOM     29  C   UNL     1      -3.729  -3.268  24.733  0.00  0.00    +0.008 A 
ATOM     32  C   UNL     1      -2.938  -2.679  25.695  0.00  0.00    +0.045 A 
ENDBRANCH  23  25
ENDBRANCH  20  23
ENDBRANCH  11  20
ENDBRANCH  15  18
BRANCH  19  21
ATOM     21  C   UNL     1      -6.173   3.074  27.186  0.00  0.00    +0.164 C 
BRANCH  21   1
ATOM      1  S   UNL     1      -6.661   1.349  27.032  0.00  0.00    -0.155 S 
ATOM     27  C   UNL     1      -5.907   0.987  25.427  0.00  0.00    +0.085 C 
ENDBRANCH  21   1
ENDBRANCH  19  21
TORSDOF 9
ENDMDL
MODEL 7
REMARK VINA RESULT:       6.9      3.019      4.573
REMARK  Name = 11882016
REMARK  10 active torsions:
REMARK  status: ('A' for Active; 'I' for Inactive)
REMARK    1  A    between atoms: S_1  and  C_21
REMARK    2  A    between atoms: S_1  and  C_27
REMARK    3  A    between atoms: N_10  and  C_14
REMARK    4  A    between atoms: N_11  and  C_20
REMARK    5  A    between atoms: N_12  and  C_26
REMARK    6  A    between atoms: C_15  and  C_18
REMARK    7  A    between atoms: C_19  and  C_21
REMARK    8  A    between atoms: C_20  and  C_23
REMARK    9  A    between atoms: C_20  and  C_24
REMARK   10  A    between atoms: C_23  and  C_25
REMARK                            x       y       z     vdW  Elec       q    Type
REMARK                         _______ _______ _______ _____ _____    ______ ____
ROOT
ATOM      6  O   UNL     1      -6.070   2.910  24.682  0.00  0.00    -0.275 OA
ATOM      9  N   UNL     1      -3.937   3.573  25.284  0.00  0.00    -0.287 N 
ATOM     14  C   UNL     1      -1.653   4.194  25.486  0.00  0.00    +0.094 C 
ATOM     15  C   UNL     1      -3.492   3.921  23.943  0.00  0.00    +0.164 C 
ATOM     16  C   UNL     1      -2.192   4.698  24.143  0.00  0.00    +0.055 C 
ATOM     17  C   UNL     1      -2.915   3.888  26.284  0.00  0.00    +0.131 C 
ATOM     19  C   UNL     1      -5.236   3.167  25.551  0.00  0.00    +0.226 C 
ENDROOT
BRANCH  14  10
ATOM      7  O   UNL     1       0.412   3.811  23.535  0.00  0.00    -0.252 OA
ATOM     10  N   UNL     1      -0.823   3.027  25.326  0.00  0.00    -0.295 N 
ATOM     12  N   UNL     1       0.809   1.678  24.430  0.00  0.00    -0.267 N 
ATOM     22  C   UNL     1       0.169   2.918  24.344  0.00  0.00    +0.304 C 
ATOM     36  H   UNL     1      -1.007   2.220  25.915  0.00  0.00    +0.151 HD
ATOM     38  H   UNL     1       0.487   1.047  25.159  0.00  0.00    +0.156 HD
BRANCH  12  26
ATOM      3  F   UNL     1       0.340  -0.183  22.409  0.00  0.00    -0.203 F 
ATOM      4  F   UNL     1       4.930  -0.249  21.262  0.00  0.00    -0.205 F 
ATOM     26  C   UNL     1       1.859   1.185  23.621  0.00  0.00    +0.070 A 
ATOM     30  C   UNL     1       1.591   0.253  22.618  0.00  0.00    +0.147 A 
ATOM     31  C   UNL     1       3.164   1.630  23.829  0.00  0.00    +0.029 A 
ATOM     33  C   UNL     1       2.628  -0.231  21.821  0.00  0.00    +0.078 A 
ATOM     34  C   UNL     1       4.201   1.145  23.032  0.00  0.00    +0.040 A 
ATOM     35  C   UNL     1       3.933   0.215  22.029  0.00  0.00    +0.126 A 
ENDBRANCH  12  26
ENDBRANCH  14  10
BRANCH  15  18
ATOM      5  O   UNL     1      -2.816   2.671  22.025  0.00  0.00    -0.274 OA
ATOM     11  N   UNL     1      -3.638   1.532  23.881  0.00  0.00    -0.302 N 
ATOM     18  C   UNL     1      -3.265   2.659  23.168  0.00  0.00    +0.234 C 
ATOM     37  H   UNL     1      -4.029   1.644  24.812  0.00  0.00    +0.150 HD
BRANCH  11  20
ATOM     20  C   UNL     1      -3.541   0.192  23.349  0.00  0.00    +0.163 C 
BRANCH  20  24
ATOM      8  O   UNL     1      -4.396  -0.447  25.532  0.00  0.00    -0.274 OA
ATOM     13  N   UNL     1      -4.633  -1.920  23.785  0.00  0.00    -0.328 N 
ATOM     24  C   UNL     1      -4.210  -0.737  24.353  0.00  0.00    +0.231 C 
ATOM     39  H   UNL     1      -5.109  -2.622  24.341  0.00  0.00    +0.145 HD
ATOM     40  H   UNL     1      -4.476  -2.145  22.808  0.00  0.00    +0.145 HD
ENDBRANCH  20  24
BRANCH  20  23
ATOM     23  C   UNL     1      -2.087  -0.236  23.112  0.00  0.00    +0.074 C 
BRANCH  23  25
ATOM      2  S   UNL     1      -1.006  -2.502  24.320  0.00  0.00    -0.102 S 
ATOM     25  C   UNL     1      -1.463  -0.851  24.343  0.00  0.00    -0.008 A 
ATOM     28  C   UNL     1      -1.189  -0.257  25.555  0.00  0.00    +0.011 A 
ATOM     29  C   UNL     1      -0.596  -1.167  26.476  0.00  0.00    +0.008 A 
ATOM     32  C   UNL     1      -0.439  -2.423  25.934  0.00  0.00    +0.045 A 
ENDBRANCH  23  25
ENDBRANCH  20  23
ENDBRANCH  11  20
ENDBRANCH  15  18
BRANCH  19  21
ATOM     21  C   UNL     1      -5.590   3.035  27.010  0.00  0.00    +0.164 C 
BRANCH  21   1
ATOM      1  S   UNL     1      -6.614   1.568  27.194  0.00  0.00    -0.155 S 
ATOM     27  C   UNL     1      -6.841   1.165  25.444  0.00  0.00    +0.085 C 
ENDBRANCH  21   1
ENDBRANCH  19  21
TORSDOF 9
ENDMDL
