MODEL 1
REMARK VINA RESULT:      -4.6      0.000      0.000
REMARK  Name = 45783349
REMARK  11 active torsions:
REMARK  status: ('A' for Active; 'I' for Inactive)
REMARK    1  A    between atoms: O_3  and  C_22
REMARK    2  A    between atoms: O_4  and  C_25
REMARK    3  A    between atoms: O_4  and  C_27
REMARK    4  A    between atoms: O_5  and  C_28
REMARK    5  A    between atoms: O_5  and  C_29
REMARK    6  A    between atoms: N_6  and  C_14
REMARK    7  A    between atoms: C_10  and  C_15
REMARK    8  A    between atoms: C_14  and  C_16
REMARK    9  A    between atoms: C_18  and  C_21
REMARK   10  A    between atoms: C_19  and  C_22
REMARK   11  A    between atoms: C_27  and  C_28
REMARK                            x       y       z     vdW  Elec       q    Type
REMARK                         _______ _______ _______ _____ _____    ______ ____
ROOT
ATOM      1  O   UNL     1      -7.382  -9.344  14.730  0.00  0.00    -0.336 OA
ATOM      7  N   UNL     1      -8.852  -9.573  13.056  0.00  0.00    -0.190 NA
ATOM      8  N   UNL     1      -6.625  -9.407  13.554  0.00  0.00    -0.056 NA
ATOM     15  C   UNL     1      -8.682  -9.449  14.348  0.00  0.00    +0.245 A 
ATOM     18  C   UNL     1      -7.562  -9.542  12.610  0.00  0.00    +0.202 A 
ENDROOT
BRANCH  18  21
ATOM      9  N   UNL     1      -6.625  -9.865   8.499  0.00  0.00    -0.221 NA
ATOM     21  C   UNL     1      -7.244  -9.651  11.216  0.00  0.00    +0.029 A 
ATOM     23  C   UNL     1      -5.932  -9.873  10.815  0.00  0.00    +0.079 A 
ATOM     24  C   UNL     1      -8.248  -9.537  10.260  0.00  0.00    +0.031 A 
ATOM     25  C   UNL     1      -5.676  -9.970   9.456  0.00  0.00    +0.215 A 
ATOM     26  C   UNL     1      -7.889  -9.651   8.927  0.00  0.00    +0.115 A 
BRANCH  25   4
ATOM      4  O   UNL     1      -4.390 -10.188   9.035  0.00  0.00    -0.474 OA
BRANCH   4  27
ATOM     27  C   UNL     1      -3.445 -10.556  10.032  0.00  0.00    +0.258 C 
BRANCH  27  28
ATOM     28  C   UNL     1      -2.609  -9.344  10.395  0.00  0.00    +0.200 C 
BRANCH  28   5
ATOM      5  O   UNL     1      -1.700  -9.699  11.429  0.00  0.00    -0.380 OA
ATOM     29  C   UNL     1      -2.309 -10.555  12.387  0.00  0.00    +0.194 C 
ENDBRANCH  28   5
ENDBRANCH  27  28
ENDBRANCH   4  27
ENDBRANCH  25   4
ENDBRANCH  18  21
BRANCH  15  10
ATOM      6  N   UNL     1      -9.108  -9.332  16.796  0.00  0.00    -0.284 NA
ATOM     10  C   UNL     1      -9.716  -9.406  15.453  0.00  0.00    +0.146 C 
ATOM     11  C   UNL     1     -10.626  -8.167  15.367  0.00  0.00    +0.030 C 
ATOM     12  C   UNL     1     -10.511  -7.494  16.727  0.00  0.00    +0.017 C 
ATOM     13  C   UNL     1     -10.061  -8.614  17.643  0.00  0.00    +0.085 C 
BRANCH   6  14
ATOM     14  C   UNL     1      -8.763 -10.637  17.343  0.00  0.00    +0.159 C 
BRANCH  14  16
ATOM      2  O   UNL     1      -6.359 -10.561  16.970  0.00  0.00    -0.461 OA
ATOM     16  C   UNL     1      -7.358 -10.666  17.885  0.00  0.00    +0.119 A 
ATOM     17  C   UNL     1      -6.841 -10.781  19.154  0.00  0.00    +0.046 A 
ATOM     19  C   UNL     1      -5.191 -10.609  17.663  0.00  0.00    +0.131 A 
ATOM     20  C   UNL     1      -5.434 -10.744  19.010  0.00  0.00    +0.047 A 
BRANCH  19  22
ATOM     22  C   UNL     1      -3.958 -10.510  16.867  0.00  0.00    +0.230 C 
BRANCH  22   3
ATOM      3  O   UNL     1      -4.274 -10.219  15.504  0.00  0.00    -0.387 OA
ATOM     30  H   UNL     1      -4.348 -11.072  15.043  0.00  0.00    +0.210 HD
ENDBRANCH  22   3
ENDBRANCH  19  22
ENDBRANCH  14  16
ENDBRANCH   6  14
ENDBRANCH  15  10
TORSDOF 10
ENDMDL
MODEL 2
REMARK VINA RESULT:      -4.2     14.142     16.126
REMARK  Name = 45783349
REMARK  11 active torsions:
REMARK  status: ('A' for Active; 'I' for Inactive)
REMARK    1  A    between atoms: O_3  and  C_22
REMARK    2  A    between atoms: O_4  and  C_25
REMARK    3  A    between atoms: O_4  and  C_27
REMARK    4  A    between atoms: O_5  and  C_28
REMARK    5  A    between atoms: O_5  and  C_29
REMARK    6  A    between atoms: N_6  and  C_14
REMARK    7  A    between atoms: C_10  and  C_15
REMARK    8  A    between atoms: C_14  and  C_16
REMARK    9  A    between atoms: C_18  and  C_21
REMARK   10  A    between atoms: C_19  and  C_22
REMARK   11  A    between atoms: C_27  and  C_28
REMARK                            x       y       z     vdW  Elec       q    Type
REMARK                         _______ _______ _______ _____ _____    ______ ____
ROOT
ATOM      1  O   UNL     1      -1.847   2.326  25.487  0.00  0.00    -0.336 OA
ATOM      7  N   UNL     1      -1.865   1.468  23.418  0.00  0.00    -0.190 NA
ATOM      8  N   UNL     1      -0.528   1.940  25.213  0.00  0.00    -0.056 NA
ATOM     15  C   UNL     1      -2.568   2.013  24.378  0.00  0.00    +0.245 A 
ATOM     18  C   UNL     1      -0.620   1.444  23.976  0.00  0.00    +0.202 A 
ENDROOT
BRANCH  18  21
ATOM      9  N   UNL     1       2.715  -0.121  21.899  0.00  0.00    -0.221 NA
ATOM     21  C   UNL     1       0.511   0.914  23.272  0.00  0.00    +0.029 A 
ATOM     23  C   UNL     1       1.778   1.443  23.486  0.00  0.00    +0.079 A 
ATOM     24  C   UNL     1       0.345  -0.134  22.371  0.00  0.00    +0.031 A 
ATOM     25  C   UNL     1       2.838   0.897  22.781  0.00  0.00    +0.215 A 
ATOM     26  C   UNL     1       1.469  -0.611  21.717  0.00  0.00    +0.115 A 
BRANCH  25   4
ATOM      4  O   UNL     1       4.097   1.402  22.974  0.00  0.00    -0.474 OA
BRANCH   4  27
ATOM     27  C   UNL     1       5.172   0.471  22.940  0.00  0.00    +0.258 C 
BRANCH  27  28
ATOM     28  C   UNL     1       5.741   0.320  24.338  0.00  0.00    +0.200 C 
BRANCH  28   5
ATOM      5  O   UNL     1       5.666  -1.048  24.724  0.00  0.00    -0.380 OA
ATOM     29  C   UNL     1       4.726  -1.761  23.932  0.00  0.00    +0.194 C 
ENDBRANCH  28   5
ENDBRANCH  27  28
ENDBRANCH   4  27
ENDBRANCH  25   4
ENDBRANCH  18  21
BRANCH  15  10
ATOM      6  N   UNL     1      -4.826   1.333  25.171  0.00  0.00    -0.284 NA
ATOM     10  C   UNL     1      -4.046   2.338  24.421  0.00  0.00    +0.146 C 
ATOM     11  C   UNL     1      -4.341   3.671  25.132  0.00  0.00    +0.030 C 
ATOM     12  C   UNL     1      -5.341   3.327  26.226  0.00  0.00    +0.017 C 
ATOM     13  C   UNL     1      -5.975   2.040  25.738  0.00  0.00    +0.085 C 
BRANCH   6  14
ATOM     14  C   UNL     1      -5.230   0.194  24.358  0.00  0.00    +0.159 C 
BRANCH  14  16
ATOM      2  O   UNL     1      -3.057  -0.648  25.059  0.00  0.00    -0.461 OA
ATOM     16  C   UNL     1      -4.221  -0.922  24.414  0.00  0.00    +0.119 A 
ATOM     17  C   UNL     1      -4.216  -2.211  23.935  0.00  0.00    +0.046 A 
ATOM     19  C   UNL     1      -2.301  -1.775  24.992  0.00  0.00    +0.131 A 
ATOM     20  C   UNL     1      -2.969  -2.766  24.310  0.00  0.00    +0.047 A 
BRANCH  19  22
ATOM     22  C   UNL     1      -0.980  -1.712  25.635  0.00  0.00    +0.230 C 
BRANCH  22   3
ATOM      3  O   UNL     1      -0.917  -0.592  26.520  0.00  0.00    -0.387 OA
ATOM     30  H   UNL     1      -0.002  -0.262  26.494  0.00  0.00    +0.210 HD
ENDBRANCH  22   3
ENDBRANCH  19  22
ENDBRANCH  14  16
ENDBRANCH   6  14
ENDBRANCH  15  10
TORSDOF 10
ENDMDL
MODEL 3
REMARK VINA RESULT:      -2.2     14.143     16.218
REMARK  Name = 45783349
REMARK  11 active torsions:
REMARK  status: ('A' for Active; 'I' for Inactive)
REMARK    1  A    between atoms: O_3  and  C_22
REMARK    2  A    between atoms: O_4  and  C_25
REMARK    3  A    between atoms: O_4  and  C_27
REMARK    4  A    between atoms: O_5  and  C_28
REMARK    5  A    between atoms: O_5  and  C_29
REMARK    6  A    between atoms: N_6  and  C_14
REMARK    7  A    between atoms: C_10  and  C_15
REMARK    8  A    between atoms: C_14  and  C_16
REMARK    9  A    between atoms: C_18  and  C_21
REMARK   10  A    between atoms: C_19  and  C_22
REMARK   11  A    between atoms: C_27  and  C_28
REMARK                            x       y       z     vdW  Elec       q    Type
REMARK                         _______ _______ _______ _____ _____    ______ ____
ROOT
ATOM      1  O   UNL     1      -1.965   2.849  25.451  0.00  0.00    -0.336 OA
ATOM      7  N   UNL     1      -1.998   1.819  23.462  0.00  0.00    -0.190 NA
ATOM      8  N   UNL     1      -0.672   2.351  25.250  0.00  0.00    -0.056 NA
ATOM     15  C   UNL     1      -2.681   2.492  24.353  0.00  0.00    +0.245 A 
ATOM     18  C   UNL     1      -0.770   1.757  24.057  0.00  0.00    +0.202 A 
ENDROOT
BRANCH  18  21
ATOM      9  N   UNL     1       2.493  -0.205  22.215  0.00  0.00    -0.221 NA
ATOM     21  C   UNL     1       0.336   1.092  23.432  0.00  0.00    +0.029 A 
ATOM     23  C   UNL     1       1.621   1.608  23.555  0.00  0.00    +0.079 A 
ATOM     24  C   UNL     1       0.129  -0.073  22.701  0.00  0.00    +0.031 A 
ATOM     25  C   UNL     1       2.656   0.929  22.933  0.00  0.00    +0.215 A 
ATOM     26  C   UNL     1       1.230  -0.678  22.118  0.00  0.00    +0.115 A 
BRANCH  25   4
ATOM      4  O   UNL     1       3.932   1.417  23.040  0.00  0.00    -0.474 OA
BRANCH   4  27
ATOM     27  C   UNL     1       4.991   0.477  22.909  0.00  0.00    +0.258 C 
BRANCH  27  28
ATOM     28  C   UNL     1       5.737   0.385  24.227  0.00  0.00    +0.200 C 
BRANCH  28   5
ATOM      5  O   UNL     1       5.660  -0.951  24.711  0.00  0.00    -0.380 OA
ATOM     29  C   UNL     1       4.783  -1.742  23.921  0.00  0.00    +0.194 C 
ENDBRANCH  28   5
ENDBRANCH  27  28
ENDBRANCH   4  27
ENDBRANCH  25   4
ENDBRANCH  18  21
BRANCH  15  10
ATOM      6  N   UNL     1      -4.932   2.285  25.393  0.00  0.00    -0.284 NA
ATOM     10  C   UNL     1      -4.134   2.920  24.326  0.00  0.00    +0.146 C 
ATOM     11  C   UNL     1      -4.311   4.432  24.552  0.00  0.00    +0.030 C 
ATOM     12  C   UNL     1      -5.272   4.549  25.726  0.00  0.00    +0.017 C 
ATOM     13  C   UNL     1      -6.006   3.223  25.720  0.00  0.00    +0.085 C 
BRANCH   6  14
ATOM     14  C   UNL     1      -5.445   0.972  25.024  0.00  0.00    +0.159 C 
BRANCH  14  16
ATOM      2  O   UNL     1      -4.461  -1.142  24.327  0.00  0.00    -0.461 OA
ATOM     16  C   UNL     1      -4.409  -0.106  25.204  0.00  0.00    +0.119 A 
ATOM     17  C   UNL     1      -3.379  -0.281  26.099  0.00  0.00    +0.046 A 
ATOM     19  C   UNL     1      -3.453  -1.989  24.665  0.00  0.00    +0.131 A 
ATOM     20  C   UNL     1      -2.758  -1.504  25.749  0.00  0.00    +0.047 A 
BRANCH  19  22
ATOM     22  C   UNL     1      -3.314  -3.197  23.839  0.00  0.00    +0.230 C 
BRANCH  22   3
ATOM      3  O   UNL     1      -4.577  -3.553  23.271  0.00  0.00    -0.387 OA
ATOM     30  H   UNL     1      -5.133  -2.754  23.296  0.00  0.00    +0.210 HD
ENDBRANCH  22   3
ENDBRANCH  19  22
ENDBRANCH  14  16
ENDBRANCH   6  14
ENDBRANCH  15  10
TORSDOF 10
ENDMDL
MODEL 4
REMARK VINA RESULT:      -1.6     15.048     16.956
REMARK  Name = 45783349
REMARK  11 active torsions:
REMARK  status: ('A' for Active; 'I' for Inactive)
REMARK    1  A    between atoms: O_3  and  C_22
REMARK    2  A    between atoms: O_4  and  C_25
REMARK    3  A    between atoms: O_4  and  C_27
REMARK    4  A    between atoms: O_5  and  C_28
REMARK    5  A    between atoms: O_5  and  C_29
REMARK    6  A    between atoms: N_6  and  C_14
REMARK    7  A    between atoms: C_10  and  C_15
REMARK    8  A    between atoms: C_14  and  C_16
REMARK    9  A    between atoms: C_18  and  C_21
REMARK   10  A    between atoms: C_19  and  C_22
REMARK   11  A    between atoms: C_27  and  C_28
REMARK                            x       y       z     vdW  Elec       q    Type
REMARK                         _______ _______ _______ _____ _____    ______ ____
ROOT
ATOM      1  O   UNL     1      -3.220   2.284  23.170  0.00  0.00    -0.336 OA
ATOM      7  N   UNL     1      -1.960   0.904  24.405  0.00  0.00    -0.190 NA
ATOM      8  N   UNL     1      -2.067   2.030  22.417  0.00  0.00    -0.056 NA
ATOM     15  C   UNL     1      -3.076   1.583  24.325  0.00  0.00    +0.245 A 
ATOM     18  C   UNL     1      -1.373   1.210  23.211  0.00  0.00    +0.202 A 
ENDROOT
BRANCH  18  21
ATOM      9  N   UNL     1       2.404  -0.354  22.128  0.00  0.00    -0.221 NA
ATOM     21  C   UNL     1      -0.092   0.680  22.844  0.00  0.00    +0.029 A 
ATOM     23  C   UNL     1       1.071   1.261  23.335  0.00  0.00    +0.079 A 
ATOM     24  C   UNL     1      -0.009  -0.419  21.995  0.00  0.00    +0.031 A 
ATOM     25  C   UNL     1       2.284   0.712  22.950  0.00  0.00    +0.215 A 
ATOM     26  C   UNL     1       1.252  -0.894  21.671  0.00  0.00    +0.115 A 
BRANCH  25   4
ATOM      4  O   UNL     1       3.445   1.267  23.421  0.00  0.00    -0.474 OA
BRANCH   4  27
ATOM     27  C   UNL     1       4.660   0.757  22.887  0.00  0.00    +0.258 C 
BRANCH  27  28
ATOM     28  C   UNL     1       5.666   0.597  24.010  0.00  0.00    +0.200 C 
BRANCH  28   5
ATOM      5  O   UNL     1       5.379  -0.600  24.724  0.00  0.00    -0.380 OA
ATOM     29  C   UNL     1       4.994  -1.649  23.846  0.00  0.00    +0.194 C 
ENDBRANCH  28   5
ENDBRANCH  27  28
ENDBRANCH   4  27
ENDBRANCH  25   4
ENDBRANCH  18  21
BRANCH  15  10
ATOM      6  N   UNL     1      -4.847   3.022  25.317  0.00  0.00    -0.284 NA
ATOM     10  C   UNL     1      -4.208   1.691  25.325  0.00  0.00    +0.146 C 
ATOM     11  C   UNL     1      -5.354   0.705  25.032  0.00  0.00    +0.030 C 
ATOM     12  C   UNL     1      -6.605   1.567  24.938  0.00  0.00    +0.017 C 
ATOM     13  C   UNL     1      -6.239   2.814  25.716  0.00  0.00    +0.085 C 
BRANCH   6  14
ATOM     14  C   UNL     1      -4.170   3.989  26.171  0.00  0.00    +0.159 C 
BRANCH  14  16
ATOM      2  O   UNL     1      -1.846   3.289  26.344  0.00  0.00    -0.461 OA
ATOM     16  C   UNL     1      -2.725   4.163  25.787  0.00  0.00    +0.119 A 
ATOM     17  C   UNL     1      -2.070   5.049  24.964  0.00  0.00    +0.046 A 
ATOM     19  C   UNL     1      -0.616   3.621  25.871  0.00  0.00    +0.131 A 
ATOM     20  C   UNL     1      -0.700   4.696  25.018  0.00  0.00    +0.047 A 
BRANCH  19  22
ATOM     22  C   UNL     1       0.507   2.797  26.343  0.00  0.00    +0.230 C 
BRANCH  22   3
ATOM      3  O   UNL     1       0.101   1.431  26.456  0.00  0.00    -0.387 OA
ATOM     30  H   UNL     1       0.869   0.935  26.790  0.00  0.00    +0.210 HD
ENDBRANCH  22   3
ENDBRANCH  19  22
ENDBRANCH  14  16
ENDBRANCH   6  14
ENDBRANCH  15  10
TORSDOF 10
ENDMDL
