MODEL 1
REMARK VINA RESULT:      -2.4      0.000      0.000
REMARK  Name = 51137107
REMARK  4 active torsions:
REMARK  status: ('A' for Active; 'I' for Inactive)
REMARK    1  A    between atoms: N_5  and  C_13
REMARK    2  A    between atoms: C_8  and  C_12
REMARK    3  A    between atoms: C_13  and  C_14
REMARK    4  A    between atoms: C_23  and  C_26
REMARK                            x       y       z     vdW  Elec       q    Type
REMARK                         _______ _______ _______ _____ _____    ______ ____
ROOT
ATOM      5  N   UNL     1      -3.071  -0.797  24.654  0.00  0.00    -0.297 NA
ATOM      8  C   UNL     1      -0.949  -1.397  23.859  0.00  0.00    +0.070 C 
ATOM      9  C   UNL     1      -1.171  -2.018  25.248  0.00  0.00    +0.028 C 
ATOM     10  C   UNL     1      -2.036  -0.321  23.735  0.00  0.00    +0.096 C 
ATOM     11  C   UNL     1      -2.345  -1.247  25.841  0.00  0.00    +0.085 C 
ENDROOT
BRANCH   8  12
ATOM      1  F   UNL     1       6.209  -0.275  23.337  0.00  0.00    -0.205 F 
ATOM      6  N   UNL     1       1.553  -1.594  23.928  0.00  0.00    -0.341 N 
ATOM      7  N   UNL     1       0.757   0.315  23.116  0.00  0.00    -0.232 NA
ATOM     12  C   UNL     1       0.443  -0.858  23.620  0.00  0.00    +0.113 A 
ATOM     15  C   UNL     1       2.655  -0.846  23.602  0.00  0.00    +0.069 A 
ATOM     16  C   UNL     1       2.132   0.341  23.098  0.00  0.00    +0.089 A 
ATOM     19  C   UNL     1       4.024  -1.099  23.702  0.00  0.00    +0.066 A 
ATOM     20  C   UNL     1       3.011   1.347  22.662  0.00  0.00    +0.032 A 
ATOM     24  C   UNL     1       4.885  -0.087  23.264  0.00  0.00    +0.125 A 
ATOM     25  C   UNL     1       4.389   1.115  22.753  0.00  0.00    +0.040 A 
ATOM     27  H   UNL     1       1.564  -2.524  24.326  0.00  0.00    +0.167 HD
ENDBRANCH   8  12
BRANCH   5  13
ATOM     13  C   UNL     1      -4.055   0.230  24.963  0.00  0.00    +0.119 C 
BRANCH  13  14
ATOM     14  C   UNL     1      -3.452   1.609  24.944  0.00  0.00    -0.033 A 
ATOM     17  C   UNL     1      -2.204   1.832  25.525  0.00  0.00    +0.005 A 
ATOM     18  C   UNL     1      -4.140   2.664  24.344  0.00  0.00    +0.005 A 
ATOM     21  C   UNL     1      -1.645   3.110  25.508  0.00  0.00    +0.012 A 
ATOM     22  C   UNL     1      -3.581   3.941  24.327  0.00  0.00    +0.012 A 
ATOM     23  C   UNL     1      -2.333   4.164  24.908  0.00  0.00    +0.055 A 
BRANCH  23  26
ATOM      2  F   UNL     1      -2.076   6.270  25.981  0.00  0.00    -0.166 F 
ATOM      3  F   UNL     1      -0.368   5.527  24.858  0.00  0.00    -0.166 F 
ATOM      4  F   UNL     1      -2.110   6.276  23.807  0.00  0.00    -0.166 F 
ATOM     26  C   UNL     1      -1.734   5.530  24.886  0.00  0.00    +0.417 C 
ENDBRANCH  23  26
ENDBRANCH  13  14
ENDBRANCH   5  13
TORSDOF 4
ENDMDL
MODEL 2
REMARK VINA RESULT:      -1.9      1.593      2.010
REMARK  Name = 51137107
REMARK  4 active torsions:
REMARK  status: ('A' for Active; 'I' for Inactive)
REMARK    1  A    between atoms: N_5  and  C_13
REMARK    2  A    between atoms: C_8  and  C_12
REMARK    3  A    between atoms: C_13  and  C_14
REMARK    4  A    between atoms: C_23  and  C_26
REMARK                            x       y       z     vdW  Elec       q    Type
REMARK                         _______ _______ _______ _____ _____    ______ ____
ROOT
ATOM      5  N   UNL     1      -2.808  -1.857  24.558  0.00  0.00    -0.297 NA
ATOM      8  C   UNL     1      -0.469  -2.021  24.568  0.00  0.00    +0.070 C 
ATOM      9  C   UNL     1      -0.960  -1.596  25.962  0.00  0.00    +0.028 C 
ATOM     10  C   UNL     1      -1.668  -1.778  23.642  0.00  0.00    +0.096 C 
ATOM     11  C   UNL     1      -2.389  -1.113  25.746  0.00  0.00    +0.085 C 
ENDROOT
BRANCH   8  12
ATOM      1  F   UNL     1       6.328   0.025  23.023  0.00  0.00    -0.205 F 
ATOM      6  N   UNL     1       2.026  -1.853  24.339  0.00  0.00    -0.341 N 
ATOM      7  N   UNL     1       0.859  -0.191  23.436  0.00  0.00    -0.232 NA
ATOM     12  C   UNL     1       0.788  -1.325  24.098  0.00  0.00    +0.113 A 
ATOM     15  C   UNL     1       2.956  -1.004  23.797  0.00  0.00    +0.069 A 
ATOM     16  C   UNL     1       2.203   0.025  23.240  0.00  0.00    +0.089 A 
ATOM     19  C   UNL     1       4.350  -1.047  23.749  0.00  0.00    +0.066 A 
ATOM     20  C   UNL     1       2.863   1.083  22.592  0.00  0.00    +0.032 A 
ATOM     24  C   UNL     1       4.990   0.014  23.100  0.00  0.00    +0.125 A 
ATOM     25  C   UNL     1       4.262   1.061  22.531  0.00  0.00    +0.040 A 
ATOM     27  H   UNL     1       2.224  -2.716  24.830  0.00  0.00    +0.167 HD
ENDBRANCH   8  12
BRANCH   5  13
ATOM     13  C   UNL     1      -4.029  -1.324  23.973  0.00  0.00    +0.119 C 
BRANCH  13  14
ATOM     14  C   UNL     1      -4.200   0.142  24.269  0.00  0.00    -0.033 A 
ATOM     17  C   UNL     1      -5.157   0.560  25.194  0.00  0.00    +0.005 A 
ATOM     18  C   UNL     1      -3.401   1.084  23.620  0.00  0.00    +0.005 A 
ATOM     21  C   UNL     1      -5.316   1.918  25.468  0.00  0.00    +0.012 A 
ATOM     22  C   UNL     1      -3.559   2.441  23.894  0.00  0.00    +0.012 A 
ATOM     23  C   UNL     1      -4.516   2.859  24.819  0.00  0.00    +0.055 A 
BRANCH  23  26
ATOM      2  F   UNL     1      -3.878   4.735  26.132  0.00  0.00    -0.166 F 
ATOM      3  F   UNL     1      -4.393   5.122  24.055  0.00  0.00    -0.166 F 
ATOM      4  F   UNL     1      -5.952   4.652  25.486  0.00  0.00    -0.166 F 
ATOM     26  C   UNL     1      -4.684   4.311  25.115  0.00  0.00    +0.417 C 
ENDBRANCH  23  26
ENDBRANCH  13  14
ENDBRANCH   5  13
TORSDOF 4
ENDMDL
MODEL 3
REMARK VINA RESULT:      -0.9      2.208      8.147
REMARK  Name = 51137107
REMARK  4 active torsions:
REMARK  status: ('A' for Active; 'I' for Inactive)
REMARK    1  A    between atoms: N_5  and  C_13
REMARK    2  A    between atoms: C_8  and  C_12
REMARK    3  A    between atoms: C_13  and  C_14
REMARK    4  A    between atoms: C_23  and  C_26
REMARK                            x       y       z     vdW  Elec       q    Type
REMARK                         _______ _______ _______ _____ _____    ______ ____
ROOT
ATOM      5  N   UNL     1       0.107  -0.722  23.695  0.00  0.00    -0.297 NA
ATOM      8  C   UNL     1      -1.602  -0.048  25.152  0.00  0.00    +0.070 C 
ATOM      9  C   UNL     1      -1.859  -1.493  24.692  0.00  0.00    +0.028 C 
ATOM     10  C   UNL     1      -0.558   0.493  24.165  0.00  0.00    +0.096 C 
ATOM     11  C   UNL     1      -0.975  -1.680  23.465  0.00  0.00    +0.085 C 
ENDROOT
BRANCH   8  12
ATOM      1  F   UNL     1      -6.429   5.363  25.576  0.00  0.00    -0.205 F 
ATOM      6  N   UNL     1      -2.745   2.182  25.293  0.00  0.00    -0.341 N 
ATOM      7  N   UNL     1      -4.085   0.409  25.271  0.00  0.00    -0.232 NA
ATOM     12  C   UNL     1      -2.837   0.819  25.238  0.00  0.00    +0.113 A 
ATOM     15  C   UNL     1      -4.019   2.684  25.365  0.00  0.00    +0.069 A 
ATOM     16  C   UNL     1      -4.837   1.558  25.350  0.00  0.00    +0.089 A 
ATOM     19  C   UNL     1      -4.511   3.988  25.441  0.00  0.00    +0.066 A 
ATOM     20  C   UNL     1      -6.231   1.723  25.414  0.00  0.00    +0.032 A 
ATOM     24  C   UNL     1      -5.900   4.134  25.503  0.00  0.00    +0.125 A 
ATOM     25  C   UNL     1      -6.747   3.023  25.490  0.00  0.00    +0.040 A 
ATOM     27  H   UNL     1      -1.893   2.726  25.282  0.00  0.00    +0.167 HD
ENDBRANCH   8  12
BRANCH   5  13
ATOM     13  C   UNL     1       0.906  -0.492  22.500  0.00  0.00    +0.119 C 
BRANCH  13  14
ATOM     14  C   UNL     1       2.373  -0.379  22.819  0.00  0.00    -0.033 A 
ATOM     17  C   UNL     1       3.079   0.766  22.452  0.00  0.00    +0.005 A 
ATOM     18  C   UNL     1       3.026  -1.419  23.482  0.00  0.00    +0.005 A 
ATOM     21  C   UNL     1       4.438   0.871  22.747  0.00  0.00    +0.012 A 
ATOM     22  C   UNL     1       4.384  -1.314  23.777  0.00  0.00    +0.012 A 
ATOM     23  C   UNL     1       5.091  -0.168  23.411  0.00  0.00    +0.055 A 
BRANCH  23  26
ATOM      2  F   UNL     1       6.920  -0.869  24.758  0.00  0.00    -0.166 F 
ATOM      3  F   UNL     1       7.360  -0.383  22.684  0.00  0.00    -0.166 F 
ATOM      4  F   UNL     1       6.926   1.203  24.099  0.00  0.00    -0.166 F 
ATOM     26  C   UNL     1       6.543  -0.054  23.729  0.00  0.00    +0.417 C 
ENDBRANCH  23  26
ENDBRANCH  13  14
ENDBRANCH   5  13
TORSDOF 4
ENDMDL
MODEL 4
REMARK VINA RESULT:      -0.1      3.669      5.645
REMARK  Name = 51137107
REMARK  4 active torsions:
REMARK  status: ('A' for Active; 'I' for Inactive)
REMARK    1  A    between atoms: N_5  and  C_13
REMARK    2  A    between atoms: C_8  and  C_12
REMARK    3  A    between atoms: C_13  and  C_14
REMARK    4  A    between atoms: C_23  and  C_26
REMARK                            x       y       z     vdW  Elec       q    Type
REMARK                         _______ _______ _______ _____ _____    ______ ____
ROOT
ATOM      5  N   UNL     1       0.302   3.102  25.105  0.00  0.00    -0.297 NA
ATOM      8  C   UNL     1       0.123   0.768  24.971  0.00  0.00    +0.070 C 
ATOM      9  C   UNL     1       0.846   1.300  23.722  0.00  0.00    +0.028 C 
ATOM     10  C   UNL     1      -0.534   2.005  25.597  0.00  0.00    +0.096 C 
ATOM     11  C   UNL     1       0.538   2.792  23.695  0.00  0.00    +0.085 C 
ENDROOT
BRANCH   8  12
ATOM      1  F   UNL     1      -5.661  -3.354  23.447  0.00  0.00    -0.205 F 
ATOM      6  N   UNL     1      -2.160  -0.091  24.378  0.00  0.00    -0.341 N 
ATOM      7  N   UNL     1      -0.613  -1.641  24.756  0.00  0.00    -0.232 NA
ATOM     12  C   UNL     1      -0.859  -0.351  24.708  0.00  0.00    +0.113 A 
ATOM     15  C   UNL     1      -2.795  -1.293  24.202  0.00  0.00    +0.069 A 
ATOM     16  C   UNL     1      -1.809  -2.245  24.444  0.00  0.00    +0.089 A 
ATOM     19  C   UNL     1      -4.109  -1.620  23.863  0.00  0.00    +0.066 A 
ATOM     20  C   UNL     1      -2.134  -3.609  24.345  0.00  0.00    +0.032 A 
ATOM     24  C   UNL     1      -4.415  -2.981  23.769  0.00  0.00    +0.125 A 
ATOM     25  C   UNL     1      -3.447  -3.960  24.006  0.00  0.00    +0.040 A 
ATOM     27  H   UNL     1      -2.582   0.823  24.281  0.00  0.00    +0.167 HD
ENDBRANCH   8  12
BRANCH   5  13
ATOM     13  C   UNL     1      -0.323   4.403  25.290  0.00  0.00    +0.119 C 
BRANCH  13  14
ATOM     14  C   UNL     1      -1.822   4.299  25.376  0.00  0.00    -0.033 A 
ATOM     17  C   UNL     1      -2.578   4.146  24.214  0.00  0.00    +0.005 A 
ATOM     18  C   UNL     1      -2.457   4.352  26.618  0.00  0.00    +0.005 A 
ATOM     21  C   UNL     1      -3.967   4.049  24.293  0.00  0.00    +0.012 A 
ATOM     22  C   UNL     1      -3.845   4.255  26.697  0.00  0.00    +0.012 A 
ATOM     23  C   UNL     1      -4.601   4.103  25.535  0.00  0.00    +0.055 A 
BRANCH  23  26
ATOM      2  F   UNL     1      -6.504   3.414  26.782  0.00  0.00    -0.166 F 
ATOM      3  F   UNL     1      -6.725   5.201  25.563  0.00  0.00    -0.166 F 
ATOM      4  F   UNL     1      -6.640   3.251  24.618  0.00  0.00    -0.166 F 
ATOM     26  C   UNL     1      -6.086   3.996  25.620  0.00  0.00    +0.417 C 
ENDBRANCH  23  26
ENDBRANCH  13  14
ENDBRANCH   5  13
TORSDOF 4
ENDMDL
MODEL 5
REMARK VINA RESULT:       1.5      3.411      4.670
REMARK  Name = 51137107
REMARK  4 active torsions:
REMARK  status: ('A' for Active; 'I' for Inactive)
REMARK    1  A    between atoms: N_5  and  C_13
REMARK    2  A    between atoms: C_8  and  C_12
REMARK    3  A    between atoms: C_13  and  C_14
REMARK    4  A    between atoms: C_23  and  C_26
REMARK                            x       y       z     vdW  Elec       q    Type
REMARK                         _______ _______ _______ _____ _____    ______ ____
ROOT
ATOM      5  N   UNL     1      -6.264   2.889  25.381  0.00  0.00    -0.297 NA
ATOM      8  C   UNL     1      -5.653   0.660  24.990  0.00  0.00    +0.070 C 
ATOM      9  C   UNL     1      -6.297   0.779  26.382  0.00  0.00    +0.028 C 
ATOM     10  C   UNL     1      -5.314   2.103  24.593  0.00  0.00    +0.096 C 
ATOM     11  C   UNL     1      -6.262   2.267  26.706  0.00  0.00    +0.085 C 
ENDROOT
BRANCH   8  12
ATOM      1  F   UNL     1       0.799  -2.622  25.590  0.00  0.00    -0.205 F 
ATOM      6  N   UNL     1      -3.284   0.041  25.544  0.00  0.00    -0.341 N 
ATOM      7  N   UNL     1      -4.396  -1.419  24.289  0.00  0.00    -0.232 NA
ATOM     12  C   UNL     1      -4.461  -0.267  24.919  0.00  0.00    +0.113 A 
ATOM     15  C   UNL     1      -2.402  -0.980  25.300  0.00  0.00    +0.069 A 
ATOM     16  C   UNL     1      -3.119  -1.878  24.515  0.00  0.00    +0.089 A 
ATOM     19  C   UNL     1      -1.078  -1.188  25.688  0.00  0.00    +0.066 A 
ATOM     20  C   UNL     1      -2.495  -3.060  24.082  0.00  0.00    +0.032 A 
ATOM     24  C   UNL     1      -0.471  -2.369  25.248  0.00  0.00    +0.125 A 
ATOM     25  C   UNL     1      -1.165  -3.290  24.459  0.00  0.00    +0.040 A 
ATOM     27  H   UNL     1      -3.094   0.872  26.088  0.00  0.00    +0.167 HD
ENDBRANCH   8  12
BRANCH   5  13
ATOM     13  C   UNL     1      -5.912   4.301  25.431  0.00  0.00    +0.119 C 
BRANCH  13  14
ATOM     14  C   UNL     1      -4.437   4.518  25.228  0.00  0.00    -0.033 A 
ATOM     17  C   UNL     1      -3.536   4.176  26.237  0.00  0.00    +0.005 A 
ATOM     18  C   UNL     1      -3.968   5.060  24.030  0.00  0.00    +0.005 A 
ATOM     21  C   UNL     1      -2.169   4.377  26.049  0.00  0.00    +0.012 A 
ATOM     22  C   UNL     1      -2.602   5.261  23.842  0.00  0.00    +0.012 A 
ATOM     23  C   UNL     1      -1.702   4.919  24.851  0.00  0.00    +0.055 A 
BRANCH  23  26
ATOM      2  F   UNL     1       0.522   4.264  25.378  0.00  0.00    -0.166 F 
ATOM      3  F   UNL     1       0.163   4.971  23.353  0.00  0.00    -0.166 F 
ATOM      4  F   UNL     1       0.187   6.379  25.003  0.00  0.00    -0.166 F 
ATOM     26  C   UNL     1      -0.239   5.131  24.649  0.00  0.00    +0.417 C 
ENDBRANCH  23  26
ENDBRANCH  13  14
ENDBRANCH   5  13
TORSDOF 4
ENDMDL
