MODEL 1
REMARK VINA RESULT:       1.7      0.000      0.000
REMARK  Name = 7687131
REMARK  6 active torsions:
REMARK  status: ('A' for Active; 'I' for Inactive)
REMARK    1  A    between atoms: S_1  and  N_6
REMARK    2  A    between atoms: S_1  and  C_19
REMARK    3  A    between atoms: N_8  and  C_27
REMARK    4  A    between atoms: C_16  and  C_21
REMARK    5  A    between atoms: C_24  and  C_28
REMARK    6  A    between atoms: C_29  and  C_30
REMARK                            x       y       z     vdW  Elec       q    Type
REMARK                         _______ _______ _______ _____ _____    ______ ____
ROOT
ATOM      4  O   UNL     1      -3.286   4.538  27.643  0.00  0.00    -0.268 OA
ATOM      6  N   UNL     1      -4.341   0.162  25.517  0.00  0.00    -0.176 NA
ATOM      7  N   UNL     1      -4.143   3.300  25.849  0.00  0.00    -0.311 N 
ATOM      9  C   UNL     1      -6.163   1.747  26.142  0.00  0.00    +0.025 C 
ATOM     10  C   UNL     1      -5.077   1.946  23.950  0.00  0.00    +0.052 C 
ATOM     11  C   UNL     1      -6.417   2.048  24.676  0.00  0.00    +0.017 C 
ATOM     12  C   UNL     1      -5.584   0.334  26.319  0.00  0.00    +0.114 C 
ATOM     13  C   UNL     1      -4.535   0.510  24.078  0.00  0.00    +0.119 C 
ATOM     14  C   UNL     1      -5.243   2.832  26.703  0.00  0.00    +0.130 C 
ATOM     15  C   UNL     1      -4.054   2.953  24.485  0.00  0.00    +0.033 A 
ATOM     16  C   UNL     1      -3.078   3.490  23.703  0.00  0.00    -0.005 A 
ATOM     17  C   UNL     1      -3.245   4.190  26.462  0.00  0.00    +0.252 A 
ATOM     18  C   UNL     1      -2.137   4.415  24.313  0.00  0.00    +0.015 A 
ATOM     20  C   UNL     1      -2.185   4.754  25.601  0.00  0.00    +0.071 A 
ENDROOT
BRANCH   6   1
ATOM      1  S   UNL     1      -3.457  -1.272  25.818  0.00  0.00    +0.061 S 
ATOM      2  O   UNL     1      -3.998  -2.341  25.004  0.00  0.00    -0.153 OA
ATOM      3  O   UNL     1      -3.294  -1.434  27.247  0.00  0.00    -0.153 OA
BRANCH   1  19
ATOM     19  C   UNL     1      -1.891  -0.820  25.141  0.00  0.00    +0.106 A 
ATOM     22  C   UNL     1      -1.112  -1.788  24.529  0.00  0.00    +0.030 A 
ATOM     23  C   UNL     1      -1.468   0.496  25.232  0.00  0.00    +0.030 A 
ATOM     25  C   UNL     1       0.126  -1.429  23.994  0.00  0.00    +0.025 A 
ATOM     26  C   UNL     1      -0.231   0.854  24.697  0.00  0.00    +0.025 A 
ATOM     27  C   UNL     1       0.566  -0.109  24.078  0.00  0.00    +0.033 A 
BRANCH  27   8
ATOM      5  O   UNL     1       1.636  -0.382  21.277  0.00  0.00    -0.276 OA
ATOM      8  N   UNL     1       1.804   0.249  23.542  0.00  0.00    -0.286 N 
ATOM     29  C   UNL     1       2.253   0.096  22.223  0.00  0.00    +0.214 C 
ATOM     30  C   UNL     1       3.659   0.612  22.049  0.00  0.00    +0.109 C 
ATOM     31  H   UNL     1       2.456   0.673  24.199  0.00  0.00    +0.155 HD
ENDBRANCH  27   8
ENDBRANCH   1  19
ENDBRANCH   6   1
BRANCH  16  21
ATOM     21  C   UNL     1      -2.920   3.153  22.297  0.00  0.00    +0.005 C 
ATOM     24  C   UNL     1      -2.410   1.995  21.887  0.00  0.00    -0.030 C 
ATOM     28  C   UNL     1      -2.242   1.647  20.445  0.00  0.00    +0.035 C 
ENDBRANCH  16  21
TORSDOF 4
ENDMDL
MODEL 2
REMARK VINA RESULT:       5.5      1.372      1.805
REMARK  Name = 7687131
REMARK  6 active torsions:
REMARK  status: ('A' for Active; 'I' for Inactive)
REMARK    1  A    between atoms: S_1  and  N_6
REMARK    2  A    between atoms: S_1  and  C_19
REMARK    3  A    between atoms: N_8  and  C_27
REMARK    4  A    between atoms: C_16  and  C_21
REMARK    5  A    between atoms: C_24  and  C_28
REMARK    6  A    between atoms: C_29  and  C_30
REMARK                            x       y       z     vdW  Elec       q    Type
REMARK                         _______ _______ _______ _____ _____    ______ ____
ROOT
ATOM      4  O   UNL     1      -4.309   3.849  28.269  0.00  0.00    -0.268 OA
ATOM      6  N   UNL     1      -3.710   0.489  24.644  0.00  0.00    -0.176 NA
ATOM      7  N   UNL     1      -4.113   3.319  25.997  0.00  0.00    -0.311 N 
ATOM      9  C   UNL     1      -5.821   1.806  24.826  0.00  0.00    +0.025 C 
ATOM     10  C   UNL     1      -3.924   2.718  23.564  0.00  0.00    +0.052 C 
ATOM     11  C   UNL     1      -5.447   2.596  23.585  0.00  0.00    +0.017 C 
ATOM     12  C   UNL     1      -5.189   0.405  24.795  0.00  0.00    +0.114 C 
ATOM     13  C   UNL     1      -3.300   1.313  23.469  0.00  0.00    +0.119 C 
ATOM     14  C   UNL     1      -5.400   2.612  26.055  0.00  0.00    +0.130 C 
ATOM     15  C   UNL     1      -3.389   3.458  24.794  0.00  0.00    +0.033 A 
ATOM     16  C   UNL     1      -2.254   4.208  24.761  0.00  0.00    -0.005 A 
ATOM     17  C   UNL     1      -3.707   3.925  27.198  0.00  0.00    +0.252 A 
ATOM     18  C   UNL     1      -1.813   4.847  25.989  0.00  0.00    +0.015 A 
ATOM     20  C   UNL     1      -2.466   4.725  27.145  0.00  0.00    +0.071 A 
ENDROOT
BRANCH   6   1
ATOM      1  S   UNL     1      -2.859  -0.981  24.850  0.00  0.00    +0.061 S 
ATOM      2  O   UNL     1      -3.333  -1.942  23.876  0.00  0.00    -0.153 OA
ATOM      3  O   UNL     1      -2.815  -1.307  26.259  0.00  0.00    -0.153 OA
BRANCH   1  19
ATOM     19  C   UNL     1      -1.240  -0.473  24.360  0.00  0.00    +0.106 A 
ATOM     22  C   UNL     1      -0.468  -1.323  23.586  0.00  0.00    +0.030 A 
ATOM     23  C   UNL     1      -0.770   0.767  24.759  0.00  0.00    +0.030 A 
ATOM     25  C   UNL     1       0.811  -0.921  23.200  0.00  0.00    +0.025 A 
ATOM     26  C   UNL     1       0.509   1.169  24.373  0.00  0.00    +0.025 A 
ATOM     27  C   UNL     1       1.299   0.325  23.593  0.00  0.00    +0.033 A 
BRANCH  27   8
ATOM      5  O   UNL     1       3.906  -1.182  23.595  0.00  0.00    -0.276 OA
ATOM      8  N   UNL     1       2.578   0.727  23.205  0.00  0.00    -0.286 N 
ATOM     29  C   UNL     1       3.764  -0.020  23.230  0.00  0.00    +0.214 C 
ATOM     30  C   UNL     1       4.938   0.781  22.726  0.00  0.00    +0.109 C 
ATOM     31  H   UNL     1       2.648   1.684  22.865  0.00  0.00    +0.155 HD
ENDBRANCH  27   8
ENDBRANCH   1  19
ENDBRANCH   6   1
BRANCH  16  21
ATOM     21  C   UNL     1      -1.451   4.369  23.559  0.00  0.00    +0.005 C 
ATOM     24  C   UNL     1      -0.234   4.906  23.572  0.00  0.00    -0.030 C 
ATOM     28  C   UNL     1       0.592   5.077  22.341  0.00  0.00    +0.035 C 
ENDBRANCH  16  21
TORSDOF 4
ENDMDL
