MODEL 1
REMARK VINA RESULT:      -4.1      0.000      0.000
REMARK  Name = 75536053
REMARK  7 active torsions:
REMARK  status: ('A' for Active; 'I' for Inactive)
REMARK    1  A    between atoms: O_1  and  C_8
REMARK    2  A    between atoms: O_2  and  C_10
REMARK    3  A    between atoms: O_4  and  C_22
REMARK    4  A    between atoms: O_4  and  C_23
REMARK    5  A    between atoms: N_5  and  C_6
REMARK    6  A    between atoms: C_7  and  C_12
REMARK    7  A    between atoms: C_11  and  C_15
REMARK                            x       y       z     vdW  Elec       q    Type
REMARK                         _______ _______ _______ _____ _____    ______ ____
ROOT
ATOM      6  C   UNL     1      -2.567   2.224  24.851  0.00  0.00    +0.111 C 
ATOM      7  C   UNL     1      -1.173   2.170  25.518  0.00  0.00    +0.044 C 
ATOM      8  C   UNL     1      -3.226   3.438  25.503  0.00  0.00    +0.164 C 
ATOM      9  C   UNL     1      -0.891   3.608  26.024  0.00  0.00    +0.044 C 
ATOM     10  C   UNL     1      -2.088   4.448  25.585  0.00  0.00    +0.145 C 
ENDROOT
BRANCH   7  12
ATOM     12  C   UNL     1      -0.103   1.607  24.608  0.00  0.00    -0.042 A 
ATOM     18  C   UNL     1       0.951   2.418  24.185  0.00  0.00    +0.007 A 
ATOM     19  C   UNL     1      -0.171   0.277  24.191  0.00  0.00    +0.007 A 
ATOM     20  C   UNL     1       1.936   1.898  23.345  0.00  0.00    +0.046 A 
ATOM     21  C   UNL     1       0.815  -0.242  23.352  0.00  0.00    +0.046 A 
ATOM     22  C   UNL     1       1.869   0.569  22.929  0.00  0.00    +0.120 A 
BRANCH  22   4
ATOM      4  O   UNL     1       2.831   0.062  22.111  0.00  0.00    -0.495 OA
ATOM     23  C   UNL     1       4.184   0.403  22.411  0.00  0.00    +0.277 C 
ENDBRANCH  22   4
ENDBRANCH   7  12
BRANCH   6   5
ATOM      3  O   UNL     1      -3.434   0.291  22.865  0.00  0.00    -0.276 OA
ATOM      5  N   UNL     1      -3.321   1.017  25.075  0.00  0.00    -0.309 N 
ATOM     15  C   UNL     1      -3.691   0.150  24.057  0.00  0.00    +0.216 C 
ATOM     24  H   UNL     1      -3.530   0.762  26.036  0.00  0.00    +0.149 HD
BRANCH  15  11
ATOM     11  C   UNL     1      -4.446  -1.039  24.567  0.00  0.00    +0.075 C 
ATOM     13  C   UNL     1      -3.758  -1.612  25.812  0.00  0.00    +0.013 C 
ATOM     14  C   UNL     1      -4.452  -2.161  23.527  0.00  0.00    +0.013 C 
ATOM     16  C   UNL     1      -3.477  -3.077  25.495  0.00  0.00    +0.001 C 
ATOM     17  C   UNL     1      -3.355  -3.113  23.982  0.00  0.00    +0.001 C 
ENDBRANCH  15  11
ENDBRANCH   6   5
BRANCH   8   1
ATOM      1  O   UNL     1      -4.303   3.941  24.735  0.00  0.00    -0.387 OA
ATOM     25  H   UNL     1      -5.079   3.386  24.921  0.00  0.00    +0.210 HD
ENDBRANCH   8   1
BRANCH  10   2
ATOM      2  O   UNL     1      -1.809   5.006  24.304  0.00  0.00    -0.389 OA
ATOM     26  H   UNL     1      -1.518   5.924  24.443  0.00  0.00    +0.210 HD
ENDBRANCH  10   2
TORSDOF 6
ENDMDL
MODEL 2
REMARK VINA RESULT:      -2.3      1.993      4.426
REMARK  Name = 75536053
REMARK  7 active torsions:
REMARK  status: ('A' for Active; 'I' for Inactive)
REMARK    1  A    between atoms: O_1  and  C_8
REMARK    2  A    between atoms: O_2  and  C_10
REMARK    3  A    between atoms: O_4  and  C_22
REMARK    4  A    between atoms: O_4  and  C_23
REMARK    5  A    between atoms: N_5  and  C_6
REMARK    6  A    between atoms: C_7  and  C_12
REMARK    7  A    between atoms: C_11  and  C_15
REMARK                            x       y       z     vdW  Elec       q    Type
REMARK                         _______ _______ _______ _____ _____    ______ ____
ROOT
ATOM      6  C   UNL     1      -1.729   0.002  24.797  0.00  0.00    +0.111 C 
ATOM      7  C   UNL     1      -1.119  -0.473  23.458  0.00  0.00    +0.044 C 
ATOM      8  C   UNL     1      -2.703  -1.118  25.161  0.00  0.00    +0.164 C 
ATOM      9  C   UNL     1      -1.297  -2.012  23.435  0.00  0.00    +0.044 C 
ATOM     10  C   UNL     1      -1.942  -2.378  24.771  0.00  0.00    +0.145 C 
ENDROOT
BRANCH   7  12
ATOM     12  C   UNL     1       0.307  -0.007  23.260  0.00  0.00    -0.042 A 
ATOM     18  C   UNL     1       0.783   1.103  23.959  0.00  0.00    +0.007 A 
ATOM     19  C   UNL     1       1.147  -0.687  22.377  0.00  0.00    +0.007 A 
ATOM     20  C   UNL     1       2.098   1.532  23.775  0.00  0.00    +0.046 A 
ATOM     21  C   UNL     1       2.461  -0.258  22.194  0.00  0.00    +0.046 A 
ATOM     22  C   UNL     1       2.936   0.852  22.893  0.00  0.00    +0.120 A 
BRANCH  22   4
ATOM      4  O   UNL     1       4.219   1.270  22.714  0.00  0.00    -0.495 OA
ATOM     23  C   UNL     1       5.247   0.491  23.323  0.00  0.00    +0.277 C 
ENDBRANCH  22   4
ENDBRANCH   7  12
BRANCH   6   5
ATOM      3  O   UNL     1      -1.031   2.501  26.102  0.00  0.00    -0.276 OA
ATOM      5  N   UNL     1      -2.395   1.274  24.668  0.00  0.00    -0.309 N 
ATOM     15  C   UNL     1      -1.986   2.419  25.334  0.00  0.00    +0.216 C 
ATOM     24  H   UNL     1      -3.159   1.341  24.002  0.00  0.00    +0.149 HD
BRANCH  15  11
ATOM     11  C   UNL     1      -2.837   3.607  25.002  0.00  0.00    +0.075 C 
ATOM     13  C   UNL     1      -3.701   3.994  26.207  0.00  0.00    +0.013 C 
ATOM     14  C   UNL     1      -3.808   3.274  23.869  0.00  0.00    +0.013 C 
ATOM     16  C   UNL     1      -5.142   3.974  25.710  0.00  0.00    +0.001 C 
ATOM     17  C   UNL     1      -5.127   2.975  24.567  0.00  0.00    +0.001 C 
ENDBRANCH  15  11
ENDBRANCH   6   5
BRANCH   8   1
ATOM      1  O   UNL     1      -3.026  -1.121  26.539  0.00  0.00    -0.387 OA
ATOM     25  H   UNL     1      -2.808  -2.002  26.888  0.00  0.00    +0.210 HD
ENDBRANCH   8   1
BRANCH  10   2
ATOM      2  O   UNL     1      -0.911  -2.664  25.711  0.00  0.00    -0.389 OA
ATOM     26  H   UNL     1      -0.080  -2.305  25.353  0.00  0.00    +0.210 HD
ENDBRANCH  10   2
TORSDOF 6
ENDMDL
MODEL 3
REMARK VINA RESULT:      -1.7      1.958      5.898
REMARK  Name = 75536053
REMARK  7 active torsions:
REMARK  status: ('A' for Active; 'I' for Inactive)
REMARK    1  A    between atoms: O_1  and  C_8
REMARK    2  A    between atoms: O_2  and  C_10
REMARK    3  A    between atoms: O_4  and  C_22
REMARK    4  A    between atoms: O_4  and  C_23
REMARK    5  A    between atoms: N_5  and  C_6
REMARK    6  A    between atoms: C_7  and  C_12
REMARK    7  A    between atoms: C_11  and  C_15
REMARK                            x       y       z     vdW  Elec       q    Type
REMARK                         _______ _______ _______ _____ _____    ______ ____
ROOT
ATOM      6  C   UNL     1      -1.049  -1.201  24.261  0.00  0.00    +0.111 C 
ATOM      7  C   UNL     1      -1.037  -0.468  25.622  0.00  0.00    +0.044 C 
ATOM      8  C   UNL     1      -1.635  -2.571  24.599  0.00  0.00    +0.164 C 
ATOM      9  C   UNL     1      -2.110  -1.174  26.490  0.00  0.00    +0.044 C 
ATOM     10  C   UNL     1      -2.739  -2.238  25.593  0.00  0.00    +0.145 C 
ENDROOT
BRANCH   7  12
ATOM     12  C   UNL     1      -1.226   1.028  25.491  0.00  0.00    -0.042 A 
ATOM     18  C   UNL     1      -0.235   1.899  25.943  0.00  0.00    +0.007 A 
ATOM     19  C   UNL     1      -2.392   1.536  24.918  0.00  0.00    +0.007 A 
ATOM     20  C   UNL     1      -0.411   3.278  25.822  0.00  0.00    +0.046 A 
ATOM     21  C   UNL     1      -2.567   2.914  24.796  0.00  0.00    +0.046 A 
ATOM     22  C   UNL     1      -1.576   3.785  25.249  0.00  0.00    +0.120 A 
BRANCH  22   4
ATOM      4  O   UNL     1      -1.747   5.130  25.130  0.00  0.00    -0.495 OA
ATOM     23  C   UNL     1      -0.651   5.879  24.605  0.00  0.00    +0.277 C 
ENDBRANCH  22   4
ENDBRANCH   7  12
BRANCH   6   5
ATOM      3  O   UNL     1       0.412   0.843  22.802  0.00  0.00    -0.276 OA
ATOM      5  N   UNL     1       0.272  -1.305  23.692  0.00  0.00    -0.309 N 
ATOM     15  C   UNL     1       0.891  -0.269  23.009  0.00  0.00    +0.216 C 
ATOM     24  H   UNL     1       0.793  -2.160  23.862  0.00  0.00    +0.149 HD
BRANCH  15  11
ATOM     11  C   UNL     1       2.267  -0.635  22.543  0.00  0.00    +0.075 C 
ATOM     13  C   UNL     1       3.170  -0.941  23.744  0.00  0.00    +0.013 C 
ATOM     14  C   UNL     1       2.918   0.538  21.807  0.00  0.00    +0.013 C 
ATOM     16  C   UNL     1       4.368  -0.007  23.613  0.00  0.00    +0.001 C 
ATOM     17  C   UNL     1       3.827   1.184  22.842  0.00  0.00    +0.001 C 
ENDBRANCH  15  11
ENDBRANCH   6   5
BRANCH   8   1
ATOM      1  O   UNL     1      -2.153  -3.228  23.458  0.00  0.00    -0.387 OA
ATOM     25  H   UNL     1      -1.465  -3.209  22.772  0.00  0.00    +0.210 HD
ENDBRANCH   8   1
BRANCH  10   2
ATOM      2  O   UNL     1      -3.866  -1.669  24.933  0.00  0.00    -0.389 OA
ATOM     26  H   UNL     1      -4.565  -2.346  24.911  0.00  0.00    +0.210 HD
ENDBRANCH  10   2
TORSDOF 6
ENDMDL
MODEL 4
REMARK VINA RESULT:      -1.5      1.922      6.528
REMARK  Name = 75536053
REMARK  7 active torsions:
REMARK  status: ('A' for Active; 'I' for Inactive)
REMARK    1  A    between atoms: O_1  and  C_8
REMARK    2  A    between atoms: O_2  and  C_10
REMARK    3  A    between atoms: O_4  and  C_22
REMARK    4  A    between atoms: O_4  and  C_23
REMARK    5  A    between atoms: N_5  and  C_6
REMARK    6  A    between atoms: C_7  and  C_12
REMARK    7  A    between atoms: C_11  and  C_15
REMARK                            x       y       z     vdW  Elec       q    Type
REMARK                         _______ _______ _______ _____ _____    ______ ____
ROOT
ATOM      6  C   UNL     1      -1.612  -1.114  24.397  0.00  0.00    +0.111 C 
ATOM      7  C   UNL     1      -2.462  -0.594  25.579  0.00  0.00    +0.044 C 
ATOM      8  C   UNL     1      -1.778  -2.630  24.479  0.00  0.00    +0.164 C 
ATOM      9  C   UNL     1      -3.496  -1.710  25.878  0.00  0.00    +0.044 C 
ATOM     10  C   UNL     1      -3.250  -2.798  24.835  0.00  0.00    +0.145 C 
ENDROOT
BRANCH   7  12
ATOM     12  C   UNL     1      -3.072   0.767  25.316  0.00  0.00    -0.042 A 
ATOM     18  C   UNL     1      -2.266   1.906  25.324  0.00  0.00    +0.007 A 
ATOM     19  C   UNL     1      -4.439   0.882  25.066  0.00  0.00    +0.007 A 
ATOM     20  C   UNL     1      -2.829   3.159  25.081  0.00  0.00    +0.046 A 
ATOM     21  C   UNL     1      -5.002   2.135  24.823  0.00  0.00    +0.046 A 
ATOM     22  C   UNL     1      -4.196   3.273  24.831  0.00  0.00    +0.120 A 
BRANCH  22   4
ATOM      4  O   UNL     1      -4.744   4.496  24.595  0.00  0.00    -0.495 OA
ATOM     23  C   UNL     1      -5.861   4.874  25.400  0.00  0.00    +0.277 C 
ENDBRANCH  22   4
ENDBRANCH   7  12
BRANCH   6   5
ATOM      3  O   UNL     1       0.161  -0.268  22.258  0.00  0.00    -0.276 OA
ATOM      5  N   UNL     1      -0.231  -0.717  24.509  0.00  0.00    -0.309 N 
ATOM     15  C   UNL     1       0.540  -0.326  23.424  0.00  0.00    +0.216 C 
ATOM     24  H   UNL     1       0.170  -0.660  25.441  0.00  0.00    +0.149 HD
BRANCH  15  11
ATOM     11  C   UNL     1       1.932   0.059  23.823  0.00  0.00    +0.075 C 
ATOM     13  C   UNL     1       2.220   1.509  23.418  0.00  0.00    +0.013 C 
ATOM     14  C   UNL     1       2.961  -0.802  23.087  0.00  0.00    +0.013 C 
ATOM     16  C   UNL     1       3.467   1.457  22.542  0.00  0.00    +0.001 C 
ATOM     17  C   UNL     1       3.435   0.067  21.933  0.00  0.00    +0.001 C 
ENDBRANCH  15  11
ENDBRANCH   6   5
BRANCH   8   1
ATOM      1  O   UNL     1      -1.471  -3.270  23.255  0.00  0.00    -0.387 OA
ATOM     25  H   UNL     1      -1.699  -4.210  23.353  0.00  0.00    +0.210 HD
ENDBRANCH   8   1
BRANCH  10   2
ATOM      2  O   UNL     1      -4.080  -2.542  23.706  0.00  0.00    -0.389 OA
ATOM     26  H   UNL     1      -3.981  -1.601  23.477  0.00  0.00    +0.210 HD
ENDBRANCH  10   2
TORSDOF 6
ENDMDL
MODEL 5
REMARK VINA RESULT:      -0.5      2.009      5.681
REMARK  Name = 75536053
REMARK  7 active torsions:
REMARK  status: ('A' for Active; 'I' for Inactive)
REMARK    1  A    between atoms: O_1  and  C_8
REMARK    2  A    between atoms: O_2  and  C_10
REMARK    3  A    between atoms: O_4  and  C_22
REMARK    4  A    between atoms: O_4  and  C_23
REMARK    5  A    between atoms: N_5  and  C_6
REMARK    6  A    between atoms: C_7  and  C_12
REMARK    7  A    between atoms: C_11  and  C_15
REMARK                            x       y       z     vdW  Elec       q    Type
REMARK                         _______ _______ _______ _____ _____    ______ ____
ROOT
ATOM      6  C   UNL     1      -0.234   2.094  24.586  0.00  0.00    +0.111 C 
ATOM      7  C   UNL     1      -1.604   1.956  23.882  0.00  0.00    +0.044 C 
ATOM      8  C   UNL     1      -0.142   3.587  24.897  0.00  0.00    +0.164 C 
ATOM      9  C   UNL     1      -2.440   3.177  24.344  0.00  0.00    +0.044 C 
ATOM     10  C   UNL     1      -1.559   3.937  25.333  0.00  0.00    +0.145 C 
ENDROOT
BRANCH   7  12
ATOM     12  C   UNL     1      -2.265   0.617  24.130  0.00  0.00    -0.042 A 
ATOM     18  C   UNL     1      -1.923  -0.132  25.255  0.00  0.00    +0.007 A 
ATOM     19  C   UNL     1      -3.216   0.132  23.231  0.00  0.00    +0.007 A 
ATOM     20  C   UNL     1      -2.533  -1.366  25.482  0.00  0.00    +0.046 A 
ATOM     21  C   UNL     1      -3.825  -1.101  23.459  0.00  0.00    +0.046 A 
ATOM     22  C   UNL     1      -3.484  -1.850  24.585  0.00  0.00    +0.120 A 
BRANCH  22   4
ATOM      4  O   UNL     1      -4.078  -3.054  24.807  0.00  0.00    -0.495 OA
ATOM     23  C   UNL     1      -4.475  -3.804  23.659  0.00  0.00    +0.277 C 
ENDBRANCH  22   4
ENDBRANCH   7  12
BRANCH   6   5
ATOM      3  O   UNL     1       0.653  -0.636  24.145  0.00  0.00    -0.276 OA
ATOM      5  N   UNL     1       0.851   1.650  23.748  0.00  0.00    -0.309 N 
ATOM     15  C   UNL     1       1.203   0.317  23.599  0.00  0.00    +0.216 C 
ATOM     24  H   UNL     1       1.335   2.349  23.192  0.00  0.00    +0.149 HD
BRANCH  15  11
ATOM     11  C   UNL     1       2.350   0.131  22.653  0.00  0.00    +0.075 C 
ATOM     13  C   UNL     1       3.196  -1.075  23.073  0.00  0.00    +0.013 C 
ATOM     14  C   UNL     1       3.283   1.343  22.693  0.00  0.00    +0.013 C 
ATOM     16  C   UNL     1       4.616  -0.548  23.247  0.00  0.00    +0.001 C 
ATOM     17  C   UNL     1       4.428   0.916  23.599  0.00  0.00    +0.001 C 
ENDBRANCH  15  11
ENDBRANCH   6   5
BRANCH   8   1
ATOM      1  O   UNL     1       0.793   3.864  25.922  0.00  0.00    -0.387 OA
ATOM     25  H   UNL     1       0.389   3.596  26.765  0.00  0.00    +0.210 HD
ENDBRANCH   8   1
BRANCH  10   2
ATOM      2  O   UNL     1      -1.823   3.451  26.646  0.00  0.00    -0.389 OA
ATOM     26  H   UNL     1      -1.360   4.034  27.272  0.00  0.00    +0.210 HD
ENDBRANCH  10   2
TORSDOF 6
ENDMDL
MODEL 6
REMARK VINA RESULT:      -0.1      2.228      4.598
REMARK  Name = 75536053
REMARK  7 active torsions:
REMARK  status: ('A' for Active; 'I' for Inactive)
REMARK    1  A    between atoms: O_1  and  C_8
REMARK    2  A    between atoms: O_2  and  C_10
REMARK    3  A    between atoms: O_4  and  C_22
REMARK    4  A    between atoms: O_4  and  C_23
REMARK    5  A    between atoms: N_5  and  C_6
REMARK    6  A    between atoms: C_7  and  C_12
REMARK    7  A    between atoms: C_11  and  C_15
REMARK                            x       y       z     vdW  Elec       q    Type
REMARK                         _______ _______ _______ _____ _____    ______ ____
ROOT
ATOM      6  C   UNL     1      -1.703   2.461  24.888  0.00  0.00    +0.111 C 
ATOM      7  C   UNL     1      -1.417   1.350  25.923  0.00  0.00    +0.044 C 
ATOM      8  C   UNL     1      -0.694   3.551  25.248  0.00  0.00    +0.164 C 
ATOM      9  C   UNL     1       0.043   1.577  26.394  0.00  0.00    +0.044 C 
ATOM     10  C   UNL     1       0.564   2.760  25.582  0.00  0.00    +0.145 C 
ENDROOT
BRANCH   7  12
ATOM     12  C   UNL     1      -1.691  -0.040  25.390  0.00  0.00    -0.042 A 
ATOM     18  C   UNL     1      -2.989  -0.550  25.407  0.00  0.00    +0.007 A 
ATOM     19  C   UNL     1      -0.645  -0.812  24.883  0.00  0.00    +0.007 A 
ATOM     20  C   UNL     1      -3.241  -1.832  24.916  0.00  0.00    +0.046 A 
ATOM     21  C   UNL     1      -0.897  -2.092  24.391  0.00  0.00    +0.046 A 
ATOM     22  C   UNL     1      -2.195  -2.602  24.408  0.00  0.00    +0.120 A 
BRANCH  22   4
ATOM      4  O   UNL     1      -2.442  -3.852  23.929  0.00  0.00    -0.495 OA
ATOM     23  C   UNL     1      -3.798  -4.174  23.621  0.00  0.00    +0.277 C 
ENDBRANCH  22   4
ENDBRANCH   7  12
BRANCH   6   5
ATOM      3  O   UNL     1      -3.859   1.969  23.005  0.00  0.00    -0.276 OA
ATOM      5  N   UNL     1      -3.061   2.937  24.967  0.00  0.00    -0.309 N 
ATOM     15  C   UNL     1      -4.026   2.648  24.014  0.00  0.00    +0.216 C 
ATOM     24  H   UNL     1      -3.333   3.454  25.799  0.00  0.00    +0.149 HD
BRANCH  15  11
ATOM     11  C   UNL     1      -5.358   3.246  24.352  0.00  0.00    +0.075 C 
ATOM     13  C   UNL     1      -5.245   4.120  25.606  0.00  0.00    +0.013 C 
ATOM     14  C   UNL     1      -6.373   2.150  24.684  0.00  0.00    +0.013 C 
ATOM     16  C   UNL     1      -6.270   3.569  26.591  0.00  0.00    +0.001 C 
ATOM     17  C   UNL     1      -6.408   2.108  26.204  0.00  0.00    +0.001 C 
ENDBRANCH  15  11
ENDBRANCH   6   5
BRANCH   8   1
ATOM      1  O   UNL     1      -0.467   4.446  24.176  0.00  0.00    -0.387 OA
ATOM     25  H   UNL     1      -1.265   4.993  24.078  0.00  0.00    +0.210 HD
ENDBRANCH   8   1
BRANCH  10   2
ATOM      2  O   UNL     1       1.184   2.264  24.399  0.00  0.00    -0.389 OA
ATOM     26  H   UNL     1       1.306   3.017  23.795  0.00  0.00    +0.210 HD
ENDBRANCH  10   2
TORSDOF 6
ENDMDL
