MODEL 1
REMARK VINA RESULT:       7.2      0.000      0.000
REMARK  Name = 51137032
REMARK  5 active torsions:
REMARK  status: ('A' for Active; 'I' for Inactive)
REMARK    1  A    between atoms: S_1  and  C_19
REMARK    2  A    between atoms: S_1  and  C_22
REMARK    3  A    between atoms: C_9  and  C_13
REMARK    4  A    between atoms: C_14  and  C_18
REMARK    5  A    between atoms: C_22  and  C_24
REMARK                            x       y       z     vdW  Elec       q    Type
REMARK                         _______ _______ _______ _____ _____    ______ ____
ROOT
ATOM      2  O   UNL     1      -0.576   1.103  25.343  0.00  0.00    -0.439 OA
ATOM      7  N   UNL     1      -2.579   0.200  24.781  0.00  0.00    -0.213 NA
ATOM     13  C   UNL     1      -1.287   0.010  24.947  0.00  0.00    +0.201 A 
ATOM     15  C   UNL     1      -2.745   1.528  25.091  0.00  0.00    +0.111 A 
ATOM     16  C   UNL     1      -1.522   2.084  25.436  0.00  0.00    +0.155 A 
ATOM     17  C   UNL     1      -3.888   2.340  25.108  0.00  0.00    +0.058 A 
ATOM     19  C   UNL     1      -3.735   3.685  25.476  0.00  0.00    +0.090 A 
ATOM     20  C   UNL     1      -1.331   3.410  25.805  0.00  0.00    +0.050 A 
ATOM     21  C   UNL     1      -2.481   4.207  25.817  0.00  0.00    +0.030 A 
ENDROOT
BRANCH  13   9
ATOM      3  O   UNL     1       2.064  -0.594  20.919  0.00  0.00    -0.268 OA
ATOM      6  N   UNL     1       1.050  -1.091  22.948  0.00  0.00    -0.296 N 
ATOM      9  C   UNL     1      -0.488  -1.267  24.755  0.00  0.00    +0.094 C 
ATOM     10  C   UNL     1      -1.002  -2.082  23.558  0.00  0.00    +0.033 C 
ATOM     11  C   UNL     1       0.999  -1.100  24.411  0.00  0.00    +0.121 C 
ATOM     12  C   UNL     1      -0.212  -1.536  22.377  0.00  0.00    +0.109 C 
ATOM     14  C   UNL     1       2.093  -0.652  22.146  0.00  0.00    +0.265 C 
BRANCH  14  18
ATOM      8  N   UNL     1       4.001  -1.161  23.494  0.00  0.00    -0.250 NA
ATOM     18  C   UNL     1       3.324  -0.207  22.816  0.00  0.00    +0.126 A 
ATOM     23  C   UNL     1       3.726   1.116  22.731  0.00  0.00    +0.033 A 
ATOM     25  C   UNL     1       4.898   1.484  23.382  0.00  0.00    +0.004 A 
ATOM     26  C   UNL     1       5.135  -0.767  24.114  0.00  0.00    +0.111 A 
ATOM     27  C   UNL     1       5.622   0.530  24.090  0.00  0.00    +0.020 A 
ENDBRANCH  14  18
ENDBRANCH  13   9
BRANCH  19   1
ATOM      1  S   UNL     1      -5.138   4.729  25.506  0.00  0.00    -0.003 S 
ATOM      4  O   UNL     1      -5.137   5.480  26.753  0.00  0.00    -0.169 OA
ATOM      5  O   UNL     1      -5.195   5.434  24.235  0.00  0.00    -0.169 OA
BRANCH   1  22
ATOM     22  C   UNL     1      -6.517   3.610  25.576  0.00  0.00    +0.168 C 
ATOM     24  C   UNL     1      -6.181   2.362  26.359  0.00  0.00    +0.028 C 
ENDBRANCH   1  22
ENDBRANCH  19   1
TORSDOF 4
ENDMDL
MODEL 2
REMARK VINA RESULT:       7.6      1.254      1.911
REMARK  Name = 51137032
REMARK  5 active torsions:
REMARK  status: ('A' for Active; 'I' for Inactive)
REMARK    1  A    between atoms: S_1  and  C_19
REMARK    2  A    between atoms: S_1  and  C_22
REMARK    3  A    between atoms: C_9  and  C_13
REMARK    4  A    between atoms: C_14  and  C_18
REMARK    5  A    between atoms: C_22  and  C_24
REMARK                            x       y       z     vdW  Elec       q    Type
REMARK                         _______ _______ _______ _____ _____    ______ ____
ROOT
ATOM      2  O   UNL     1      -3.028  -0.686  25.214  0.00  0.00    -0.439 OA
ATOM      7  N   UNL     1      -1.390   0.882  25.248  0.00  0.00    -0.213 NA
ATOM     13  C   UNL     1      -1.697  -0.396  25.178  0.00  0.00    +0.201 A 
ATOM     15  C   UNL     1      -2.615   1.497  25.336  0.00  0.00    +0.111 A 
ATOM     16  C   UNL     1      -3.620   0.541  25.315  0.00  0.00    +0.155 A 
ATOM     17  C   UNL     1      -2.969   2.850  25.436  0.00  0.00    +0.058 A 
ATOM     19  C   UNL     1      -4.332   3.170  25.511  0.00  0.00    +0.090 A 
ATOM     20  C   UNL     1      -4.979   0.819  25.387  0.00  0.00    +0.050 A 
ATOM     21  C   UNL     1      -5.316   2.174  25.487  0.00  0.00    +0.030 A 
ENDROOT
BRANCH  13   9
ATOM      3  O   UNL     1       1.445  -1.079  20.996  0.00  0.00    -0.268 OA
ATOM      6  N   UNL     1       0.628  -1.448  23.138  0.00  0.00    -0.296 N 
ATOM      9  C   UNL     1      -0.761  -1.587  25.065  0.00  0.00    +0.094 C 
ATOM     10  C   UNL     1      -1.246  -2.589  24.006  0.00  0.00    +0.033 C 
ATOM     11  C   UNL     1       0.669  -1.293  24.593  0.00  0.00    +0.121 C 
ATOM     12  C   UNL     1      -0.604  -2.098  22.716  0.00  0.00    +0.109 C 
ATOM     14  C   UNL     1       1.557  -0.990  22.217  0.00  0.00    +0.265 C 
BRANCH  14  18
ATOM      8  N   UNL     1       3.647  -1.141  23.369  0.00  0.00    -0.250 NA
ATOM     18  C   UNL     1       2.764  -0.333  22.739  0.00  0.00    +0.126 A 
ATOM     23  C   UNL     1       2.944   1.031  22.573  0.00  0.00    +0.033 A 
ATOM     25  C   UNL     1       4.103   1.602  23.086  0.00  0.00    +0.004 A 
ATOM     26  C   UNL     1       4.762  -0.551  23.854  0.00  0.00    +0.111 A 
ATOM     27  C   UNL     1       5.034   0.803  23.740  0.00  0.00    +0.020 A 
ENDBRANCH  14  18
ENDBRANCH  13   9
BRANCH  19   1
ATOM      1  S   UNL     1      -4.811   4.848  25.639  0.00  0.00    -0.003 S 
ATOM      4  O   UNL     1      -6.256   4.913  25.798  0.00  0.00    -0.169 OA
ATOM      5  O   UNL     1      -3.944   5.484  26.619  0.00  0.00    -0.169 OA
BRANCH   1  22
ATOM     22  C   UNL     1      -4.433   5.536  24.044  0.00  0.00    +0.168 C 
ATOM     24  C   UNL     1      -4.048   4.462  23.053  0.00  0.00    +0.028 C 
ENDBRANCH   1  22
ENDBRANCH  19   1
TORSDOF 4
ENDMDL
MODEL 3
REMARK VINA RESULT:       8.1      3.025      8.735
REMARK  Name = 51137032
REMARK  5 active torsions:
REMARK  status: ('A' for Active; 'I' for Inactive)
REMARK    1  A    between atoms: S_1  and  C_19
REMARK    2  A    between atoms: S_1  and  C_22
REMARK    3  A    between atoms: C_9  and  C_13
REMARK    4  A    between atoms: C_14  and  C_18
REMARK    5  A    between atoms: C_22  and  C_24
REMARK                            x       y       z     vdW  Elec       q    Type
REMARK                         _______ _______ _______ _____ _____    ______ ____
ROOT
ATOM      2  O   UNL     1      -0.914   1.930  24.841  0.00  0.00    -0.439 OA
ATOM      7  N   UNL     1       0.956   3.209  24.935  0.00  0.00    -0.213 NA
ATOM     13  C   UNL     1      -0.319   3.091  25.236  0.00  0.00    +0.201 A 
ATOM     15  C   UNL     1       1.238   2.031  24.287  0.00  0.00    +0.111 A 
ATOM     16  C   UNL     1       0.096   1.246  24.228  0.00  0.00    +0.155 A 
ATOM     17  C   UNL     1       2.424   1.545  23.719  0.00  0.00    +0.058 A 
ATOM     19  C   UNL     1       2.396   0.280  23.117  0.00  0.00    +0.090 A 
ATOM     20  C   UNL     1       0.029  -0.012  23.640  0.00  0.00    +0.050 A 
ATOM     21  C   UNL     1       1.222  -0.482  23.079  0.00  0.00    +0.030 A 
ENDROOT
BRANCH  13   9
ATOM      3  O   UNL     1      -5.085   4.409  23.398  0.00  0.00    -0.268 OA
ATOM      6  N   UNL     1      -3.351   4.271  24.936  0.00  0.00    -0.296 N 
ATOM      9  C   UNL     1      -1.213   4.080  25.964  0.00  0.00    +0.094 C 
ATOM     10  C   UNL     1      -1.308   5.418  25.213  0.00  0.00    +0.033 C 
ATOM     11  C   UNL     1      -2.691   3.691  26.108  0.00  0.00    +0.121 C 
ATOM     12  C   UNL     1      -2.480   5.222  24.262  0.00  0.00    +0.109 C 
ATOM     14  C   UNL     1      -4.600   3.948  24.429  0.00  0.00    +0.265 C 
BRANCH  14  18
ATOM      8  N   UNL     1      -5.778   3.336  26.418  0.00  0.00    -0.250 NA
ATOM     18  C   UNL     1      -5.402   2.966  25.173  0.00  0.00    +0.126 A 
ATOM     23  C   UNL     1      -5.728   1.749  24.595  0.00  0.00    +0.033 A 
ATOM     25  C   UNL     1      -6.488   0.856  25.342  0.00  0.00    +0.004 A 
ATOM     26  C   UNL     1      -6.516   2.443  27.114  0.00  0.00    +0.111 A 
ATOM     27  C   UNL     1      -6.894   1.202  26.626  0.00  0.00    +0.020 A 
ENDBRANCH  14  18
ENDBRANCH  13   9
BRANCH  19   1
ATOM      1  S   UNL     1       3.858  -0.358  22.396  0.00  0.00    -0.003 S 
ATOM      4  O   UNL     1       3.963  -1.772  22.723  0.00  0.00    -0.169 OA
ATOM      5  O   UNL     1       3.891   0.069  21.006  0.00  0.00    -0.169 OA
BRANCH   1  22
ATOM     22  C   UNL     1       5.171   0.473  23.258  0.00  0.00    +0.168 C 
ATOM     24  C   UNL     1       5.757  -0.395  24.348  0.00  0.00    +0.028 C 
ENDBRANCH   1  22
ENDBRANCH  19   1
TORSDOF 4
ENDMDL
