MODEL 1
REMARK VINA RESULT:      -1.3      0.000      0.000
REMARK  Name = 38031161
REMARK  14 active torsions:
REMARK  status: ('A' for Active; 'I' for Inactive)
REMARK    1  A    between atoms: O_2  and  C_23
REMARK    2  A    between atoms: N_3  and  C_11
REMARK    3  A    between atoms: C_6  and  C_10
REMARK    4  A    between atoms: C_7  and  C_11
REMARK    5  A    between atoms: C_9  and  C_17
REMARK    6  A    between atoms: C_10  and  C_20
REMARK    7  A    between atoms: C_10  and  C_21
REMARK    8  A    between atoms: C_13  and  C_22
REMARK    9  A    between atoms: C_16  and  C_23
REMARK   10  A    between atoms: C_17  and  C_24
REMARK   11  A    between atoms: C_25  and  C_26
REMARK   12  A    between atoms: C_26  and  C_27
REMARK   13  A    between atoms: C_26  and  C_28
REMARK   14  A    between atoms: C_26  and  C_29
REMARK                            x       y       z     vdW  Elec       q    Type
REMARK                         _______ _______ _______ _____ _____    ______ ____
ROOT
ATOM      6  C   UNL     1      -4.395   3.551  25.844  0.00  0.00    +0.000 C 
ATOM      7  C   UNL     1      -4.748   2.405  24.868  0.00  0.00    +0.029 C 
ATOM      8  C   UNL     1      -2.922   3.462  26.269  0.00  0.00    +0.012 C 
ATOM      9  C   UNL     1      -1.941   3.481  25.077  0.00  0.00    +0.024 C 
ATOM     12  C   UNL     1      -3.689   2.193  23.816  0.00  0.00    -0.023 C 
ATOM     13  C   UNL     1      -2.434   2.674  23.886  0.00  0.00    -0.073 C 
ATOM     22  C   UNL     1      -1.482   2.477  22.738  0.00  0.00    +0.039 C 
ENDROOT
BRANCH   6  10
ATOM     10  C   UNL     1      -4.715   4.924  25.235  0.00  0.00    -0.013 C 
ATOM     20  C   UNL     1      -4.345   4.948  23.755  0.00  0.00    +0.007 C 
ATOM     21  C   UNL     1      -6.189   5.262  25.430  0.00  0.00    +0.007 C 
ENDBRANCH   6  10
BRANCH   7  11
ATOM     11  C   UNL     1      -4.994   1.086  25.608  0.00  0.00    +0.092 C 
BRANCH  11   3
ATOM      3  N   UNL     1      -4.136   0.028  25.074  0.00  0.00    -0.302 NA
ATOM     14  C   UNL     1      -4.858  -0.758  24.064  0.00  0.00    +0.085 C 
ATOM     15  C   UNL     1      -3.642  -0.830  26.160  0.00  0.00    +0.085 C 
ATOM     16  C   UNL     1      -3.377  -2.753  24.539  0.00  0.00    +0.017 C 
ATOM     18  C   UNL     1      -3.956  -1.836  23.457  0.00  0.00    +0.021 C 
ATOM     19  C   UNL     1      -2.700  -1.910  25.624  0.00  0.00    +0.021 C 
BRANCH  16  23
ATOM     23  C   UNL     1      -2.403  -3.762  23.938  0.00  0.00    +0.159 C 
BRANCH  23   2
ATOM      2  O   UNL     1      -1.199  -3.090  23.617  0.00  0.00    -0.395 OA
ATOM     30  H   UNL     1      -0.687  -3.679  23.040  0.00  0.00    +0.209 HD
ENDBRANCH  23   2
ENDBRANCH  16  23
ENDBRANCH  11   3
ENDBRANCH   7  11
BRANCH   9  17
ATOM     17  C   UNL     1      -0.561   3.028  25.573  0.00  0.00    +0.105 C 
BRANCH  17  24
ATOM      1  O   UNL     1       0.969   1.744  24.172  0.00  0.00    -0.424 OA
ATOM      4  N   UNL     1      -0.717   0.545  25.022  0.00  0.00    -0.112 NA
ATOM      5  N   UNL     1       0.065  -0.300  24.258  0.00  0.00    -0.112 NA
ATOM     24  C   UNL     1      -0.152   1.727  24.943  0.00  0.00    +0.218 A 
ATOM     25  C   UNL     1       1.037   0.442  23.780  0.00  0.00    +0.223 A 
BRANCH  25  26
ATOM     26  C   UNL     1       2.158   0.069  22.909  0.00  0.00    +0.040 C 
ATOM     27  C   UNL     1       1.672  -0.403  21.494  0.00  0.00    +0.020 C 
ATOM     28  C   UNL     1       3.004  -1.107  23.510  0.00  0.00    +0.020 C 
ATOM     29  C   UNL     1       3.211   1.200  22.608  0.00  0.00    +0.020 C 
ENDBRANCH  25  26
ENDBRANCH  17  24
ENDBRANCH   9  17
TORSDOF 8
ENDMDL
MODEL 2
REMARK VINA RESULT:      -1.3      2.024      5.654
REMARK  Name = 38031161
REMARK  14 active torsions:
REMARK  status: ('A' for Active; 'I' for Inactive)
REMARK    1  A    between atoms: O_2  and  C_23
REMARK    2  A    between atoms: N_3  and  C_11
REMARK    3  A    between atoms: C_6  and  C_10
REMARK    4  A    between atoms: C_7  and  C_11
REMARK    5  A    between atoms: C_9  and  C_17
REMARK    6  A    between atoms: C_10  and  C_20
REMARK    7  A    between atoms: C_10  and  C_21
REMARK    8  A    between atoms: C_13  and  C_22
REMARK    9  A    between atoms: C_16  and  C_23
REMARK   10  A    between atoms: C_17  and  C_24
REMARK   11  A    between atoms: C_25  and  C_26
REMARK   12  A    between atoms: C_26  and  C_27
REMARK   13  A    between atoms: C_26  and  C_28
REMARK   14  A    between atoms: C_26  and  C_29
REMARK                            x       y       z     vdW  Elec       q    Type
REMARK                         _______ _______ _______ _____ _____    ______ ____
ROOT
ATOM      6  C   UNL     1      -3.175  -1.303  25.443  0.00  0.00    +0.000 C 
ATOM      7  C   UNL     1      -1.982  -0.696  24.670  0.00  0.00    +0.029 C 
ATOM      8  C   UNL     1      -4.204  -0.215  25.785  0.00  0.00    +0.012 C 
ATOM      9  C   UNL     1      -4.726   0.543  24.545  0.00  0.00    +0.024 C 
ATOM     12  C   UNL     1      -2.417   0.271  23.598  0.00  0.00    -0.023 C 
ATOM     13  C   UNL     1      -3.640   0.826  23.518  0.00  0.00    -0.073 C 
ATOM     22  C   UNL     1      -3.997   1.712  22.356  0.00  0.00    +0.039 C 
ENDROOT
BRANCH   6  10
ATOM     10  C   UNL     1      -3.823  -2.453  24.658  0.00  0.00    -0.013 C 
ATOM     20  C   UNL     1      -4.689  -1.904  23.529  0.00  0.00    +0.007 C 
ATOM     21  C   UNL     1      -2.754  -3.393  24.113  0.00  0.00    +0.007 C 
ENDBRANCH   6  10
BRANCH   7  11
ATOM     11  C   UNL     1      -0.996   0.006  25.610  0.00  0.00    +0.092 C 
BRANCH  11   3
ATOM      3  N   UNL     1       0.324   0.110  24.988  0.00  0.00    -0.302 NA
ATOM     14  C   UNL     1       0.452   1.383  24.266  0.00  0.00    +0.085 C 
ATOM     15  C   UNL     1       0.564  -1.033  24.097  0.00  0.00    +0.085 C 
ATOM     16  C   UNL     1       2.181   0.353  22.732  0.00  0.00    +0.017 C 
ATOM     18  C   UNL     1       1.848   1.531  23.654  0.00  0.00    +0.021 C 
ATOM     19  C   UNL     1       1.963  -0.966  23.480  0.00  0.00    +0.021 C 
BRANCH  16  23
ATOM     23  C   UNL     1       3.609   0.457  22.205  0.00  0.00    +0.159 C 
BRANCH  23   2
ATOM      2  O   UNL     1       4.462   0.803  23.280  0.00  0.00    -0.395 OA
ATOM     30  H   UNL     1       5.335   0.423  23.087  0.00  0.00    +0.209 HD
ENDBRANCH  23   2
ENDBRANCH  16  23
ENDBRANCH  11   3
ENDBRANCH   7  11
BRANCH   9  17
ATOM     17  C   UNL     1      -5.446   1.813  25.017  0.00  0.00    +0.105 C 
BRANCH  17  24
ATOM      1  O   UNL     1      -3.290   2.940  24.832  0.00  0.00    -0.424 OA
ATOM      4  N   UNL     1      -4.582   3.704  26.490  0.00  0.00    -0.112 NA
ATOM      5  N   UNL     1      -3.403   4.425  26.500  0.00  0.00    -0.112 NA
ATOM     24  C   UNL     1      -4.471   2.849  25.500  0.00  0.00    +0.218 A 
ATOM     25  C   UNL     1      -2.678   3.945  25.516  0.00  0.00    +0.223 A 
BRANCH  25  26
ATOM     26  C   UNL     1      -1.338   4.337  25.063  0.00  0.00    +0.040 C 
ATOM     27  C   UNL     1      -0.211   3.761  25.991  0.00  0.00    +0.020 C 
ATOM     28  C   UNL     1      -1.155   5.895  25.046  0.00  0.00    +0.020 C 
ATOM     29  C   UNL     1      -0.932   3.875  23.614  0.00  0.00    +0.020 C 
ENDBRANCH  25  26
ENDBRANCH  17  24
ENDBRANCH   9  17
TORSDOF 8
ENDMDL
MODEL 3
REMARK VINA RESULT:      -1.2      1.614      4.870
REMARK  Name = 38031161
REMARK  14 active torsions:
REMARK  status: ('A' for Active; 'I' for Inactive)
REMARK    1  A    between atoms: O_2  and  C_23
REMARK    2  A    between atoms: N_3  and  C_11
REMARK    3  A    between atoms: C_6  and  C_10
REMARK    4  A    between atoms: C_7  and  C_11
REMARK    5  A    between atoms: C_9  and  C_17
REMARK    6  A    between atoms: C_10  and  C_20
REMARK    7  A    between atoms: C_10  and  C_21
REMARK    8  A    between atoms: C_13  and  C_22
REMARK    9  A    between atoms: C_16  and  C_23
REMARK   10  A    between atoms: C_17  and  C_24
REMARK   11  A    between atoms: C_25  and  C_26
REMARK   12  A    between atoms: C_26  and  C_27
REMARK   13  A    between atoms: C_26  and  C_28
REMARK   14  A    between atoms: C_26  and  C_29
REMARK                            x       y       z     vdW  Elec       q    Type
REMARK                         _______ _______ _______ _____ _____    ______ ____
ROOT
ATOM      6  C   UNL     1      -1.195   3.579  24.450  0.00  0.00    +0.000 C 
ATOM      7  C   UNL     1      -1.461   3.668  25.970  0.00  0.00    +0.029 C 
ATOM      8  C   UNL     1      -2.258   2.706  23.767  0.00  0.00    +0.012 C 
ATOM      9  C   UNL     1      -3.700   3.199  24.009  0.00  0.00    +0.024 C 
ATOM     12  C   UNL     1      -2.917   3.892  26.291  0.00  0.00    -0.023 C 
ATOM     13  C   UNL     1      -3.930   3.700  25.427  0.00  0.00    -0.073 C 
ATOM     22  C   UNL     1      -5.341   4.038  25.825  0.00  0.00    +0.039 C 
ENDROOT
BRANCH   6  10
ATOM     10  C   UNL     1      -1.129   4.974  23.811  0.00  0.00    -0.013 C 
ATOM     20  C   UNL     1      -1.200   6.055  24.885  0.00  0.00    +0.007 C 
ATOM     21  C   UNL     1       0.141   5.119  22.980  0.00  0.00    +0.007 C 
ENDBRANCH   6  10
BRANCH   7  11
ATOM     11  C   UNL     1      -0.971   2.416  26.705  0.00  0.00    +0.092 C 
BRANCH  11   3
ATOM      3  N   UNL     1      -0.128   1.601  25.830  0.00  0.00    -0.302 NA
ATOM     14  C   UNL     1       0.470   2.431  24.775  0.00  0.00    +0.085 C 
ATOM     15  C   UNL     1      -0.903   0.492  25.257  0.00  0.00    +0.085 C 
ATOM     16  C   UNL     1       0.662   0.405  23.272  0.00  0.00    +0.017 C 
ATOM     18  C   UNL     1       1.398   1.603  23.882  0.00  0.00    +0.021 C 
ATOM     19  C   UNL     1      -0.023  -0.401  24.381  0.00  0.00    +0.021 C 
BRANCH  16  23
ATOM     23  C   UNL     1       1.615  -0.471  22.464  0.00  0.00    +0.159 C 
BRANCH  23   2
ATOM      2  O   UNL     1       2.943  -0.152  22.835  0.00  0.00    -0.395 OA
ATOM     30  H   UNL     1       3.102   0.769  22.571  0.00  0.00    +0.209 HD
ENDBRANCH  23   2
ENDBRANCH  16  23
ENDBRANCH  11   3
ENDBRANCH   7  11
BRANCH   9  17
ATOM     17  C   UNL     1      -4.673   2.083  23.606  0.00  0.00    +0.105 C 
BRANCH  17  24
ATOM      1  O   UNL     1      -3.949  -0.242  23.762  0.00  0.00    -0.424 OA
ATOM      4  N   UNL     1      -4.660   0.626  25.697  0.00  0.00    -0.112 NA
ATOM      5  N   UNL     1      -4.284  -0.683  25.929  0.00  0.00    -0.112 NA
ATOM     24  C   UNL     1      -4.448   0.839  24.419  0.00  0.00    +0.218 A 
ATOM     25  C   UNL     1      -3.876  -1.151  24.772  0.00  0.00    +0.223 A 
BRANCH  25  26
ATOM     26  C   UNL     1      -3.361  -2.483  24.430  0.00  0.00    +0.040 C 
ATOM     27  C   UNL     1      -4.304  -3.239  23.428  0.00  0.00    +0.020 C 
ATOM     28  C   UNL     1      -3.218  -3.401  25.693  0.00  0.00    +0.020 C 
ATOM     29  C   UNL     1      -1.943  -2.526  23.747  0.00  0.00    +0.020 C 
ENDBRANCH  25  26
ENDBRANCH  17  24
ENDBRANCH   9  17
TORSDOF 8
ENDMDL
MODEL 4
REMARK VINA RESULT:      -1.1      1.586      2.346
REMARK  Name = 38031161
REMARK  14 active torsions:
REMARK  status: ('A' for Active; 'I' for Inactive)
REMARK    1  A    between atoms: O_2  and  C_23
REMARK    2  A    between atoms: N_3  and  C_11
REMARK    3  A    between atoms: C_6  and  C_10
REMARK    4  A    between atoms: C_7  and  C_11
REMARK    5  A    between atoms: C_9  and  C_17
REMARK    6  A    between atoms: C_10  and  C_20
REMARK    7  A    between atoms: C_10  and  C_21
REMARK    8  A    between atoms: C_13  and  C_22
REMARK    9  A    between atoms: C_16  and  C_23
REMARK   10  A    between atoms: C_17  and  C_24
REMARK   11  A    between atoms: C_25  and  C_26
REMARK   12  A    between atoms: C_26  and  C_27
REMARK   13  A    between atoms: C_26  and  C_28
REMARK   14  A    between atoms: C_26  and  C_29
REMARK                            x       y       z     vdW  Elec       q    Type
REMARK                         _______ _______ _______ _____ _____    ______ ____
ROOT
ATOM      6  C   UNL     1      -2.410   2.925  25.792  0.00  0.00    +0.000 C 
ATOM      7  C   UNL     1      -3.723   2.695  25.009  0.00  0.00    +0.029 C 
ATOM      8  C   UNL     1      -1.330   1.935  25.334  0.00  0.00    +0.012 C 
ATOM      9  C   UNL     1      -1.043   2.001  23.819  0.00  0.00    +0.024 C 
ATOM     12  C   UNL     1      -3.489   2.488  23.534  0.00  0.00    -0.023 C 
ATOM     13  C   UNL     1      -2.299   2.189  22.982  0.00  0.00    -0.073 C 
ATOM     22  C   UNL     1      -2.160   2.090  21.487  0.00  0.00    +0.039 C 
ENDROOT
BRANCH   6  10
ATOM     10  C   UNL     1      -1.926   4.376  25.658  0.00  0.00    -0.013 C 
ATOM     20  C   UNL     1      -0.561   4.420  24.979  0.00  0.00    +0.007 C 
ATOM     21  C   UNL     1      -2.943   5.207  24.883  0.00  0.00    +0.007 C 
ENDBRANCH   6  10
BRANCH   7  11
ATOM     11  C   UNL     1      -4.513   1.505  25.565  0.00  0.00    +0.092 C 
BRANCH  11   3
ATOM      3  N   UNL     1      -3.955   0.243  25.078  0.00  0.00    -0.302 NA
ATOM     14  C   UNL     1      -4.924  -0.447  24.215  0.00  0.00    +0.085 C 
ATOM     15  C   UNL     1      -3.548  -0.607  26.205  0.00  0.00    +0.085 C 
ATOM     16  C   UNL     1      -3.859  -2.672  24.777  0.00  0.00    +0.017 C 
ATOM     18  C   UNL     1      -4.336  -1.745  23.654  0.00  0.00    +0.021 C 
ATOM     19  C   UNL     1      -2.913  -1.909  25.711  0.00  0.00    +0.021 C 
BRANCH  16  23
ATOM     23  C   UNL     1      -3.184  -3.918  24.210  0.00  0.00    +0.159 C 
BRANCH  23   2
ATOM      2  O   UNL     1      -1.971  -3.531  23.592  0.00  0.00    -0.395 OA
ATOM     30  H   UNL     1      -2.155  -3.416  22.645  0.00  0.00    +0.209 HD
ENDBRANCH  23   2
ENDBRANCH  16  23
ENDBRANCH  11   3
ENDBRANCH   7  11
BRANCH   9  17
ATOM     17  C   UNL     1      -0.241   0.756  23.418  0.00  0.00    +0.105 C 
BRANCH  17  24
ATOM      1  O   UNL     1       2.077  -0.006  23.460  0.00  0.00    -0.424 OA
ATOM      4  N   UNL     1       1.844   2.199  23.170  0.00  0.00    -0.112 NA
ATOM      5  N   UNL     1       3.195   1.910  23.173  0.00  0.00    -0.112 NA
ATOM     24  C   UNL     1       1.230   1.052  23.341  0.00  0.00    +0.218 A 
ATOM     25  C   UNL     1       3.285   0.611  23.346  0.00  0.00    +0.223 A 
BRANCH  25  26
ATOM     26  C   UNL     1       4.476  -0.243  23.425  0.00  0.00    +0.040 C 
ATOM     27  C   UNL     1       5.474   0.242  24.535  0.00  0.00    +0.020 C 
ATOM     28  C   UNL     1       5.277  -0.262  22.077  0.00  0.00    +0.020 C 
ATOM     29  C   UNL     1       4.222  -1.761  23.757  0.00  0.00    +0.020 C 
ENDBRANCH  25  26
ENDBRANCH  17  24
ENDBRANCH   9  17
TORSDOF 8
ENDMDL
MODEL 5
REMARK VINA RESULT:      -0.9      1.854      5.015
REMARK  Name = 38031161
REMARK  14 active torsions:
REMARK  status: ('A' for Active; 'I' for Inactive)
REMARK    1  A    between atoms: O_2  and  C_23
REMARK    2  A    between atoms: N_3  and  C_11
REMARK    3  A    between atoms: C_6  and  C_10
REMARK    4  A    between atoms: C_7  and  C_11
REMARK    5  A    between atoms: C_9  and  C_17
REMARK    6  A    between atoms: C_10  and  C_20
REMARK    7  A    between atoms: C_10  and  C_21
REMARK    8  A    between atoms: C_13  and  C_22
REMARK    9  A    between atoms: C_16  and  C_23
REMARK   10  A    between atoms: C_17  and  C_24
REMARK   11  A    between atoms: C_25  and  C_26
REMARK   12  A    between atoms: C_26  and  C_27
REMARK   13  A    between atoms: C_26  and  C_28
REMARK   14  A    between atoms: C_26  and  C_29
REMARK                            x       y       z     vdW  Elec       q    Type
REMARK                         _______ _______ _______ _____ _____    ______ ____
ROOT
ATOM      6  C   UNL     1      -3.843  -0.826  23.741  0.00  0.00    +0.000 C 
ATOM      7  C   UNL     1      -4.228  -0.445  25.189  0.00  0.00    +0.029 C 
ATOM      8  C   UNL     1      -2.608  -0.035  23.286  0.00  0.00    +0.012 C 
ATOM      9  C   UNL     1      -1.386  -0.226  24.210  0.00  0.00    +0.024 C 
ATOM     12  C   UNL     1      -3.031  -0.355  26.102  0.00  0.00    -0.023 C 
ATOM     13  C   UNL     1      -1.755  -0.268  25.685  0.00  0.00    -0.073 C 
ATOM     22  C   UNL     1      -0.630  -0.272  26.683  0.00  0.00    +0.039 C 
ENDROOT
BRANCH   6  10
ATOM     10  C   UNL     1      -3.615  -2.339  23.603  0.00  0.00    -0.013 C 
ATOM     20  C   UNL     1      -3.325  -2.959  24.966  0.00  0.00    +0.007 C 
ATOM     21  C   UNL     1      -4.824  -3.002  22.952  0.00  0.00    +0.007 C 
ENDBRANCH   6  10
BRANCH   7  11
ATOM     11  C   UNL     1      -4.999   0.878  25.240  0.00  0.00    +0.092 C 
BRANCH  11   3
ATOM      3  N   UNL     1      -4.077   2.011  25.315  0.00  0.00    -0.302 NA
ATOM     14  C   UNL     1      -4.607   3.047  26.212  0.00  0.00    +0.085 C 
ATOM     15  C   UNL     1      -3.818   2.553  23.974  0.00  0.00    +0.085 C 
ATOM     16  C   UNL     1      -3.286   4.814  24.975  0.00  0.00    +0.017 C 
ATOM     18  C   UNL     1      -3.628   4.216  26.343  0.00  0.00    +0.021 C 
ATOM     19  C   UNL     1      -2.812   3.705  24.029  0.00  0.00    +0.021 C 
BRANCH  16  23
ATOM     23  C   UNL     1      -2.235   5.913  25.103  0.00  0.00    +0.159 C 
BRANCH  23   2
ATOM      2  O   UNL     1      -0.953   5.325  24.994  0.00  0.00    -0.395 OA
ATOM     30  H   UNL     1      -0.659   5.444  24.076  0.00  0.00    +0.209 HD
ENDBRANCH  23   2
ENDBRANCH  16  23
ENDBRANCH  11   3
ENDBRANCH   7  11
BRANCH   9  17
ATOM     17  C   UNL     1      -0.354   0.862  23.885  0.00  0.00    +0.105 C 
BRANCH  17  24
ATOM      1  O   UNL     1       2.047   0.436  23.792  0.00  0.00    -0.424 OA
ATOM      4  N   UNL     1       0.910  -0.349  22.033  0.00  0.00    -0.112 NA
ATOM      5  N   UNL     1       2.245  -0.657  21.851  0.00  0.00    -0.112 NA
ATOM     24  C   UNL     1       0.842   0.289  23.178  0.00  0.00    +0.218 A 
ATOM     25  C   UNL     1       2.872  -0.180  22.901  0.00  0.00    +0.223 A 
BRANCH  25  26
ATOM     26  C   UNL     1       4.300  -0.223  23.238  0.00  0.00    +0.040 C 
ATOM     27  C   UNL     1       5.209  -0.067  21.969  0.00  0.00    +0.020 C 
ATOM     28  C   UNL     1       4.703  -1.578  23.918  0.00  0.00    +0.020 C 
ATOM     29  C   UNL     1       4.813   0.886  24.231  0.00  0.00    +0.020 C 
ENDBRANCH  25  26
ENDBRANCH  17  24
ENDBRANCH   9  17
TORSDOF 8
ENDMDL
MODEL 6
REMARK VINA RESULT:      -0.1      2.293      6.518
REMARK  Name = 38031161
REMARK  14 active torsions:
REMARK  status: ('A' for Active; 'I' for Inactive)
REMARK    1  A    between atoms: O_2  and  C_23
REMARK    2  A    between atoms: N_3  and  C_11
REMARK    3  A    between atoms: C_6  and  C_10
REMARK    4  A    between atoms: C_7  and  C_11
REMARK    5  A    between atoms: C_9  and  C_17
REMARK    6  A    between atoms: C_10  and  C_20
REMARK    7  A    between atoms: C_10  and  C_21
REMARK    8  A    between atoms: C_13  and  C_22
REMARK    9  A    between atoms: C_16  and  C_23
REMARK   10  A    between atoms: C_17  and  C_24
REMARK   11  A    between atoms: C_25  and  C_26
REMARK   12  A    between atoms: C_26  and  C_27
REMARK   13  A    between atoms: C_26  and  C_28
REMARK   14  A    between atoms: C_26  and  C_29
REMARK                            x       y       z     vdW  Elec       q    Type
REMARK                         _______ _______ _______ _____ _____    ______ ____
ROOT
ATOM      6  C   UNL     1      -2.559  -1.018  25.144  0.00  0.00    +0.000 C 
ATOM      7  C   UNL     1      -1.052  -0.939  25.479  0.00  0.00    +0.029 C 
ATOM      8  C   UNL     1      -2.935   0.045  24.103  0.00  0.00    +0.012 C 
ATOM      9  C   UNL     1      -2.113  -0.058  22.800  0.00  0.00    +0.024 C 
ATOM     12  C   UNL     1      -0.193  -0.774  24.251  0.00  0.00    -0.023 C 
ATOM     13  C   UNL     1      -0.649  -0.392  23.044  0.00  0.00    -0.073 C 
ATOM     22  C   UNL     1       0.281  -0.344  21.863  0.00  0.00    +0.039 C 
ENDROOT
BRANCH   6  10
ATOM     10  C   UNL     1      -2.954  -2.424  24.670  0.00  0.00    -0.013 C 
ATOM     20  C   UNL     1      -3.103  -3.365  25.861  0.00  0.00    +0.007 C 
ATOM     21  C   UNL     1      -4.243  -2.369  23.859  0.00  0.00    +0.007 C 
ENDBRANCH   6  10
BRANCH   7  11
ATOM     11  C   UNL     1      -0.748   0.197  26.462  0.00  0.00    +0.092 C 
BRANCH  11   3
ATOM      3  N   UNL     1      -0.965   1.498  25.829  0.00  0.00    -0.302 NA
ATOM     14  C   UNL     1       0.245   1.931  25.117  0.00  0.00    +0.085 C 
ATOM     15  C   UNL     1      -1.378   2.493  26.827  0.00  0.00    +0.085 C 
ATOM     16  C   UNL     1      -0.448   4.349  25.384  0.00  0.00    +0.017 C 
ATOM     18  C   UNL     1       0.018   3.267  24.405  0.00  0.00    +0.021 C 
ATOM     19  C   UNL     1      -1.661   3.847  26.173  0.00  0.00    +0.021 C 
BRANCH  16  23
ATOM     23  C   UNL     1      -0.768   5.649  24.652  0.00  0.00    +0.159 C 
BRANCH  23   2
ATOM      2  O   UNL     1      -2.131   5.964  24.868  0.00  0.00    -0.395 OA
ATOM     30  H   UNL     1      -2.162   6.859  25.246  0.00  0.00    +0.209 HD
ENDBRANCH  23   2
ENDBRANCH  16  23
ENDBRANCH  11   3
ENDBRANCH   7  11
BRANCH   9  17
ATOM     17  C   UNL     1      -2.303   1.236  21.998  0.00  0.00    +0.105 C 
BRANCH  17  24
ATOM      1  O   UNL     1      -3.991   1.803  23.667  0.00  0.00    -0.424 OA
ATOM      4  N   UNL     1      -2.964   3.574  22.767  0.00  0.00    -0.112 NA
ATOM      5  N   UNL     1      -3.885   4.037  23.687  0.00  0.00    -0.112 NA
ATOM     24  C   UNL     1      -3.061   2.265  22.789  0.00  0.00    +0.218 A 
ATOM     25  C   UNL     1      -4.462   2.969  24.188  0.00  0.00    +0.223 A 
BRANCH  25  26
ATOM     26  C   UNL     1      -5.513   2.864  25.208  0.00  0.00    +0.040 C 
ATOM     27  C   UNL     1      -6.670   1.902  24.763  0.00  0.00    +0.020 C 
ATOM     28  C   UNL     1      -6.174   4.252  25.517  0.00  0.00    +0.020 C 
ATOM     29  C   UNL     1      -5.063   2.317  26.614  0.00  0.00    +0.020 C 
ENDBRANCH  25  26
ENDBRANCH  17  24
ENDBRANCH   9  17
TORSDOF 8
ENDMDL
MODEL 7
REMARK VINA RESULT:      -0.0      1.935      5.311
REMARK  Name = 38031161
REMARK  14 active torsions:
REMARK  status: ('A' for Active; 'I' for Inactive)
REMARK    1  A    between atoms: O_2  and  C_23
REMARK    2  A    between atoms: N_3  and  C_11
REMARK    3  A    between atoms: C_6  and  C_10
REMARK    4  A    between atoms: C_7  and  C_11
REMARK    5  A    between atoms: C_9  and  C_17
REMARK    6  A    between atoms: C_10  and  C_20
REMARK    7  A    between atoms: C_10  and  C_21
REMARK    8  A    between atoms: C_13  and  C_22
REMARK    9  A    between atoms: C_16  and  C_23
REMARK   10  A    between atoms: C_17  and  C_24
REMARK   11  A    between atoms: C_25  and  C_26
REMARK   12  A    between atoms: C_26  and  C_27
REMARK   13  A    between atoms: C_26  and  C_28
REMARK   14  A    between atoms: C_26  and  C_29
REMARK                            x       y       z     vdW  Elec       q    Type
REMARK                         _______ _______ _______ _____ _____    ______ ____
ROOT
ATOM      6  C   UNL     1      -1.126   3.712  24.473  0.00  0.00    +0.000 C 
ATOM      7  C   UNL     1      -0.852   2.913  25.768  0.00  0.00    +0.029 C 
ATOM      8  C   UNL     1      -2.628   3.717  24.152  0.00  0.00    +0.012 C 
ATOM      9  C   UNL     1      -3.495   4.280  25.297  0.00  0.00    +0.024 C 
ATOM     12  C   UNL     1      -1.839   3.227  26.863  0.00  0.00    -0.023 C 
ATOM     13  C   UNL     1      -3.019   3.847  26.675  0.00  0.00    -0.073 C 
ATOM     22  C   UNL     1      -3.891   4.190  27.852  0.00  0.00    +0.039 C 
ENDROOT
BRANCH   6  10
ATOM     10  C   UNL     1      -0.575   5.142  24.570  0.00  0.00    -0.013 C 
ATOM     20  C   UNL     1       0.289   5.462  23.354  0.00  0.00    +0.007 C 
ATOM     21  C   UNL     1      -1.716   6.144  24.703  0.00  0.00    +0.007 C 
ENDBRANCH   6  10
BRANCH   7  11
ATOM     11  C   UNL     1      -0.849   1.403  25.512  0.00  0.00    +0.092 C 
BRANCH  11   3
ATOM      3  N   UNL     1      -0.062   1.083  24.320  0.00  0.00    -0.302 NA
ATOM     14  C   UNL     1       0.116  -0.370  24.196  0.00  0.00    +0.085 C 
ATOM     15  C   UNL     1       1.234   1.775  24.359  0.00  0.00    +0.085 C 
ATOM     16  C   UNL     1       2.247  -0.010  22.882  0.00  0.00    +0.017 C 
ATOM     18  C   UNL     1       0.892  -0.724  22.925  0.00  0.00    +0.021 C 
ATOM     19  C   UNL     1       2.047   1.494  23.093  0.00  0.00    +0.021 C 
BRANCH  16  23
ATOM     23  C   UNL     1       2.971  -0.289  21.567  0.00  0.00    +0.159 C 
BRANCH  23   2
ATOM      2  O   UNL     1       3.877   0.770  21.319  0.00  0.00    -0.395 OA
ATOM     30  H   UNL     1       4.090   0.750  20.371  0.00  0.00    +0.209 HD
ENDBRANCH  23   2
ENDBRANCH  16  23
ENDBRANCH  11   3
ENDBRANCH   7  11
BRANCH   9  17
ATOM     17  C   UNL     1      -4.960   3.909  25.029  0.00  0.00    +0.105 C 
BRANCH  17  24
ATOM      1  O   UNL     1      -4.220   1.625  24.592  0.00  0.00    -0.424 OA
ATOM      4  N   UNL     1      -6.171   1.763  25.677  0.00  0.00    -0.112 NA
ATOM      5  N   UNL     1      -5.875   0.425  25.498  0.00  0.00    -0.112 NA
ATOM     24  C   UNL     1      -5.178   2.426  25.132  0.00  0.00    +0.218 A 
ATOM     25  C   UNL     1      -4.728   0.391  24.860  0.00  0.00    +0.223 A 
BRANCH  25  26
ATOM     26  C   UNL     1      -3.939  -0.763  24.413  0.00  0.00    +0.040 C 
ATOM     27  C   UNL     1      -3.081  -1.375  25.575  0.00  0.00    +0.020 C 
ATOM     28  C   UNL     1      -2.940  -0.384  23.266  0.00  0.00    +0.020 C 
ATOM     29  C   UNL     1      -4.755  -1.982  23.840  0.00  0.00    +0.020 C 
ENDBRANCH  25  26
ENDBRANCH  17  24
ENDBRANCH   9  17
TORSDOF 8
ENDMDL
MODEL 8
REMARK VINA RESULT:       0.1      2.270      7.015
REMARK  Name = 38031161
REMARK  14 active torsions:
REMARK  status: ('A' for Active; 'I' for Inactive)
REMARK    1  A    between atoms: O_2  and  C_23
REMARK    2  A    between atoms: N_3  and  C_11
REMARK    3  A    between atoms: C_6  and  C_10
REMARK    4  A    between atoms: C_7  and  C_11
REMARK    5  A    between atoms: C_9  and  C_17
REMARK    6  A    between atoms: C_10  and  C_20
REMARK    7  A    between atoms: C_10  and  C_21
REMARK    8  A    between atoms: C_13  and  C_22
REMARK    9  A    between atoms: C_16  and  C_23
REMARK   10  A    between atoms: C_17  and  C_24
REMARK   11  A    between atoms: C_25  and  C_26
REMARK   12  A    between atoms: C_26  and  C_27
REMARK   13  A    between atoms: C_26  and  C_28
REMARK   14  A    between atoms: C_26  and  C_29
REMARK                            x       y       z     vdW  Elec       q    Type
REMARK                         _______ _______ _______ _____ _____    ______ ____
ROOT
ATOM      6  C   UNL     1      -0.272   0.663  24.759  0.00  0.00    +0.000 C 
ATOM      7  C   UNL     1       0.383  -0.622  24.203  0.00  0.00    +0.029 C 
ATOM      8  C   UNL     1      -1.735   0.763  24.301  0.00  0.00    +0.012 C 
ATOM      9  C   UNL     1      -2.584  -0.462  24.701  0.00  0.00    +0.024 C 
ATOM     12  C   UNL     1      -0.512  -1.829  24.326  0.00  0.00    -0.023 C 
ATOM     13  C   UNL     1      -1.836  -1.779  24.559  0.00  0.00    -0.073 C 
ATOM     22  C   UNL     1      -2.620  -3.048  24.751  0.00  0.00    +0.039 C 
ENDROOT
BRANCH   6  10
ATOM     10  C   UNL     1      -0.164   0.729  26.289  0.00  0.00    -0.013 C 
ATOM     20  C   UNL     1      -0.273   2.174  26.768  0.00  0.00    +0.007 C 
ATOM     21  C   UNL     1      -1.238  -0.138  26.937  0.00  0.00    +0.007 C 
ENDBRANCH   6  10
BRANCH   7  11
ATOM     11  C   UNL     1       0.804  -0.455  22.739  0.00  0.00    +0.092 C 
BRANCH  11   3
ATOM      3  N   UNL     1       2.261  -0.377  22.628  0.00  0.00    -0.302 NA
ATOM     14  C   UNL     1       2.899  -1.279  23.595  0.00  0.00    +0.085 C 
ATOM     15  C   UNL     1       2.717   1.008  22.813  0.00  0.00    +0.085 C 
ATOM     16  C   UNL     1       4.969   0.175  23.607  0.00  0.00    +0.017 C 
ATOM     18  C   UNL     1       4.424  -1.249  23.455  0.00  0.00    +0.021 C 
ATOM     19  C   UNL     1       4.234   1.115  22.647  0.00  0.00    +0.021 C 
BRANCH  16  23
ATOM     23  C   UNL     1       6.476   0.212  23.368  0.00  0.00    +0.159 C 
BRANCH  23   2
ATOM      2  O   UNL     1       6.785  -0.664  22.300  0.00  0.00    -0.395 OA
ATOM     30  H   UNL     1       7.413  -1.322  22.641  0.00  0.00    +0.209 HD
ENDBRANCH  23   2
ENDBRANCH  16  23
ENDBRANCH  11   3
ENDBRANCH   7  11
BRANCH   9  17
ATOM     17  C   UNL     1      -3.893  -0.432  23.901  0.00  0.00    +0.105 C 
BRANCH  17  24
ATOM      1  O   UNL     1      -4.120   1.905  24.567  0.00  0.00    -0.424 OA
ATOM      4  N   UNL     1      -6.059   0.798  24.441  0.00  0.00    -0.112 NA
ATOM      5  N   UNL     1      -6.333   2.097  24.825  0.00  0.00    -0.112 NA
ATOM     24  C   UNL     1      -4.755   0.732  24.303  0.00  0.00    +0.218 A 
ATOM     25  C   UNL     1      -5.172   2.707  24.886  0.00  0.00    +0.223 A 
BRANCH  25  26
ATOM     26  C   UNL     1      -4.863   4.098  25.238  0.00  0.00    +0.040 C 
ATOM     27  C   UNL     1      -6.149   4.903  25.641  0.00  0.00    +0.020 C 
ATOM     28  C   UNL     1      -4.202   4.874  24.046  0.00  0.00    +0.020 C 
ATOM     29  C   UNL     1      -3.872   4.307  26.444  0.00  0.00    +0.020 C 
ENDBRANCH  25  26
ENDBRANCH  17  24
ENDBRANCH   9  17
TORSDOF 8
ENDMDL
MODEL 9
REMARK VINA RESULT:       0.2      2.219      6.298
REMARK  Name = 38031161
REMARK  14 active torsions:
REMARK  status: ('A' for Active; 'I' for Inactive)
REMARK    1  A    between atoms: O_2  and  C_23
REMARK    2  A    between atoms: N_3  and  C_11
REMARK    3  A    between atoms: C_6  and  C_10
REMARK    4  A    between atoms: C_7  and  C_11
REMARK    5  A    between atoms: C_9  and  C_17
REMARK    6  A    between atoms: C_10  and  C_20
REMARK    7  A    between atoms: C_10  and  C_21
REMARK    8  A    between atoms: C_13  and  C_22
REMARK    9  A    between atoms: C_16  and  C_23
REMARK   10  A    between atoms: C_17  and  C_24
REMARK   11  A    between atoms: C_25  and  C_26
REMARK   12  A    between atoms: C_26  and  C_27
REMARK   13  A    between atoms: C_26  and  C_28
REMARK   14  A    between atoms: C_26  and  C_29
REMARK                            x       y       z     vdW  Elec       q    Type
REMARK                         _______ _______ _______ _____ _____    ______ ____
ROOT
ATOM      6  C   UNL     1      -0.801  -0.239  25.385  0.00  0.00    +0.000 C 
ATOM      7  C   UNL     1      -0.662  -0.885  23.988  0.00  0.00    +0.029 C 
ATOM      8  C   UNL     1      -2.143   0.497  25.507  0.00  0.00    +0.012 C 
ATOM      9  C   UNL     1      -3.363  -0.408  25.235  0.00  0.00    +0.024 C 
ATOM     12  C   UNL     1      -1.925  -1.576  23.541  0.00  0.00    -0.023 C 
ATOM     13  C   UNL     1      -3.138  -1.385  24.091  0.00  0.00    -0.073 C 
ATOM     22  C   UNL     1      -4.318  -2.192  23.624  0.00  0.00    +0.039 C 
ENDROOT
BRANCH   6  10
ATOM     10  C   UNL     1      -0.636  -1.280  26.502  0.00  0.00    -0.013 C 
ATOM     20  C   UNL     1      -1.952  -1.471  27.249  0.00  0.00    +0.007 C 
ATOM     21  C   UNL     1      -0.143  -2.604  25.928  0.00  0.00    +0.007 C 
ENDBRANCH   6  10
BRANCH   7  11
ATOM     11  C   UNL     1      -0.247   0.140  22.928  0.00  0.00    +0.092 C 
BRANCH  11   3
ATOM      3  N   UNL     1       1.199   0.099  22.709  0.00  0.00    -0.302 NA
ATOM     14  C   UNL     1       1.791  -1.050  23.407  0.00  0.00    +0.085 C 
ATOM     15  C   UNL     1       1.820   1.359  23.139  0.00  0.00    +0.085 C 
ATOM     16  C   UNL     1       4.010   0.158  23.541  0.00  0.00    +0.017 C 
ATOM     18  C   UNL     1       3.297  -1.139  23.143  0.00  0.00    +0.021 C 
ATOM     19  C   UNL     1       3.326   1.352  22.867  0.00  0.00    +0.021 C 
BRANCH  16  23
ATOM     23  C   UNL     1       5.492   0.100  23.184  0.00  0.00    +0.159 C 
BRANCH  23   2
ATOM      2  O   UNL     1       6.212  -0.345  24.318  0.00  0.00    -0.395 OA
ATOM     30  H   UNL     1       6.054  -1.300  24.402  0.00  0.00    +0.209 HD
ENDBRANCH  23   2
ENDBRANCH  16  23
ENDBRANCH  11   3
ENDBRANCH   7  11
BRANCH   9  17
ATOM     17  C   UNL     1      -4.595   0.482  25.025  0.00  0.00    +0.105 C 
BRANCH  17  24
ATOM      1  O   UNL     1      -2.889   2.226  25.002  0.00  0.00    -0.424 OA
ATOM      4  N   UNL     1      -4.982   2.992  24.813  0.00  0.00    -0.112 NA
ATOM      5  N   UNL     1      -4.126   4.076  24.784  0.00  0.00    -0.112 NA
ATOM     24  C   UNL     1      -4.216   1.933  24.941  0.00  0.00    +0.218 A 
ATOM     25  C   UNL     1      -2.915   3.583  24.898  0.00  0.00    +0.223 A 
BRANCH  25  26
ATOM     26  C   UNL     1      -1.621   4.275  24.923  0.00  0.00    +0.040 C 
ATOM     27  C   UNL     1      -0.696   3.753  26.078  0.00  0.00    +0.020 C 
ATOM     28  C   UNL     1      -1.784   5.820  25.140  0.00  0.00    +0.020 C 
ATOM     29  C   UNL     1      -0.739   4.148  23.624  0.00  0.00    +0.020 C 
ENDBRANCH  25  26
ENDBRANCH  17  24
ENDBRANCH   9  17
TORSDOF 8
ENDMDL
MODEL 10
REMARK VINA RESULT:       0.4      1.575      2.220
REMARK  Name = 38031161
REMARK  14 active torsions:
REMARK  status: ('A' for Active; 'I' for Inactive)
REMARK    1  A    between atoms: O_2  and  C_23
REMARK    2  A    between atoms: N_3  and  C_11
REMARK    3  A    between atoms: C_6  and  C_10
REMARK    4  A    between atoms: C_7  and  C_11
REMARK    5  A    between atoms: C_9  and  C_17
REMARK    6  A    between atoms: C_10  and  C_20
REMARK    7  A    between atoms: C_10  and  C_21
REMARK    8  A    between atoms: C_13  and  C_22
REMARK    9  A    between atoms: C_16  and  C_23
REMARK   10  A    between atoms: C_17  and  C_24
REMARK   11  A    between atoms: C_25  and  C_26
REMARK   12  A    between atoms: C_26  and  C_27
REMARK   13  A    between atoms: C_26  and  C_28
REMARK   14  A    between atoms: C_26  and  C_29
REMARK                            x       y       z     vdW  Elec       q    Type
REMARK                         _______ _______ _______ _____ _____    ______ ____
ROOT
ATOM      6  C   UNL     1      -4.173   2.238  25.130  0.00  0.00    +0.000 C 
ATOM      7  C   UNL     1      -3.998   3.048  23.826  0.00  0.00    +0.029 C 
ATOM      8  C   UNL     1      -2.815   2.017  25.813  0.00  0.00    +0.012 C 
ATOM      9  C   UNL     1      -2.066   3.331  26.121  0.00  0.00    +0.024 C 
ATOM     12  C   UNL     1      -3.057   4.215  23.990  0.00  0.00    -0.023 C 
ATOM     13  C   UNL     1      -2.195   4.365  25.012  0.00  0.00    -0.073 C 
ATOM     22  C   UNL     1      -1.362   5.612  25.125  0.00  0.00    +0.039 C 
ENDROOT
BRANCH   6  10
ATOM     10  C   UNL     1      -5.169   2.916  26.081  0.00  0.00    -0.013 C 
ATOM     20  C   UNL     1      -5.789   4.141  25.416  0.00  0.00    +0.007 C 
ATOM     21  C   UNL     1      -6.248   1.931  26.513  0.00  0.00    +0.007 C 
ENDBRANCH   6  10
BRANCH   7  11
ATOM     11  C   UNL     1      -3.509   2.166  22.672  0.00  0.00    +0.092 C 
BRANCH  11   3
ATOM      3  N   UNL     1      -3.474   0.761  23.076  0.00  0.00    -0.302 NA
ATOM     14  C   UNL     1      -4.663   0.425  23.871  0.00  0.00    +0.085 C 
ATOM     15  C   UNL     1      -2.240   0.470  23.819  0.00  0.00    +0.085 C 
ATOM     16  C   UNL     1      -3.391  -1.440  25.012  0.00  0.00    +0.017 C 
ATOM     18  C   UNL     1      -4.668  -1.056  24.257  0.00  0.00    +0.021 C 
ATOM     19  C   UNL     1      -2.163  -1.009  24.203  0.00  0.00    +0.021 C 
BRANCH  16  23
ATOM     23  C   UNL     1      -3.357  -2.937  25.306  0.00  0.00    +0.159 C 
BRANCH  23   2
ATOM      2  O   UNL     1      -3.790  -3.633  24.152  0.00  0.00    -0.395 OA
ATOM     30  H   UNL     1      -3.655  -4.580  24.320  0.00  0.00    +0.209 HD
ENDBRANCH  23   2
ENDBRANCH  16  23
ENDBRANCH  11   3
ENDBRANCH   7  11
BRANCH   9  17
ATOM     17  C   UNL     1      -0.607   2.994  26.454  0.00  0.00    +0.105 C 
BRANCH  17  24
ATOM      1  O   UNL     1       0.324   1.251  25.023  0.00  0.00    -0.424 OA
ATOM      4  N   UNL     1       0.702   3.331  24.293  0.00  0.00    -0.112 NA
ATOM      5  N   UNL     1       1.277   2.453  23.396  0.00  0.00    -0.112 NA
ATOM     24  C   UNL     1       0.157   2.585  25.227  0.00  0.00    +0.218 A 
ATOM     25  C   UNL     1       1.033   1.249  23.862  0.00  0.00    +0.223 A 
BRANCH  25  26
ATOM     26  C   UNL     1       1.406  -0.060  23.313  0.00  0.00    +0.040 C 
ATOM     27  C   UNL     1       0.933  -1.240  24.233  0.00  0.00    +0.020 C 
ATOM     28  C   UNL     1       2.958  -0.210  23.150  0.00  0.00    +0.020 C 
ATOM     29  C   UNL     1       0.823  -0.410  21.893  0.00  0.00    +0.020 C 
ENDBRANCH  25  26
ENDBRANCH  17  24
ENDBRANCH   9  17
TORSDOF 8
ENDMDL
