MODEL 1
REMARK VINA RESULT:       9.0      0.000      0.000
REMARK  Name = 7155437
REMARK  5 active torsions:
REMARK  status: ('A' for Active; 'I' for Inactive)
REMARK    1  A    between atoms: S_1  and  N_6
REMARK    2  A    between atoms: S_1  and  C_20
REMARK    3  A    between atoms: N_8  and  C_30
REMARK    4  A    between atoms: C_16  and  C_21
REMARK    5  A    between atoms: C_32  and  C_33
REMARK                            x       y       z     vdW  Elec       q    Type
REMARK                         _______ _______ _______ _____ _____    ______ ____
ROOT
ATOM      4  O   UNL     1      -5.865   4.599  25.370  0.00  0.00    -0.268 OA
ATOM      6  N   UNL     1      -1.291   2.975  24.385  0.00  0.00    -0.176 NA
ATOM      7  N   UNL     1      -4.147   3.043  25.710  0.00  0.00    -0.311 N 
ATOM      9  C   UNL     1      -1.879   3.738  26.682  0.00  0.00    +0.025 C 
ATOM     10  C   UNL     1      -2.273   1.400  26.044  0.00  0.00    +0.053 C 
ATOM     11  C   UNL     1      -1.820   2.306  27.187  0.00  0.00    +0.017 C 
ATOM     12  C   UNL     1      -0.948   3.931  25.475  0.00  0.00    +0.114 C 
ATOM     13  C   UNL     1      -1.308   1.557  24.853  0.00  0.00    +0.119 C 
ATOM     14  C   UNL     1      -3.332   4.082  26.355  0.00  0.00    +0.130 C 
ATOM     15  C   UNL     1      -3.712   1.705  25.619  0.00  0.00    +0.034 A 
ATOM     16  C   UNL     1      -4.556   0.750  25.149  0.00  0.00    +0.002 A 
ATOM     17  C   UNL     1      -5.430   3.449  25.300  0.00  0.00    +0.252 A 
ATOM     18  C   UNL     1      -5.885   1.132  24.712  0.00  0.00    +0.015 A 
ATOM     19  C   UNL     1      -6.315   2.393  24.759  0.00  0.00    +0.071 A 
ENDROOT
BRANCH  16  21
ATOM     21  C   UNL     1      -4.152  -0.669  25.054  0.00  0.00    -0.016 A 
ATOM     24  C   UNL     1      -3.503  -1.277  26.125  0.00  0.00    +0.008 A 
ATOM     25  C   UNL     1      -4.425  -1.389  23.894  0.00  0.00    +0.008 A 
ATOM     28  C   UNL     1      -3.122  -2.615  26.035  0.00  0.00    +0.001 A 
ATOM     29  C   UNL     1      -4.044  -2.728  23.805  0.00  0.00    +0.001 A 
ATOM     31  C   UNL     1      -3.393  -3.341  24.875  0.00  0.00    +0.000 A 
ENDBRANCH  16  21
BRANCH   6   1
ATOM      1  S   UNL     1      -0.517   3.251  22.885  0.00  0.00    +0.061 S 
ATOM      2  O   UNL     1       0.098   4.561  22.903  0.00  0.00    -0.153 OA
ATOM      3  O   UNL     1      -1.411   2.862  21.814  0.00  0.00    -0.153 OA
BRANCH   1  20
ATOM     20  C   UNL     1       0.774   2.049  22.976  0.00  0.00    +0.106 A 
ATOM     22  C   UNL     1       2.091   2.472  23.035  0.00  0.00    +0.030 A 
ATOM     23  C   UNL     1       0.446   0.703  22.988  0.00  0.00    +0.030 A 
ATOM     26  C   UNL     1       3.110   1.522  23.107  0.00  0.00    +0.025 A 
ATOM     27  C   UNL     1       1.466  -0.246  23.060  0.00  0.00    +0.025 A 
ATOM     30  C   UNL     1       2.797   0.163  23.121  0.00  0.00    +0.033 A 
BRANCH  30   8
ATOM      5  O   UNL     1       5.464   0.261  24.515  0.00  0.00    -0.276 OA
ATOM      8  N   UNL     1       3.817  -0.787  23.194  0.00  0.00    -0.286 N 
ATOM     32  C   UNL     1       5.045  -0.687  23.860  0.00  0.00    +0.214 C 
ATOM     33  C   UNL     1       5.873  -1.938  23.697  0.00  0.00    +0.109 C 
ATOM     34  H   UNL     1       3.636  -1.657  22.697  0.00  0.00    +0.155 HD
ENDBRANCH  30   8
ENDBRANCH   1  20
ENDBRANCH   6   1
TORSDOF 4
ENDMDL
MODEL 2
REMARK VINA RESULT:       9.3      3.116      4.786
REMARK  Name = 7155437
REMARK  5 active torsions:
REMARK  status: ('A' for Active; 'I' for Inactive)
REMARK    1  A    between atoms: S_1  and  N_6
REMARK    2  A    between atoms: S_1  and  C_20
REMARK    3  A    between atoms: N_8  and  C_30
REMARK    4  A    between atoms: C_16  and  C_21
REMARK    5  A    between atoms: C_32  and  C_33
REMARK                            x       y       z     vdW  Elec       q    Type
REMARK                         _______ _______ _______ _____ _____    ______ ____
ROOT
ATOM      4  O   UNL     1      -3.575   4.276  28.089  0.00  0.00    -0.268 OA
ATOM      6  N   UNL     1      -4.292  -0.013  25.719  0.00  0.00    -0.176 NA
ATOM      7  N   UNL     1      -4.402   3.089  26.247  0.00  0.00    -0.311 N 
ATOM      9  C   UNL     1      -6.243   1.323  26.502  0.00  0.00    +0.025 C 
ATOM     10  C   UNL     1      -5.276   1.772  24.291  0.00  0.00    +0.053 C 
ATOM     11  C   UNL     1      -6.587   1.685  25.067  0.00  0.00    +0.017 C 
ATOM     12  C   UNL     1      -5.518  -0.030  26.567  0.00  0.00    +0.114 C 
ATOM     13  C   UNL     1      -4.576   0.399  24.313  0.00  0.00    +0.119 C 
ATOM     14  C   UNL     1      -5.412   2.456  27.106  0.00  0.00    +0.130 C 
ATOM     15  C   UNL     1      -4.357   2.859  24.857  0.00  0.00    +0.034 A 
ATOM     16  C   UNL     1      -3.504   3.576  24.080  0.00  0.00    +0.002 A 
ATOM     17  C   UNL     1      -3.568   4.025  26.883  0.00  0.00    +0.252 A 
ATOM     18  C   UNL     1      -2.625   4.547  24.702  0.00  0.00    +0.015 A 
ATOM     19  C   UNL     1      -2.624   4.767  26.017  0.00  0.00    +0.071 A 
ENDROOT
BRANCH  16  21
ATOM     21  C   UNL     1      -3.435   3.383  22.615  0.00  0.00    -0.016 A 
ATOM     24  C   UNL     1      -4.255   4.136  21.778  0.00  0.00    +0.008 A 
ATOM     25  C   UNL     1      -2.549   2.451  22.082  0.00  0.00    +0.008 A 
ATOM     28  C   UNL     1      -4.190   3.954  20.397  0.00  0.00    +0.001 A 
ATOM     29  C   UNL     1      -2.484   2.270  20.700  0.00  0.00    +0.001 A 
ATOM     31  C   UNL     1      -3.304   3.021  19.858  0.00  0.00    +0.000 A 
ENDBRANCH  16  21
BRANCH   6   1
ATOM      1  S   UNL     1      -3.246  -1.355  25.902  0.00  0.00    +0.061 S 
ATOM      2  O   UNL     1      -3.731  -2.448  25.086  0.00  0.00    -0.153 OA
ATOM      3  O   UNL     1      -2.964  -1.544  27.309  0.00  0.00    -0.153 OA
BRANCH   1  20
ATOM     20  C   UNL     1      -1.787  -0.718  25.137  0.00  0.00    +0.106 A 
ATOM     22  C   UNL     1      -1.407   0.590  25.388  0.00  0.00    +0.030 A 
ATOM     23  C   UNL     1      -1.049  -1.537  24.300  0.00  0.00    +0.030 A 
ATOM     26  C   UNL     1      -0.254   1.092  24.785  0.00  0.00    +0.025 A 
ATOM     27  C   UNL     1       0.104  -1.034  23.697  0.00  0.00    +0.025 A 
ATOM     30  C   UNL     1       0.501   0.281  23.939  0.00  0.00    +0.033 A 
BRANCH  30   8
ATOM      5  O   UNL     1       3.146  -1.042  23.369  0.00  0.00    -0.276 OA
ATOM      8  N   UNL     1       1.655   0.784  23.336  0.00  0.00    -0.286 N 
ATOM     32  C   UNL     1       2.865   0.121  23.096  0.00  0.00    +0.214 C 
ATOM     33  C   UNL     1       3.870   1.018  22.418  0.00  0.00    +0.109 C 
ATOM     34  H   UNL     1       1.599   1.755  23.037  0.00  0.00    +0.155 HD
ENDBRANCH  30   8
ENDBRANCH   1  20
ENDBRANCH   6   1
TORSDOF 4
ENDMDL
MODEL 3
REMARK VINA RESULT:      10.2      2.618      4.760
REMARK  Name = 7155437
REMARK  5 active torsions:
REMARK  status: ('A' for Active; 'I' for Inactive)
REMARK    1  A    between atoms: S_1  and  N_6
REMARK    2  A    between atoms: S_1  and  C_20
REMARK    3  A    between atoms: N_8  and  C_30
REMARK    4  A    between atoms: C_16  and  C_21
REMARK    5  A    between atoms: C_32  and  C_33
REMARK                            x       y       z     vdW  Elec       q    Type
REMARK                         _______ _______ _______ _____ _____    ______ ____
ROOT
ATOM      4  O   UNL     1      -6.847   1.300  26.495  0.00  0.00    -0.268 OA
ATOM      6  N   UNL     1      -2.587  -0.444  24.670  0.00  0.00    -0.176 NA
ATOM      7  N   UNL     1      -4.991   1.546  25.088  0.00  0.00    -0.311 N 
ATOM      9  C   UNL     1      -4.538  -0.087  23.164  0.00  0.00    +0.025 C 
ATOM     10  C   UNL     1      -2.983   1.764  23.591  0.00  0.00    +0.053 C 
ATOM     11  C   UNL     1      -3.839   1.097  22.517  0.00  0.00    +0.017 C 
ATOM     12  C   UNL     1      -3.516  -1.098  23.705  0.00  0.00    +0.114 C 
ATOM     13  C   UNL     1      -1.924   0.764  24.095  0.00  0.00    +0.119 C 
ATOM     14  C   UNL     1      -5.473   0.434  24.256  0.00  0.00    +0.130 C 
ATOM     15  C   UNL     1      -3.836   2.281  24.752  0.00  0.00    +0.034 A 
ATOM     16  C   UNL     1      -3.510   3.391  25.464  0.00  0.00    +0.002 A 
ATOM     17  C   UNL     1      -5.821   1.897  26.167  0.00  0.00    +0.252 A 
ATOM     18  C   UNL     1      -4.340   3.781  26.588  0.00  0.00    +0.015 A 
ATOM     19  C   UNL     1      -5.422   3.090  26.947  0.00  0.00    +0.071 A 
ENDROOT
BRANCH  16  21
ATOM     21  C   UNL     1      -2.320   4.206  25.137  0.00  0.00    -0.016 A 
ATOM     24  C   UNL     1      -2.441   5.586  25.007  0.00  0.00    +0.008 A 
ATOM     25  C   UNL     1      -1.086   3.586  24.963  0.00  0.00    +0.008 A 
ATOM     28  C   UNL     1      -1.318   6.354  24.698  0.00  0.00    +0.001 A 
ATOM     29  C   UNL     1       0.037   4.355  24.654  0.00  0.00    +0.001 A 
ATOM     31  C   UNL     1      -0.079   5.738  24.523  0.00  0.00    +0.000 A 
ENDBRANCH  16  21
BRANCH   6   1
ATOM      1  S   UNL     1      -1.569  -1.500  25.550  0.00  0.00    +0.061 S 
ATOM      2  O   UNL     1      -1.918  -2.869  25.234  0.00  0.00    -0.153 OA
ATOM      3  O   UNL     1      -1.497  -1.048  26.924  0.00  0.00    -0.153 OA
BRANCH   1  20
ATOM     20  C   UNL     1      -0.018  -1.148  24.783  0.00  0.00    +0.106 A 
ATOM     22  C   UNL     1       1.013  -2.067  24.884  0.00  0.00    +0.030 A 
ATOM     23  C   UNL     1       0.141   0.042  24.092  0.00  0.00    +0.030 A 
ATOM     26  C   UNL     1       2.237  -1.789  24.277  0.00  0.00    +0.025 A 
ATOM     27  C   UNL     1       1.366   0.320  23.485  0.00  0.00    +0.025 A 
ATOM     30  C   UNL     1       2.414  -0.595  23.577  0.00  0.00    +0.033 A 
BRANCH  30   8
ATOM      5  O   UNL     1       5.213  -0.705  24.681  0.00  0.00    -0.276 OA
ATOM      8  N   UNL     1       3.639  -0.317  22.970  0.00  0.00    -0.286 N 
ATOM     32  C   UNL     1       4.919  -0.384  23.534  0.00  0.00    +0.214 C 
ATOM     33  C   UNL     1       5.989  -0.004  22.541  0.00  0.00    +0.109 C 
ATOM     34  H   UNL     1       3.584  -0.031  21.994  0.00  0.00    +0.155 HD
ENDBRANCH  30   8
ENDBRANCH   1  20
ENDBRANCH   6   1
TORSDOF 4
ENDMDL
MODEL 4
REMARK VINA RESULT:      10.5      2.746      4.804
REMARK  Name = 7155437
REMARK  5 active torsions:
REMARK  status: ('A' for Active; 'I' for Inactive)
REMARK    1  A    between atoms: S_1  and  N_6
REMARK    2  A    between atoms: S_1  and  C_20
REMARK    3  A    between atoms: N_8  and  C_30
REMARK    4  A    between atoms: C_16  and  C_21
REMARK    5  A    between atoms: C_32  and  C_33
REMARK                            x       y       z     vdW  Elec       q    Type
REMARK                         _______ _______ _______ _____ _____    ______ ____
ROOT
ATOM      4  O   UNL     1      -6.321   2.468  27.957  0.00  0.00    -0.268 OA
ATOM      6  N   UNL     1      -3.692   0.014  24.551  0.00  0.00    -0.176 NA
ATOM      7  N   UNL     1      -5.093   2.456  25.962  0.00  0.00    -0.311 N 
ATOM      9  C   UNL     1      -5.849   1.092  23.927  0.00  0.00    +0.025 C 
ATOM     10  C   UNL     1      -3.770   2.394  23.825  0.00  0.00    +0.053 C 
ATOM     11  C   UNL     1      -5.105   2.148  23.126  0.00  0.00    +0.017 C 
ATOM     12  C   UNL     1      -5.050  -0.219  23.982  0.00  0.00    +0.114 C 
ATOM     13  C   UNL     1      -2.948   1.090  23.832  0.00  0.00    +0.119 C 
ATOM     14  C   UNL     1      -6.142   1.652  25.320  0.00  0.00    +0.130 C 
ATOM     15  C   UNL     1      -3.968   2.918  25.250  0.00  0.00    +0.034 A 
ATOM     16  C   UNL     1      -3.100   3.779  25.842  0.00  0.00    +0.002 A 
ATOM     17  C   UNL     1      -5.348   2.829  27.294  0.00  0.00    +0.252 A 
ATOM     18  C   UNL     1      -3.327   4.182  27.216  0.00  0.00    +0.015 A 
ATOM     19  C   UNL     1      -4.367   3.740  27.925  0.00  0.00    +0.071 A 
ENDROOT
BRANCH  16  21
ATOM     21  C   UNL     1      -1.916   4.306  25.128  0.00  0.00    -0.016 A 
ATOM     24  C   UNL     1      -1.732   5.681  25.015  0.00  0.00    +0.008 A 
ATOM     25  C   UNL     1      -0.993   3.423  24.576  0.00  0.00    +0.008 A 
ATOM     28  C   UNL     1      -0.616   6.178  24.342  0.00  0.00    +0.001 A 
ATOM     29  C   UNL     1       0.124   3.920  23.904  0.00  0.00    +0.001 A 
ATOM     31  C   UNL     1       0.312   5.297  23.787  0.00  0.00    +0.000 A 
ENDBRANCH  16  21
BRANCH   6   1
ATOM      1  S   UNL     1      -2.791  -1.393  24.918  0.00  0.00    +0.061 S 
ATOM      2  O   UNL     1      -3.234  -2.476  24.065  0.00  0.00    -0.153 OA
ATOM      3  O   UNL     1      -2.734  -1.554  26.356  0.00  0.00    -0.153 OA
BRANCH   1  20
ATOM     20  C   UNL     1      -1.191  -0.890  24.365  0.00  0.00    +0.106 A 
ATOM     22  C   UNL     1      -0.525   0.116  25.044  0.00  0.00    +0.030 A 
ATOM     23  C   UNL     1      -0.631  -1.511  23.261  0.00  0.00    +0.030 A 
ATOM     26  C   UNL     1       0.739   0.512  24.607  0.00  0.00    +0.025 A 
ATOM     27  C   UNL     1       0.633  -1.114  22.824  0.00  0.00    +0.025 A 
ATOM     30  C   UNL     1       1.318  -0.103  23.497  0.00  0.00    +0.033 A 
BRANCH  30   8
ATOM      5  O   UNL     1       3.998  -1.444  23.794  0.00  0.00    -0.276 OA
ATOM      8  N   UNL     1       2.583   0.294  23.061  0.00  0.00    -0.286 N 
ATOM     32  C   UNL     1       3.804  -0.372  23.228  0.00  0.00    +0.214 C 
ATOM     33  C   UNL     1       4.947   0.390  22.606  0.00  0.00    +0.109 C 
ATOM     34  H   UNL     1       2.611   1.179  22.559  0.00  0.00    +0.155 HD
ENDBRANCH  30   8
ENDBRANCH   1  20
ENDBRANCH   6   1
TORSDOF 4
ENDMDL
MODEL 5
REMARK VINA RESULT:      10.9      2.390      3.609
REMARK  Name = 7155437
REMARK  5 active torsions:
REMARK  status: ('A' for Active; 'I' for Inactive)
REMARK    1  A    between atoms: S_1  and  N_6
REMARK    2  A    between atoms: S_1  and  C_20
REMARK    3  A    between atoms: N_8  and  C_30
REMARK    4  A    between atoms: C_16  and  C_21
REMARK    5  A    between atoms: C_32  and  C_33
REMARK                            x       y       z     vdW  Elec       q    Type
REMARK                         _______ _______ _______ _____ _____    ______ ____
ROOT
ATOM      4  O   UNL     1      -4.074   3.900  20.889  0.00  0.00    -0.268 OA
ATOM      6  N   UNL     1      -3.574   3.427  25.793  0.00  0.00    -0.176 NA
ATOM      7  N   UNL     1      -4.420   2.675  22.855  0.00  0.00    -0.311 N 
ATOM      9  C   UNL     1      -5.842   3.596  24.779  0.00  0.00    +0.025 C 
ATOM     10  C   UNL     1      -4.772   1.397  24.992  0.00  0.00    +0.053 C 
ATOM     11  C   UNL     1      -6.105   2.132  25.092  0.00  0.00    +0.017 C 
ATOM     12  C   UNL     1      -4.847   4.200  25.782  0.00  0.00    +0.114 C 
ATOM     13  C   UNL     1      -3.792   1.970  26.035  0.00  0.00    +0.119 C 
ATOM     14  C   UNL     1      -5.350   3.706  23.335  0.00  0.00    +0.130 C 
ATOM     15  C   UNL     1      -4.180   1.492  23.583  0.00  0.00    +0.034 A 
ATOM     16  C   UNL     1      -3.429   0.501  23.034  0.00  0.00    +0.002 A 
ATOM     17  C   UNL     1      -3.884   2.894  21.573  0.00  0.00    +0.252 A 
ATOM     18  C   UNL     1      -2.856   0.693  21.716  0.00  0.00    +0.015 A 
ATOM     19  C   UNL     1      -3.042   1.812  21.015  0.00  0.00    +0.071 A 
ENDROOT
BRANCH  16  21
ATOM     21  C   UNL     1      -3.166  -0.766  23.751  0.00  0.00    -0.016 A 
ATOM     24  C   UNL     1      -4.130  -1.769  23.760  0.00  0.00    +0.008 A 
ATOM     25  C   UNL     1      -1.954  -0.946  24.412  0.00  0.00    +0.008 A 
ATOM     28  C   UNL     1      -3.882  -2.963  24.437  0.00  0.00    +0.001 A 
ATOM     29  C   UNL     1      -1.706  -2.141  25.088  0.00  0.00    +0.001 A 
ATOM     31  C   UNL     1      -2.669  -3.149  25.100  0.00  0.00    +0.000 A 
ENDBRANCH  16  21
BRANCH   6   1
ATOM      1  S   UNL     1      -2.283   4.137  26.663  0.00  0.00    +0.061 S 
ATOM      2  O   UNL     1      -2.273   3.611  28.011  0.00  0.00    -0.153 OA
ATOM      3  O   UNL     1      -2.281   5.565  26.420  0.00  0.00    -0.153 OA
BRANCH   1  20
ATOM     20  C   UNL     1      -0.908   3.440  25.801  0.00  0.00    +0.106 A 
ATOM     22  C   UNL     1      -0.112   2.504  26.440  0.00  0.00    +0.030 A 
ATOM     23  C   UNL     1      -0.649   3.842  24.501  0.00  0.00    +0.030 A 
ATOM     26  C   UNL     1       0.973   1.953  25.759  0.00  0.00    +0.025 A 
ATOM     27  C   UNL     1       0.437   3.291  23.821  0.00  0.00    +0.025 A 
ATOM     30  C   UNL     1       1.248   2.346  24.450  0.00  0.00    +0.033 A 
BRANCH  30   8
ATOM      5  O   UNL     1       1.436  -0.132  22.749  0.00  0.00    -0.276 OA
ATOM      8  N   UNL     1       2.334   1.794  23.769  0.00  0.00    -0.286 N 
ATOM     32  C   UNL     1       2.366   0.631  22.989  0.00  0.00    +0.214 C 
ATOM     33  C   UNL     1       3.739   0.376  22.420  0.00  0.00    +0.109 C 
ATOM     34  H   UNL     1       3.208   2.309  23.857  0.00  0.00    +0.155 HD
ENDBRANCH  30   8
ENDBRANCH   1  20
ENDBRANCH   6   1
TORSDOF 4
ENDMDL
