MODEL 1
REMARK VINA RESULT:      12.4      0.000      0.000
REMARK  Name = 11912116
REMARK  6 active torsions:
REMARK  status: ('A' for Active; 'I' for Inactive)
REMARK    1  A    between atoms: O_4  and  C_34
REMARK    2  A    between atoms: O_4  and  C_35
REMARK    3  A    between atoms: N_7  and  C_17
REMARK    4  A    between atoms: N_8  and  C_24
REMARK    5  A    between atoms: C_27  and  C_28
REMARK    6  A    between atoms: C_28  and  C_29
REMARK                            x       y       z     vdW  Elec       q    Type
REMARK                         _______ _______ _______ _____ _____    ______ ____
ROOT
ATOM      1  O   UNL     1      -5.302   2.089  23.757  0.00  0.00    -0.253 OA
ATOM      2  O   UNL     1      -0.756   0.013  22.286  0.00  0.00    -0.266 OA
ATOM      5  N   UNL     1      -4.863   0.261  25.112  0.00  0.00    -0.285 N 
ATOM      6  N   UNL     1      -2.018  -0.717  24.112  0.00  0.00    -0.310 N 
ATOM      7  N   UNL     1      -4.512   2.474  25.874  0.00  0.00    -0.296 N 
ATOM      9  C   UNL     1      -4.314  -1.821  23.855  0.00  0.00    +0.027 C 
ATOM     10  C   UNL     1      -3.372  -1.464  26.100  0.00  0.00    +0.054 C 
ATOM     11  C   UNL     1      -3.967  -2.517  25.166  0.00  0.00    +0.018 C 
ATOM     12  C   UNL     1      -5.327  -0.687  24.096  0.00  0.00    +0.114 C 
ATOM     13  C   UNL     1      -4.424  -0.369  26.370  0.00  0.00    +0.119 C 
ATOM     14  C   UNL     1      -3.019  -1.310  23.213  0.00  0.00    +0.130 C 
ATOM     15  C   UNL     1      -2.124  -0.844  25.500  0.00  0.00    +0.027 A 
ATOM     16  C   UNL     1      -4.920   1.638  24.842  0.00  0.00    +0.302 C 
ATOM     18  C   UNL     1      -1.143  -0.391  26.299  0.00  0.00    +0.024 A 
ATOM     19  C   UNL     1      -0.902  -0.106  23.503  0.00  0.00    +0.273 A 
ATOM     24  C   UNL     1       0.158   0.407  24.428  0.00  0.00    +0.099 A 
ATOM     25  C   UNL     1       0.020   0.247  25.748  0.00  0.00    +0.030 A 
ATOM     36  H   UNL     1      -4.107   2.098  26.718  0.00  0.00    +0.151 HD
ENDROOT
BRANCH   7  17
ATOM     17  C   UNL     1      -4.507   3.913  25.740  0.00  0.00    +0.074 C 
ATOM     20  C   UNL     1      -3.590   4.561  26.784  0.00  0.00    +0.022 C 
ATOM     21  C   UNL     1      -4.116   4.334  24.319  0.00  0.00    +0.022 C 
ATOM     22  C   UNL     1      -2.109   4.324  26.487  0.00  0.00    +0.002 C 
ATOM     23  C   UNL     1      -2.634   4.098  24.027  0.00  0.00    +0.002 C 
ATOM     26  C   UNL     1      -1.742   4.760  25.072  0.00  0.00    +0.000 C 
ENDBRANCH   7  17
BRANCH  24   8
ATOM      3  O   UNL     1       2.134  -0.827  22.765  0.00  0.00    -0.275 OA
ATOM      8  N   UNL     1       1.247   1.017  23.878  0.00  0.00    -0.281 N 
ATOM     27  C   UNL     1       2.175   0.362  23.077  0.00  0.00    +0.222 C 
ATOM     37  H   UNL     1       1.497   1.924  24.263  0.00  0.00    +0.155 HD
BRANCH  27  28
ATOM     28  C   UNL     1       3.270   1.306  22.618  0.00  0.00    +0.131 C 
BRANCH  28  29
ATOM     29  C   UNL     1       4.658   0.794  22.904  0.00  0.00    -0.038 A 
ATOM     30  C   UNL     1       5.360   1.265  24.015  0.00  0.00    +0.007 A 
ATOM     31  C   UNL     1       5.240  -0.150  22.060  0.00  0.00    +0.007 A 
ATOM     32  C   UNL     1       6.644   0.790  24.279  0.00  0.00    +0.046 A 
ATOM     33  C   UNL     1       6.525  -0.623  22.324  0.00  0.00    +0.046 A 
ATOM     34  C   UNL     1       7.228  -0.154  23.434  0.00  0.00    +0.120 A 
BRANCH  34   4
ATOM      4  O   UNL     1       8.481  -0.617  23.692  0.00  0.00    -0.495 OA
ATOM     35  C   UNL     1       9.572   0.125  23.151  0.00  0.00    +0.277 C 
ENDBRANCH  34   4
ENDBRANCH  28  29
ENDBRANCH  27  28
ENDBRANCH  24   8
TORSDOF 5
ENDMDL
MODEL 2
REMARK VINA RESULT:      13.1      1.926      4.357
REMARK  Name = 11912116
REMARK  6 active torsions:
REMARK  status: ('A' for Active; 'I' for Inactive)
REMARK    1  A    between atoms: O_4  and  C_34
REMARK    2  A    between atoms: O_4  and  C_35
REMARK    3  A    between atoms: N_7  and  C_17
REMARK    4  A    between atoms: N_8  and  C_24
REMARK    5  A    between atoms: C_27  and  C_28
REMARK    6  A    between atoms: C_28  and  C_29
REMARK                            x       y       z     vdW  Elec       q    Type
REMARK                         _______ _______ _______ _____ _____    ______ ____
ROOT
ATOM      1  O   UNL     1      -4.114  -0.606  26.981  0.00  0.00    -0.253 OA
ATOM      2  O   UNL     1      -1.026   3.432  25.840  0.00  0.00    -0.266 OA
ATOM      5  N   UNL     1      -5.282   0.836  25.591  0.00  0.00    -0.285 N 
ATOM      6  N   UNL     1      -3.160   3.100  24.946  0.00  0.00    -0.310 N 
ATOM      7  N   UNL     1      -4.313  -1.159  24.765  0.00  0.00    -0.296 N 
ATOM      9  C   UNL     1      -5.288   3.205  26.366  0.00  0.00    +0.027 C 
ATOM     10  C   UNL     1      -5.445   2.704  23.963  0.00  0.00    +0.054 C 
ATOM     11  C   UNL     1      -5.963   3.625  25.067  0.00  0.00    +0.018 C 
ATOM     12  C   UNL     1      -5.615   1.737  26.697  0.00  0.00    +0.114 C 
ATOM     13  C   UNL     1      -5.833   1.248  24.288  0.00  0.00    +0.119 C 
ATOM     14  C   UNL     1      -3.779   3.443  26.234  0.00  0.00    +0.130 C 
ATOM     15  C   UNL     1      -3.939   2.817  23.820  0.00  0.00    +0.027 A 
ATOM     16  C   UNL     1      -4.543  -0.329  25.856  0.00  0.00    +0.302 C 
ATOM     18  C   UNL     1      -3.355   2.615  22.626  0.00  0.00    +0.024 A 
ATOM     19  C   UNL     1      -1.753   3.169  24.880  0.00  0.00    +0.273 A 
ATOM     24  C   UNL     1      -1.140   2.914  23.538  0.00  0.00    +0.099 A 
ATOM     25  C   UNL     1      -1.927   2.665  22.487  0.00  0.00    +0.030 A 
ATOM     36  H   UNL     1      -4.578  -0.879  23.833  0.00  0.00    +0.151 HD
ENDROOT
BRANCH   7  17
ATOM     17  C   UNL     1      -3.561  -2.388  24.881  0.00  0.00    +0.074 C 
ATOM     20  C   UNL     1      -2.637  -2.584  23.674  0.00  0.00    +0.022 C 
ATOM     21  C   UNL     1      -2.774  -2.431  26.196  0.00  0.00    +0.022 C 
ATOM     22  C   UNL     1      -1.452  -1.619  23.683  0.00  0.00    +0.002 C 
ATOM     23  C   UNL     1      -1.588  -1.466  26.199  0.00  0.00    +0.002 C 
ATOM     26  C   UNL     1      -0.678  -1.687  24.996  0.00  0.00    +0.000 C 
ENDBRANCH   7  17
BRANCH  24   8
ATOM      3  O   UNL     1       0.626   0.665  23.423  0.00  0.00    -0.275 OA
ATOM      8  N   UNL     1       0.219   2.958  23.436  0.00  0.00    -0.281 N 
ATOM     27  C   UNL     1       1.025   1.828  23.385  0.00  0.00    +0.222 C 
ATOM     37  H   UNL     1       0.657   3.854  23.635  0.00  0.00    +0.155 HD
BRANCH  27  28
ATOM     28  C   UNL     1       2.492   2.201  23.273  0.00  0.00    +0.131 C 
BRANCH  28  29
ATOM     29  C   UNL     1       3.416   1.013  23.329  0.00  0.00    -0.038 A 
ATOM     30  C   UNL     1       4.796   1.206  23.398  0.00  0.00    +0.007 A 
ATOM     31  C   UNL     1       2.893  -0.279  23.312  0.00  0.00    +0.007 A 
ATOM     32  C   UNL     1       5.652   0.105  23.450  0.00  0.00    +0.046 A 
ATOM     33  C   UNL     1       3.748  -1.379  23.363  0.00  0.00    +0.046 A 
ATOM     34  C   UNL     1       5.128  -1.187  23.432  0.00  0.00    +0.120 A 
BRANCH  34   4
ATOM      4  O   UNL     1       5.963  -2.261  23.484  0.00  0.00    -0.495 OA
ATOM     35  C   UNL     1       7.059  -2.276  22.572  0.00  0.00    +0.277 C 
ENDBRANCH  34   4
ENDBRANCH  28  29
ENDBRANCH  27  28
ENDBRANCH  24   8
TORSDOF 5
ENDMDL
MODEL 3
REMARK VINA RESULT:      13.3      1.572      4.190
REMARK  Name = 11912116
REMARK  6 active torsions:
REMARK  status: ('A' for Active; 'I' for Inactive)
REMARK    1  A    between atoms: O_4  and  C_34
REMARK    2  A    between atoms: O_4  and  C_35
REMARK    3  A    between atoms: N_7  and  C_17
REMARK    4  A    between atoms: N_8  and  C_24
REMARK    5  A    between atoms: C_27  and  C_28
REMARK    6  A    between atoms: C_28  and  C_29
REMARK                            x       y       z     vdW  Elec       q    Type
REMARK                         _______ _______ _______ _____ _____    ______ ____
ROOT
ATOM      1  O   UNL     1      -4.690   0.812  26.555  0.00  0.00    -0.253 OA
ATOM      2  O   UNL     1       0.414   1.730  26.057  0.00  0.00    -0.266 OA
ATOM      5  N   UNL     1      -4.387   2.335  24.834  0.00  0.00    -0.285 N 
ATOM      6  N   UNL     1      -1.234   2.608  24.652  0.00  0.00    -0.310 N 
ATOM      7  N   UNL     1      -4.826   0.051  24.397  0.00  0.00    -0.296 N 
ATOM      9  C   UNL     1      -2.982   4.298  25.455  0.00  0.00    +0.027 C 
ATOM     10  C   UNL     1      -3.022   3.512  23.124  0.00  0.00    +0.054 C 
ATOM     11  C   UNL     1      -2.992   4.761  24.003  0.00  0.00    +0.018 C 
ATOM     12  C   UNL     1      -4.233   3.456  25.765  0.00  0.00    +0.114 C 
ATOM     13  C   UNL     1      -4.310   2.715  23.412  0.00  0.00    +0.119 C 
ATOM     14  C   UNL     1      -1.686   3.519  25.713  0.00  0.00    +0.130 C 
ATOM     15  C   UNL     1      -1.807   2.637  23.377  0.00  0.00    +0.027 A 
ATOM     16  C   UNL     1      -4.640   1.051  25.344  0.00  0.00    +0.302 C 
ATOM     18  C   UNL     1      -1.306   1.874  22.391  0.00  0.00    +0.024 A 
ATOM     19  C   UNL     1      -0.135   1.778  24.955  0.00  0.00    +0.273 A 
ATOM     24  C   UNL     1       0.379   0.925  23.837  0.00  0.00    +0.099 A 
ATOM     25  C   UNL     1      -0.191   1.001  22.630  0.00  0.00    +0.030 A 
ATOM     36  H   UNL     1      -4.684   0.232  23.415  0.00  0.00    +0.151 HD
ENDROOT
BRANCH   7  17
ATOM     17  C   UNL     1      -5.086  -1.321  24.771  0.00  0.00    +0.074 C 
ATOM     20  C   UNL     1      -4.911  -2.261  23.573  0.00  0.00    +0.022 C 
ATOM     21  C   UNL     1      -4.200  -1.750  25.947  0.00  0.00    +0.022 C 
ATOM     22  C   UNL     1      -3.445  -2.433  23.175  0.00  0.00    +0.002 C 
ATOM     23  C   UNL     1      -2.736  -1.923  25.544  0.00  0.00    +0.002 C 
ATOM     26  C   UNL     1      -2.587  -2.870  24.358  0.00  0.00    +0.000 C 
ENDBRANCH   7  17
BRANCH  24   8
ATOM      3  O   UNL     1       2.337   0.036  21.948  0.00  0.00    -0.275 OA
ATOM      8  N   UNL     1       1.433   0.099  24.094  0.00  0.00    -0.281 N 
ATOM     27  C   UNL     1       2.352  -0.300  23.131  0.00  0.00    +0.222 C 
ATOM     37  H   UNL     1       1.398  -0.416  24.970  0.00  0.00    +0.155 HD
BRANCH  27  28
ATOM     28  C   UNL     1       3.406  -1.218  23.722  0.00  0.00    +0.131 C 
BRANCH  28  29
ATOM     29  C   UNL     1       4.803  -0.663  23.627  0.00  0.00    -0.038 A 
ATOM     30  C   UNL     1       5.047   0.671  23.954  0.00  0.00    +0.007 A 
ATOM     31  C   UNL     1       5.852  -1.483  23.214  0.00  0.00    +0.007 A 
ATOM     32  C   UNL     1       6.342   1.184  23.866  0.00  0.00    +0.046 A 
ATOM     33  C   UNL     1       7.145  -0.971  23.126  0.00  0.00    +0.046 A 
ATOM     34  C   UNL     1       7.391   0.364  23.452  0.00  0.00    +0.120 A 
BRANCH  34   4
ATOM      4  O   UNL     1       8.654   0.863  23.368  0.00  0.00    -0.495 OA
ATOM     35  C   UNL     1       9.701  -0.061  23.079  0.00  0.00    +0.277 C 
ENDBRANCH  34   4
ENDBRANCH  28  29
ENDBRANCH  27  28
ENDBRANCH  24   8
TORSDOF 5
ENDMDL
MODEL 4
REMARK VINA RESULT:      14.2      1.626      2.800
REMARK  Name = 11912116
REMARK  6 active torsions:
REMARK  status: ('A' for Active; 'I' for Inactive)
REMARK    1  A    between atoms: O_4  and  C_34
REMARK    2  A    between atoms: O_4  and  C_35
REMARK    3  A    between atoms: N_7  and  C_17
REMARK    4  A    between atoms: N_8  and  C_24
REMARK    5  A    between atoms: C_27  and  C_28
REMARK    6  A    between atoms: C_28  and  C_29
REMARK                            x       y       z     vdW  Elec       q    Type
REMARK                         _______ _______ _______ _____ _____    ______ ____
ROOT
ATOM      1  O   UNL     1      -3.796   4.714  24.502  0.00  0.00    -0.253 OA
ATOM      2  O   UNL     1      -2.982   0.060  22.306  0.00  0.00    -0.266 OA
ATOM      5  N   UNL     1      -5.003   3.128  25.685  0.00  0.00    -0.285 N 
ATOM      6  N   UNL     1      -4.232   0.409  24.249  0.00  0.00    -0.310 N 
ATOM      7  N   UNL     1      -2.955   3.984  26.506  0.00  0.00    -0.296 N 
ATOM      9  C   UNL     1      -6.451   1.686  24.257  0.00  0.00    +0.027 C 
ATOM     10  C   UNL     1      -5.543   0.800  26.365  0.00  0.00    +0.054 C 
ATOM     11  C   UNL     1      -6.780   0.823  25.468  0.00  0.00    +0.018 C 
ATOM     12  C   UNL     1      -6.083   3.116  24.695  0.00  0.00    +0.114 C 
ATOM     13  C   UNL     1      -5.227   2.234  26.835  0.00  0.00    +0.119 C 
ATOM     14  C   UNL     1      -5.319   1.016  23.469  0.00  0.00    +0.130 C 
ATOM     15  C   UNL     1      -4.347   0.224  25.630  0.00  0.00    +0.027 A 
ATOM     16  C   UNL     1      -3.912   3.992  25.498  0.00  0.00    +0.302 C 
ATOM     18  C   UNL     1      -3.389  -0.433  26.307  0.00  0.00    +0.024 A 
ATOM     19  C   UNL     1      -3.119  -0.064  23.524  0.00  0.00    +0.273 A 
ATOM     24  C   UNL     1      -2.063  -0.768  24.318  0.00  0.00    +0.099 A 
ATOM     25  C   UNL     1      -2.225  -0.937  25.634  0.00  0.00    +0.030 A 
ATOM     36  H   UNL     1      -3.005   3.321  27.264  0.00  0.00    +0.151 HD
ENDROOT
BRANCH   7  17
ATOM     17  C   UNL     1      -1.773   4.814  26.448  0.00  0.00    +0.074 C 
ATOM     20  C   UNL     1      -0.516   4.007  26.793  0.00  0.00    +0.022 C 
ATOM     21  C   UNL     1      -1.639   5.490  25.079  0.00  0.00    +0.022 C 
ATOM     22  C   UNL     1      -0.130   3.025  25.686  0.00  0.00    +0.002 C 
ATOM     23  C   UNL     1      -1.251   4.506  23.976  0.00  0.00    +0.002 C 
ATOM     26  C   UNL     1       0.007   3.723  24.337  0.00  0.00    +0.000 C 
ENDBRANCH   7  17
BRANCH  24   8
ATOM      3  O   UNL     1       0.254   0.757  23.613  0.00  0.00    -0.275 OA
ATOM      8  N   UNL     1      -0.964  -1.228  23.655  0.00  0.00    -0.281 N 
ATOM     27  C   UNL     1       0.134  -0.436  23.339  0.00  0.00    +0.222 C 
ATOM     37  H   UNL     1      -1.064  -2.123  23.182  0.00  0.00    +0.155 HD
BRANCH  27  28
ATOM     28  C   UNL     1       1.194  -1.232  22.602  0.00  0.00    +0.131 C 
BRANCH  28  29
ATOM     29  C   UNL     1       2.598  -0.771  22.894  0.00  0.00    -0.038 A 
ATOM     30  C   UNL     1       3.449  -1.570  23.658  0.00  0.00    +0.007 A 
ATOM     31  C   UNL     1       3.047   0.453  22.399  0.00  0.00    +0.007 A 
ATOM     32  C   UNL     1       4.750  -1.142  23.928  0.00  0.00    +0.046 A 
ATOM     33  C   UNL     1       4.346   0.880  22.669  0.00  0.00    +0.046 A 
ATOM     34  C   UNL     1       5.199   0.082  23.434  0.00  0.00    +0.120 A 
BRANCH  34   4
ATOM      4  O   UNL     1       6.467   0.499  23.696  0.00  0.00    -0.495 OA
ATOM     35  C   UNL     1       7.532  -0.280  23.154  0.00  0.00    +0.277 C 
ENDBRANCH  34   4
ENDBRANCH  28  29
ENDBRANCH  27  28
ENDBRANCH  24   8
TORSDOF 5
ENDMDL
