MODEL 1
REMARK VINA RESULT:      -2.4      0.000      0.000
REMARK  Name = 45784234
REMARK  3 active torsions:
REMARK  status: ('A' for Active; 'I' for Inactive)
REMARK    1  A    between atoms: N_2  and  C_6
REMARK    2  A    between atoms: N_3  and  C_16
REMARK    3  A    between atoms: C_7  and  C_15
REMARK                            x       y       z     vdW  Elec       q    Type
REMARK                         _______ _______ _______ _____ _____    ______ ____
ROOT
ATOM      2  N   UNL     1      -2.769   0.012  24.663  0.00  0.00    -0.299 NA
ATOM      7  C   UNL     1      -0.804  -0.735  23.624  0.00  0.00    +0.070 C 
ATOM      8  C   UNL     1      -1.653   0.520  23.863  0.00  0.00    +0.096 C 
ATOM      9  C   UNL     1      -2.153  -0.889  25.638  0.00  0.00    +0.085 C 
ATOM     10  C   UNL     1      -1.155  -1.671  24.794  0.00  0.00    +0.028 C 
ENDROOT
BRANCH   7  15
ATOM      1  F   UNL     1       6.460  -0.783  23.598  0.00  0.00    -0.205 F 
ATOM      4  N   UNL     1       1.623  -1.325  23.878  0.00  0.00    -0.341 N 
ATOM      5  N   UNL     1       1.201   0.660  22.973  0.00  0.00    -0.232 NA
ATOM     15  C   UNL     1       0.669  -0.431  23.476  0.00  0.00    +0.113 A 
ATOM     17  C   UNL     1       2.850  -0.774  23.618  0.00  0.00    +0.069 A 
ATOM     18  C   UNL     1       2.560   0.466  23.053  0.00  0.00    +0.089 A 
ATOM     19  C   UNL     1       4.151  -1.237  23.821  0.00  0.00    +0.066 A 
ATOM     20  C   UNL     1       3.617   1.304  22.662  0.00  0.00    +0.032 A 
ATOM     21  C   UNL     1       5.190  -0.389  23.426  0.00  0.00    +0.125 A 
ATOM     22  C   UNL     1       4.931   0.860  22.857  0.00  0.00    +0.040 A 
ATOM     23  H   UNL     1       1.455  -2.232  24.294  0.00  0.00    +0.167 HD
ENDBRANCH   7  15
BRANCH   2   6
ATOM      3  N   UNL     1      -5.181   3.489  25.062  0.00  0.00    -0.305 NA
ATOM      6  C   UNL     1      -3.532   1.083  25.300  0.00  0.00    +0.059 C 
ATOM     11  C   UNL     1      -4.995   1.029  24.855  0.00  0.00    +0.034 C 
ATOM     12  C   UNL     1      -2.934   2.453  24.967  0.00  0.00    +0.034 C 
ATOM     13  C   UNL     1      -5.788   2.204  25.434  0.00  0.00    +0.085 C 
ATOM     14  C   UNL     1      -3.795   3.582  25.543  0.00  0.00    +0.085 C 
ATOM     16  C   UNL     1      -5.978   4.601  25.579  0.00  0.00    +0.104 C 
ENDBRANCH   2   6
TORSDOF 2
ENDMDL
MODEL 2
REMARK VINA RESULT:      -0.6      0.731      1.426
REMARK  Name = 45784234
REMARK  3 active torsions:
REMARK  status: ('A' for Active; 'I' for Inactive)
REMARK    1  A    between atoms: N_2  and  C_6
REMARK    2  A    between atoms: N_3  and  C_16
REMARK    3  A    between atoms: C_7  and  C_15
REMARK                            x       y       z     vdW  Elec       q    Type
REMARK                         _______ _______ _______ _____ _____    ______ ____
ROOT
ATOM      2  N   UNL     1      -2.505   0.508  24.025  0.00  0.00    -0.299 NA
ATOM      7  C   UNL     1      -0.548  -0.396  23.103  0.00  0.00    +0.070 C 
ATOM      8  C   UNL     1      -1.177   0.923  23.569  0.00  0.00    +0.096 C 
ATOM      9  C   UNL     1      -2.275  -0.726  24.779  0.00  0.00    +0.085 C 
ATOM     10  C   UNL     1      -1.293  -1.484  23.895  0.00  0.00    +0.028 C 
ENDROOT
BRANCH   7  15
ATOM      1  F   UNL     1       6.564   1.070  23.300  0.00  0.00    -0.205 F 
ATOM      4  N   UNL     1       1.716   0.679  22.960  0.00  0.00    -0.341 N 
ATOM      5  N   UNL     1       1.690  -1.428  23.668  0.00  0.00    -0.232 NA
ATOM     15  C   UNL     1       0.955  -0.419  23.256  0.00  0.00    +0.113 A 
ATOM     17  C   UNL     1       3.027   0.356  23.197  0.00  0.00    +0.069 A 
ATOM     18  C   UNL     1       2.984  -0.964  23.638  0.00  0.00    +0.089 A 
ATOM     19  C   UNL     1       4.212   1.083  23.067  0.00  0.00    +0.066 A 
ATOM     20  C   UNL     1       4.184  -1.613  23.973  0.00  0.00    +0.032 A 
ATOM     21  C   UNL     1       5.396   0.421  23.406  0.00  0.00    +0.125 A 
ATOM     22  C   UNL     1       5.386  -0.903  23.851  0.00  0.00    +0.040 A 
ATOM     23  H   UNL     1       1.375   1.571  22.627  0.00  0.00    +0.167 HD
ENDBRANCH   7  15
BRANCH   2   6
ATOM      3  N   UNL     1      -5.134   3.690  25.041  0.00  0.00    -0.305 NA
ATOM      6  C   UNL     1      -3.165   1.535  24.828  0.00  0.00    +0.059 C 
ATOM     11  C   UNL     1      -4.669   1.262  24.906  0.00  0.00    +0.034 C 
ATOM     12  C   UNL     1      -2.916   2.929  24.246  0.00  0.00    +0.034 C 
ATOM     13  C   UNL     1      -5.391   2.382  25.659  0.00  0.00    +0.085 C 
ATOM     14  C   UNL     1      -3.696   3.995  25.021  0.00  0.00    +0.085 C 
ATOM     16  C   UNL     1      -5.871   4.741  25.740  0.00  0.00    +0.104 C 
ENDBRANCH   2   6
TORSDOF 2
ENDMDL
MODEL 3
REMARK VINA RESULT:       0.9      1.239      2.187
REMARK  Name = 45784234
REMARK  3 active torsions:
REMARK  status: ('A' for Active; 'I' for Inactive)
REMARK    1  A    between atoms: N_2  and  C_6
REMARK    2  A    between atoms: N_3  and  C_16
REMARK    3  A    between atoms: C_7  and  C_15
REMARK                            x       y       z     vdW  Elec       q    Type
REMARK                         _______ _______ _______ _____ _____    ______ ____
ROOT
ATOM      2  N   UNL     1      -2.043   1.132  23.531  0.00  0.00    -0.299 NA
ATOM      7  C   UNL     1      -0.190  -0.172  22.929  0.00  0.00    +0.070 C 
ATOM      8  C   UNL     1      -0.674   1.280  23.034  0.00  0.00    +0.096 C 
ATOM      9  C   UNL     1      -1.957   0.107  24.572  0.00  0.00    +0.085 C 
ATOM     10  C   UNL     1      -1.057  -0.946  23.937  0.00  0.00    +0.028 C 
ENDROOT
BRANCH   7  15
ATOM      1  F   UNL     1       7.007   0.718  23.357  0.00  0.00    -0.205 F 
ATOM      4  N   UNL     1       2.157   0.714  22.851  0.00  0.00    -0.341 N 
ATOM      5  N   UNL     1       1.935  -1.371  23.588  0.00  0.00    -0.232 NA
ATOM     15  C   UNL     1       1.300  -0.313  23.136  0.00  0.00    +0.113 A 
ATOM     17  C   UNL     1       3.429   0.290  23.138  0.00  0.00    +0.069 A 
ATOM     18  C   UNL     1       3.264  -1.014  23.597  0.00  0.00    +0.089 A 
ATOM     19  C   UNL     1       4.672   0.916  23.040  0.00  0.00    +0.066 A 
ATOM     20  C   UNL     1       4.395  -1.752  23.985  0.00  0.00    +0.032 A 
ATOM     21  C   UNL     1       5.787   0.167  23.431  0.00  0.00    +0.125 A 
ATOM     22  C   UNL     1       5.653  -1.144  23.895  0.00  0.00    +0.040 A 
ATOM     23  H   UNL     1       1.902   1.625  22.492  0.00  0.00    +0.167 HD
ENDBRANCH   7  15
BRANCH   2   6
ATOM      3  N   UNL     1      -3.245   4.131  26.294  0.00  0.00    -0.305 NA
ATOM      6  C   UNL     1      -2.592   2.389  24.034  0.00  0.00    +0.059 C 
ATOM     11  C   UNL     1      -1.521   3.166  24.802  0.00  0.00    +0.034 C 
ATOM     12  C   UNL     1      -3.802   2.136  24.938  0.00  0.00    +0.034 C 
ATOM     13  C   UNL     1      -2.104   4.439  25.421  0.00  0.00    +0.085 C 
ATOM     14  C   UNL     1      -4.311   3.443  25.553  0.00  0.00    +0.085 C 
ATOM     16  C   UNL     1      -3.758   5.350  26.917  0.00  0.00    +0.104 C 
ENDBRANCH   2   6
TORSDOF 2
ENDMDL
MODEL 4
REMARK VINA RESULT:       1.5      3.250      8.333
REMARK  Name = 45784234
REMARK  3 active torsions:
REMARK  status: ('A' for Active; 'I' for Inactive)
REMARK    1  A    between atoms: N_2  and  C_6
REMARK    2  A    between atoms: N_3  and  C_16
REMARK    3  A    between atoms: C_7  and  C_15
REMARK                            x       y       z     vdW  Elec       q    Type
REMARK                         _______ _______ _______ _____ _____    ______ ____
ROOT
ATOM      2  N   UNL     1       1.642  -0.700  23.316  0.00  0.00    -0.299 NA
ATOM      7  C   UNL     1      -0.669  -0.385  23.557  0.00  0.00    +0.070 C 
ATOM      8  C   UNL     1       0.657  -0.305  24.325  0.00  0.00    +0.096 C 
ATOM      9  C   UNL     1       1.234  -0.002  22.097  0.00  0.00    +0.085 C 
ATOM     10  C   UNL     1      -0.275  -0.202  22.081  0.00  0.00    +0.028 C 
ENDROOT
BRANCH   7  15
ATOM      1  F   UNL     1      -6.647   2.985  25.939  0.00  0.00    -0.205 F 
ATOM      4  N   UNL     1      -2.990   0.201  24.309  0.00  0.00    -0.341 N 
ATOM      5  N   UNL     1      -1.521   1.868  24.320  0.00  0.00    -0.232 NA
ATOM     15  C   UNL     1      -1.703   0.593  24.063  0.00  0.00    +0.113 A 
ATOM     17  C   UNL     1      -3.684   1.296  24.754  0.00  0.00    +0.069 A 
ATOM     18  C   UNL     1      -2.745   2.325  24.752  0.00  0.00    +0.089 A 
ATOM     19  C   UNL     1      -5.012   1.472  25.146  0.00  0.00    +0.066 A 
ATOM     20  C   UNL     1      -3.136   3.610  25.163  0.00  0.00    +0.032 A 
ATOM     21  C   UNL     1      -5.383   2.758  25.552  0.00  0.00    +0.125 A 
ATOM     22  C   UNL     1      -4.464   3.810  25.561  0.00  0.00    +0.040 A 
ATOM     23  H   UNL     1      -3.367  -0.730  24.186  0.00  0.00    +0.167 HD
ENDBRANCH   7  15
BRANCH   2   6
ATOM      3  N   UNL     1       5.871  -0.324  23.100  0.00  0.00    -0.305 NA
ATOM      6  C   UNL     1       3.009  -0.372  23.714  0.00  0.00    +0.059 C 
ATOM     11  C   UNL     1       3.618   0.636  22.737  0.00  0.00    +0.034 C 
ATOM     12  C   UNL     1       3.879  -1.631  23.774  0.00  0.00    +0.034 C 
ATOM     13  C   UNL     1       5.084   0.917  23.080  0.00  0.00    +0.085 C 
ATOM     14  C   UNL     1       5.337  -1.277  24.084  0.00  0.00    +0.085 C 
ATOM     16  C   UNL     1       7.277  -0.034  23.379  0.00  0.00    +0.104 C 
ENDBRANCH   2   6
TORSDOF 2
ENDMDL
MODEL 5
REMARK VINA RESULT:       1.6      3.240      8.078
REMARK  Name = 45784234
REMARK  3 active torsions:
REMARK  status: ('A' for Active; 'I' for Inactive)
REMARK    1  A    between atoms: N_2  and  C_6
REMARK    2  A    between atoms: N_3  and  C_16
REMARK    3  A    between atoms: C_7  and  C_15
REMARK                            x       y       z     vdW  Elec       q    Type
REMARK                         _______ _______ _______ _____ _____    ______ ____
ROOT
ATOM      2  N   UNL     1       0.132  -1.254  24.261  0.00  0.00    -0.299 NA
ATOM      7  C   UNL     1      -1.907  -0.729  25.291  0.00  0.00    +0.070 C 
ATOM      8  C   UNL     1      -0.549  -0.129  24.904  0.00  0.00    +0.096 C 
ATOM      9  C   UNL     1      -0.883  -1.872  23.408  0.00  0.00    +0.085 C 
ATOM     10  C   UNL     1      -2.112  -1.894  24.308  0.00  0.00    +0.028 C 
ENDROOT
BRANCH   7  15
ATOM      1  F   UNL     1      -6.002   5.268  25.500  0.00  0.00    -0.205 F 
ATOM      4  N   UNL     1      -2.756   1.630  25.415  0.00  0.00    -0.341 N 
ATOM      5  N   UNL     1      -4.310   0.053  25.217  0.00  0.00    -0.232 NA
ATOM     15  C   UNL     1      -3.021   0.293  25.305  0.00  0.00    +0.113 A 
ATOM     17  C   UNL     1      -3.954   2.296  25.398  0.00  0.00    +0.069 A 
ATOM     18  C   UNL     1      -4.908   1.290  25.273  0.00  0.00    +0.089 A 
ATOM     19  C   UNL     1      -4.276   3.652  25.478  0.00  0.00    +0.066 A 
ATOM     20  C   UNL     1      -6.268   1.638  25.223  0.00  0.00    +0.032 A 
ATOM     21  C   UNL     1      -5.635   3.980  25.427  0.00  0.00    +0.125 A 
ATOM     22  C   UNL     1      -6.615   2.993  25.302  0.00  0.00    +0.040 A 
ATOM     23  H   UNL     1      -1.842   2.055  25.496  0.00  0.00    +0.167 HD
ENDBRANCH   7  15
BRANCH   2   6
ATOM      3  N   UNL     1       3.951   0.428  23.449  0.00  0.00    -0.305 NA
ATOM      6  C   UNL     1       1.311  -0.833  23.505  0.00  0.00    +0.059 C 
ATOM     11  C   UNL     1       2.562  -1.533  24.041  0.00  0.00    +0.034 C 
ATOM     12  C   UNL     1       1.492   0.686  23.576  0.00  0.00    +0.034 C 
ATOM     13  C   UNL     1       3.820  -1.030  23.328  0.00  0.00    +0.085 C 
ATOM     14  C   UNL     1       2.786   1.117  22.877  0.00  0.00    +0.085 C 
ATOM     16  C   UNL     1       5.183   0.887  22.808  0.00  0.00    +0.104 C 
ENDBRANCH   2   6
TORSDOF 2
ENDMDL
