MODEL 1
REMARK VINA RESULT:      -2.0      0.000      0.000
REMARK  Name = 7142808
REMARK  6 active torsions:
REMARK  status: ('A' for Active; 'I' for Inactive)
REMARK    1  A    between atoms: N_4  and  C_14
REMARK    2  A    between atoms: N_6  and  C_18
REMARK    3  A    between atoms: C_14  and  C_17
REMARK    4  A    between atoms: C_17  and  C_20
REMARK    5  A    between atoms: C_20  and  C_21
REMARK    6  A    between atoms: C_22  and  C_25
REMARK                            x       y       z     vdW  Elec       q    Type
REMARK                         _______ _______ _______ _____ _____    ______ ____
ROOT
ATOM      2  O   UNL     1       0.123   3.021  25.733  0.00  0.00    -0.266 OA
ATOM      4  N   UNL     1      -4.814   2.174  25.539  0.00  0.00    -0.301 NA
ATOM      5  N   UNL     1      -1.929   3.191  24.629  0.00  0.00    -0.310 N 
ATOM      7  C   UNL     1      -3.912   4.513  25.570  0.00  0.00    +0.024 C 
ATOM      8  C   UNL     1      -4.140   3.340  23.433  0.00  0.00    +0.050 C 
ATOM      9  C   UNL     1      -4.290   4.700  24.107  0.00  0.00    +0.017 C 
ATOM     10  C   UNL     1      -4.840   3.470  26.228  0.00  0.00    +0.089 C 
ATOM     11  C   UNL     1      -5.093   2.323  24.103  0.00  0.00    +0.094 C 
ATOM     12  C   UNL     1      -2.430   4.118  25.652  0.00  0.00    +0.130 C 
ATOM     13  C   UNL     1      -2.705   2.854  23.514  0.00  0.00    +0.026 A 
ATOM     15  C   UNL     1      -2.188   2.092  22.536  0.00  0.00    +0.024 A 
ATOM     16  C   UNL     1      -0.602   2.739  24.777  0.00  0.00    +0.273 A 
ATOM     18  C   UNL     1      -0.071   1.873  23.677  0.00  0.00    +0.099 A 
ATOM     19  C   UNL     1      -0.844   1.592  22.622  0.00  0.00    +0.030 A 
ENDROOT
BRANCH  18   6
ATOM      3  O   UNL     1       1.049  -0.222  22.162  0.00  0.00    -0.270 OA
ATOM      6  N   UNL     1       1.205   1.405  23.790  0.00  0.00    -0.277 N 
ATOM     22  C   UNL     1       1.719   0.362  23.017  0.00  0.00    +0.248 C 
ATOM     34  H   UNL     1       1.855   2.012  24.283  0.00  0.00    +0.155 HD
BRANCH  22  25
ATOM      1  F   UNL     1       7.070  -0.920  23.963  0.00  0.00    -0.205 F 
ATOM     25  C   UNL     1       3.128   0.024  23.266  0.00  0.00    +0.037 A 
ATOM     29  C   UNL     1       3.459  -1.259  23.674  0.00  0.00    +0.016 A 
ATOM     30  C   UNL     1       4.103   0.995  23.088  0.00  0.00    +0.016 A 
ATOM     31  C   UNL     1       4.796  -1.580  23.911  0.00  0.00    +0.039 A 
ATOM     32  C   UNL     1       5.440   0.674  23.324  0.00  0.00    +0.039 A 
ATOM     33  C   UNL     1       5.787  -0.613  23.735  0.00  0.00    +0.123 A 
ENDBRANCH  22  25
ENDBRANCH  18   6
BRANCH   4  14
ATOM     14  C   UNL     1      -5.743   1.232  26.157  0.00  0.00    +0.085 C 
BRANCH  14  17
ATOM     17  C   UNL     1      -5.163  -0.181  26.132  0.00  0.00    +0.020 C 
BRANCH  17  20
ATOM     20  C   UNL     1      -4.541  -0.497  24.770  0.00  0.00    +0.036 C 
BRANCH  20  21
ATOM     21  C   UNL     1      -3.121  -0.985  24.905  0.00  0.00    -0.047 A 
ATOM     23  C   UNL     1      -2.720  -2.117  24.209  0.00  0.00    +0.003 A 
ATOM     24  C   UNL     1      -2.237  -0.294  25.721  0.00  0.00    +0.003 A 
ATOM     26  C   UNL     1      -1.406  -2.567  24.333  0.00  0.00    +0.000 A 
ATOM     27  C   UNL     1      -0.924  -0.745  25.845  0.00  0.00    +0.000 A 
ATOM     28  C   UNL     1      -0.507  -1.882  25.151  0.00  0.00    +0.000 A 
ENDBRANCH  20  21
ENDBRANCH  17  20
ENDBRANCH  14  17
ENDBRANCH   4  14
TORSDOF 6
ENDMDL
