MODEL 1
REMARK VINA RESULT:       5.5      0.000      0.000
REMARK  Name = 26743270
REMARK  9 active torsions:
REMARK  status: ('A' for Active; 'I' for Inactive)
REMARK    1  A    between atoms: C_8  and  C_14
REMARK    2  A    between atoms: C_9  and  C_12
REMARK    3  A    between atoms: C_12  and  C_15
REMARK    4  A    between atoms: C_14  and  C_16
REMARK    5  A    between atoms: C_18  and  C_20
REMARK    6  A    between atoms: C_19  and  C_21
REMARK    7  A    between atoms: C_19  and  C_25
REMARK    8  A    between atoms: C_19  and  C_26
REMARK    9  A    between atoms: C_19  and  C_27
REMARK                            x       y       z     vdW  Elec       q    Type
REMARK                         _______ _______ _______ _____ _____    ______ ____
ROOT
ATOM      4  N   UNL     1      -6.655   3.296  26.545  0.00  0.00    -0.316 NA
ATOM      8  C   UNL     1      -4.498   1.652  25.385  0.00  0.00    +0.004 C 
ATOM      9  C   UNL     1      -4.659   3.159  25.073  0.00  0.00    +0.012 C 
ATOM     10  C   UNL     1      -5.151   1.346  26.743  0.00  0.00    +0.019 C 
ATOM     11  C   UNL     1      -6.120   3.614  25.220  0.00  0.00    +0.085 C 
ATOM     13  C   UNL     1      -6.586   1.864  26.829  0.00  0.00    +0.081 C 
ATOM     32  H   UNL     1      -7.625   3.605  26.601  0.00  0.00    +0.122 HD
ENDROOT
BRANCH   9  12
ATOM     12  C   UNL     1      -4.110   3.549  23.701  0.00  0.00    +0.064 C 
BRANCH  12  15
ATOM      2  O   UNL     1      -1.755   1.231  22.271  0.00  0.00    -0.354 OA
ATOM      5  N   UNL     1      -3.014   1.814  22.349  0.00  0.00    -0.083 NA
ATOM     15  C   UNL     1      -2.918   2.714  23.331  0.00  0.00    +0.085 A 
ATOM     17  C   UNL     1      -1.635   2.743  23.906  0.00  0.00    +0.076 A 
ATOM     18  C   UNL     1      -0.943   1.793  23.203  0.00  0.00    +0.167 A 
BRANCH  18  20
ATOM     20  C   UNL     1       0.399   1.288  23.243  0.00  0.00    +0.020 A 
ATOM     21  C   UNL     1       3.009   0.306  23.323  0.00  0.00    -0.042 A 
ATOM     22  C   UNL     1       1.409   2.039  23.844  0.00  0.00    +0.012 A 
ATOM     23  C   UNL     1       0.694   0.045  22.681  0.00  0.00    +0.012 A 
ATOM     28  C   UNL     1       2.714   1.549  23.884  0.00  0.00    +0.005 A 
ATOM     29  C   UNL     1       1.999  -0.446  22.722  0.00  0.00    +0.005 A 
BRANCH  21  19
ATOM     19  C   UNL     1       4.405  -0.218  23.364  0.00  0.00    -0.013 C 
ATOM     25  C   UNL     1       5.082  -0.132  21.961  0.00  0.00    +0.015 C 
ATOM     26  C   UNL     1       4.434  -1.713  23.809  0.00  0.00    +0.015 C 
ATOM     27  C   UNL     1       5.373   0.526  24.342  0.00  0.00    +0.015 C 
ENDBRANCH  21  19
ENDBRANCH  18  20
ENDBRANCH  12  15
ENDBRANCH   9  12
BRANCH   8  14
ATOM     14  C   UNL     1      -5.049   0.726  24.293  0.00  0.00    +0.100 C 
BRANCH  14  16
ATOM      1  S   UNL     1      -0.608  -0.902  25.823  0.00  0.00    -0.061 S 
ATOM      3  O   UNL     1      -4.645  -1.521  23.526  0.00  0.00    -0.275 OA
ATOM      6  N   UNL     1      -3.021  -0.419  24.818  0.00  0.00    -0.265 N 
ATOM      7  N   UNL     1      -1.963  -2.593  24.412  0.00  0.00    -0.233 NA
ATOM     16  C   UNL     1      -4.236  -0.548  24.151  0.00  0.00    +0.219 C 
ATOM     24  C   UNL     1      -1.988  -1.381  24.923  0.00  0.00    +0.164 A 
ATOM     30  C   UNL     1       0.094  -2.436  25.516  0.00  0.00    +0.068 A 
ATOM     31  C   UNL     1      -0.769  -3.196  24.753  0.00  0.00    +0.120 A 
ATOM     33  H   UNL     1      -2.819   0.455  25.298  0.00  0.00    +0.157 HD
ENDBRANCH  14  16
ENDBRANCH   8  14
TORSDOF 6
ENDMDL
MODEL 2
REMARK VINA RESULT:       8.4      1.195      1.695
REMARK  Name = 26743270
REMARK  9 active torsions:
REMARK  status: ('A' for Active; 'I' for Inactive)
REMARK    1  A    between atoms: C_8  and  C_14
REMARK    2  A    between atoms: C_9  and  C_12
REMARK    3  A    between atoms: C_12  and  C_15
REMARK    4  A    between atoms: C_14  and  C_16
REMARK    5  A    between atoms: C_18  and  C_20
REMARK    6  A    between atoms: C_19  and  C_21
REMARK    7  A    between atoms: C_19  and  C_25
REMARK    8  A    between atoms: C_19  and  C_26
REMARK    9  A    between atoms: C_19  and  C_27
REMARK                            x       y       z     vdW  Elec       q    Type
REMARK                         _______ _______ _______ _____ _____    ______ ____
ROOT
ATOM      4  N   UNL     1      -4.676   5.503  25.052  0.00  0.00    -0.316 NA
ATOM      8  C   UNL     1      -3.744   2.719  25.337  0.00  0.00    +0.004 C 
ATOM      9  C   UNL     1      -3.592   3.521  24.023  0.00  0.00    +0.012 C 
ATOM     10  C   UNL     1      -3.835   3.700  26.517  0.00  0.00    +0.019 C 
ATOM     11  C   UNL     1      -4.671   4.609  23.894  0.00  0.00    +0.085 C 
ATOM     13  C   UNL     1      -4.899   4.775  26.300  0.00  0.00    +0.081 C 
ATOM     32  H   UNL     1      -5.408   6.204  24.935  0.00  0.00    +0.122 HD
ENDROOT
BRANCH   9  12
ATOM     12  C   UNL     1      -3.574   2.633  22.778  0.00  0.00    +0.064 C 
BRANCH  12  15
ATOM      2  O   UNL     1      -1.055   0.107  22.288  0.00  0.00    -0.354 OA
ATOM      5  N   UNL     1      -2.359   0.578  22.195  0.00  0.00    -0.083 NA
ATOM     15  C   UNL     1      -2.321   1.808  22.713  0.00  0.00    +0.085 A 
ATOM     17  C   UNL     1      -1.032   2.164  23.147  0.00  0.00    +0.076 A 
ATOM     18  C   UNL     1      -0.275   1.061  22.857  0.00  0.00    +0.167 A 
BRANCH  18  20
ATOM     20  C   UNL     1       1.108   0.717  23.020  0.00  0.00    +0.020 A 
ATOM     21  C   UNL     1       3.798   0.047  23.335  0.00  0.00    -0.042 A 
ATOM     22  C   UNL     1       1.514  -0.613  22.905  0.00  0.00    +0.012 A 
ATOM     23  C   UNL     1       2.047   1.713  23.292  0.00  0.00    +0.012 A 
ATOM     28  C   UNL     1       2.859  -0.948  23.063  0.00  0.00    +0.005 A 
ATOM     29  C   UNL     1       3.392   1.378  23.449  0.00  0.00    +0.005 A 
BRANCH  21  19
ATOM     19  C   UNL     1       5.236  -0.311  23.504  0.00  0.00    -0.013 C 
ATOM     25  C   UNL     1       5.992  -0.275  22.140  0.00  0.00    +0.015 C 
ATOM     26  C   UNL     1       5.396  -1.747  24.092  0.00  0.00    +0.015 C 
ATOM     27  C   UNL     1       6.052   0.623  24.458  0.00  0.00    +0.015 C 
ENDBRANCH  21  19
ENDBRANCH  18  20
ENDBRANCH  12  15
ENDBRANCH   9  12
BRANCH   8  14
ATOM     14  C   UNL     1      -4.931   1.747  25.342  0.00  0.00    +0.100 C 
BRANCH  14  16
ATOM      1  S   UNL     1      -0.902  -1.142  25.695  0.00  0.00    -0.061 S 
ATOM      3  O   UNL     1      -5.302  -0.381  24.277  0.00  0.00    -0.275 OA
ATOM      6  N   UNL     1      -3.232   0.070  25.293  0.00  0.00    -0.265 N 
ATOM      7  N   UNL     1      -2.900  -2.205  24.444  0.00  0.00    -0.233 NA
ATOM     16  C   UNL     1      -4.537   0.351  24.896  0.00  0.00    +0.219 C 
ATOM     24  C   UNL     1      -2.500  -1.120  25.071  0.00  0.00    +0.164 A 
ATOM     30  C   UNL     1      -0.712  -2.734  25.085  0.00  0.00    +0.068 A 
ATOM     31  C   UNL     1      -1.874  -3.129  24.454  0.00  0.00    +0.120 A 
ATOM     33  H   UNL     1      -2.716   0.782  25.806  0.00  0.00    +0.157 HD
ENDBRANCH  14  16
ENDBRANCH   8  14
TORSDOF 6
ENDMDL
