MODEL 1
REMARK VINA RESULT:      -4.4      0.000      0.000
REMARK  Name = 28962277
REMARK  11 active torsions:
REMARK  status: ('A' for Active; 'I' for Inactive)
REMARK    1  A    between atoms: O_4  and  C_13
REMARK    2  A    between atoms: O_5  and  C_16
REMARK    3  A    between atoms: N_7  and  C_11
REMARK    4  A    between atoms: N_7  and  C_17
REMARK    5  A    between atoms: N_7  and  C_18
REMARK    6  A    between atoms: N_8  and  C_15
REMARK    7  A    between atoms: N_9  and  C_24
REMARK    8  A    between atoms: C_12  and  C_15
REMARK    9  A    between atoms: C_14  and  C_16
REMARK   10  A    between atoms: C_17  and  C_19
REMARK   11  A    between atoms: C_19  and  C_20
REMARK                            x       y       z     vdW  Elec       q    Type
REMARK                         _______ _______ _______ _____ _____    ______ ____
ROOT
ATOM      3  O   UNL     1      -1.500   2.967  25.207  0.00  0.00    -0.365 OA
ATOM     11  C   UNL     1      -3.772   2.256  25.238  0.00  0.00    +0.118 C 
ATOM     12  C   UNL     1      -2.347   1.857  24.831  0.00  0.00    +0.155 C 
ATOM     13  C   UNL     1      -3.725   3.776  25.207  0.00  0.00    +0.165 C 
ATOM     14  C   UNL     1      -2.319   4.025  25.742  0.00  0.00    +0.174 C 
ENDROOT
BRANCH  13   4
ATOM      4  O   UNL     1      -3.845   4.275  23.881  0.00  0.00    -0.388 OA
ATOM     32  H   UNL     1      -3.646   5.226  23.905  0.00  0.00    +0.210 HD
ENDBRANCH  13   4
BRANCH  11   7
ATOM      7  N   UNL     1      -4.849   1.655  24.472  0.00  0.00    -0.297 NA
ATOM     18  C   UNL     1      -6.154   2.017  25.033  0.00  0.00    +0.105 C 
BRANCH   7  17
ATOM     17  C   UNL     1      -4.709   0.196  24.431  0.00  0.00    +0.090 C 
BRANCH  17  19
ATOM     19  C   UNL     1      -4.045  -0.327  25.705  0.00  0.00    +0.071 C 
BRANCH  19  20
ATOM     10  N   UNL     1      -1.689  -0.854  26.022  0.00  0.00    -0.260 NA
ATOM     20  C   UNL     1      -2.841  -1.180  25.393  0.00  0.00    +0.042 A 
ATOM     22  C   UNL     1      -2.968  -2.231  24.499  0.00  0.00    +0.023 A 
ATOM     23  C   UNL     1      -1.839  -2.998  24.235  0.00  0.00    +0.003 A 
ATOM     25  C   UNL     1      -0.614  -1.622  25.739  0.00  0.00    +0.111 A 
ATOM     26  C   UNL     1      -0.635  -2.695  24.862  0.00  0.00    +0.020 A 
ENDBRANCH  19  20
ENDBRANCH  17  19
ENDBRANCH   7  17
ENDBRANCH  11   7
BRANCH  12  15
ATOM     15  C   UNL     1      -2.109   1.588  23.350  0.00  0.00    +0.139 C 
BRANCH  15   8
ATOM      6  O   UNL     1       0.666   2.193  23.724  0.00  0.00    -0.253 OA
ATOM      8  N   UNL     1      -1.005   0.695  23.160  0.00  0.00    -0.297 N 
ATOM      9  N   UNL     1       1.190  -0.009  23.103  0.00  0.00    -0.267 N 
ATOM     21  C   UNL     1       0.336   1.066  23.365  0.00  0.00    +0.304 C 
ATOM     33  H   UNL     1      -1.201  -0.251  22.851  0.00  0.00    +0.150 HD
ATOM     35  H   UNL     1       0.755  -0.881  22.812  0.00  0.00    +0.156 HD
BRANCH   9  24
ATOM      1  F   UNL     1       2.534  -2.149  24.278  0.00  0.00    -0.203 F 
ATOM      2  F   UNL     1       6.722  -0.111  23.451  0.00  0.00    -0.205 F 
ATOM     24  C   UNL     1       2.601  -0.037  23.193  0.00  0.00    +0.070 A 
ATOM     27  C   UNL     1       3.244  -1.124  23.787  0.00  0.00    +0.147 A 
ATOM     28  C   UNL     1       3.352   1.024  22.686  0.00  0.00    +0.029 A 
ATOM     29  C   UNL     1       4.636  -1.149  23.874  0.00  0.00    +0.078 A 
ATOM     30  C   UNL     1       4.743   0.999  22.773  0.00  0.00    +0.040 A 
ATOM     31  C   UNL     1       5.385  -0.088  23.367  0.00  0.00    +0.126 A 
ENDBRANCH   9  24
ENDBRANCH  15   8
ENDBRANCH  12  15
BRANCH  14  16
ATOM     16  C   UNL     1      -1.708   5.364  25.375  0.00  0.00    +0.190 C 
BRANCH  16   5
ATOM      5  O   UNL     1      -0.514   5.139  24.642  0.00  0.00    -0.392 OA
ATOM     34  H   UNL     1      -0.775   4.944  23.726  0.00  0.00    +0.210 HD
ENDBRANCH  16   5
ENDBRANCH  14  16
TORSDOF 10
ENDMDL
MODEL 2
REMARK VINA RESULT:      -3.8      1.819      4.115
REMARK  Name = 28962277
REMARK  11 active torsions:
REMARK  status: ('A' for Active; 'I' for Inactive)
REMARK    1  A    between atoms: O_4  and  C_13
REMARK    2  A    between atoms: O_5  and  C_16
REMARK    3  A    between atoms: N_7  and  C_11
REMARK    4  A    between atoms: N_7  and  C_17
REMARK    5  A    between atoms: N_7  and  C_18
REMARK    6  A    between atoms: N_8  and  C_15
REMARK    7  A    between atoms: N_9  and  C_24
REMARK    8  A    between atoms: C_12  and  C_15
REMARK    9  A    between atoms: C_14  and  C_16
REMARK   10  A    between atoms: C_17  and  C_19
REMARK   11  A    between atoms: C_19  and  C_20
REMARK                            x       y       z     vdW  Elec       q    Type
REMARK                         _______ _______ _______ _____ _____    ______ ____
ROOT
ATOM      3  O   UNL     1      -3.107  -1.044  23.231  0.00  0.00    -0.365 OA
ATOM     11  C   UNL     1      -4.560   0.381  24.466  0.00  0.00    +0.118 C 
ATOM     12  C   UNL     1      -3.448   0.349  23.409  0.00  0.00    +0.155 C 
ATOM     13  C   UNL     1      -4.313  -0.891  25.261  0.00  0.00    +0.165 C 
ATOM     14  C   UNL     1      -3.881  -1.840  24.149  0.00  0.00    +0.174 C 
ENDROOT
BRANCH  13   4
ATOM      4  O   UNL     1      -3.262  -0.722  26.204  0.00  0.00    -0.388 OA
ATOM     32  H   UNL     1      -2.539  -0.251  25.757  0.00  0.00    +0.210 HD
ENDBRANCH  13   4
BRANCH  11   7
ATOM      7  N   UNL     1      -4.660   1.595  25.256  0.00  0.00    -0.297 NA
ATOM     18  C   UNL     1      -5.814   1.538  26.158  0.00  0.00    +0.105 C 
BRANCH   7  17
ATOM     17  C   UNL     1      -4.759   2.774  24.390  0.00  0.00    +0.090 C 
BRANCH  17  19
ATOM     19  C   UNL     1      -4.317   4.037  25.131  0.00  0.00    +0.071 C 
BRANCH  19  20
ATOM     10  N   UNL     1      -2.284   3.138  26.124  0.00  0.00    -0.260 NA
ATOM     20  C   UNL     1      -2.820   4.077  25.313  0.00  0.00    +0.042 A 
ATOM     22  C   UNL     1      -2.083   5.049  24.657  0.00  0.00    +0.023 A 
ATOM     23  C   UNL     1      -0.705   5.057  24.845  0.00  0.00    +0.003 A 
ATOM     25  C   UNL     1      -0.942   3.178  26.283  0.00  0.00    +0.111 A 
ATOM     26  C   UNL     1      -0.116   4.107  25.672  0.00  0.00    +0.020 A 
ENDBRANCH  19  20
ENDBRANCH  17  19
ENDBRANCH   7  17
ENDBRANCH  11   7
BRANCH  12  15
ATOM     15  C   UNL     1      -2.160   1.090  23.750  0.00  0.00    +0.139 C 
BRANCH  15   8
ATOM      6  O   UNL     1       0.585   1.879  23.977  0.00  0.00    -0.253 OA
ATOM      8  N   UNL     1      -1.011   0.284  23.462  0.00  0.00    -0.297 N 
ATOM      9  N   UNL     1       1.220  -0.259  23.246  0.00  0.00    -0.267 N 
ATOM     21  C   UNL     1       0.311   0.743  23.598  0.00  0.00    +0.304 C 
ATOM     33  H   UNL     1      -1.160  -0.663  23.130  0.00  0.00    +0.150 HD
ATOM     35  H   UNL     1       0.829  -1.150  22.950  0.00  0.00    +0.156 HD
BRANCH   9  24
ATOM      1  F   UNL     1       2.776  -2.270  24.386  0.00  0.00    -0.203 F 
ATOM      2  F   UNL     1       6.756   0.021  23.253  0.00  0.00    -0.205 F 
ATOM     24  C   UNL     1       2.632  -0.189  23.249  0.00  0.00    +0.070 A 
ATOM     27  C   UNL     1       3.383  -1.213  23.828  0.00  0.00    +0.147 A 
ATOM     28  C   UNL     1       3.276   0.905  22.672  0.00  0.00    +0.029 A 
ATOM     29  C   UNL     1       4.776  -1.143  23.829  0.00  0.00    +0.078 A 
ATOM     30  C   UNL     1       4.668   0.977  22.673  0.00  0.00    +0.040 A 
ATOM     31  C   UNL     1       5.419  -0.048  23.251  0.00  0.00    +0.126 A 
ENDBRANCH   9  24
ENDBRANCH  15   8
ENDBRANCH  12  15
BRANCH  14  16
ATOM     16  C   UNL     1      -3.058  -3.035  24.592  0.00  0.00    +0.190 C 
BRANCH  16   5
ATOM      5  O   UNL     1      -1.687  -2.669  24.601  0.00  0.00    -0.392 OA
ATOM     34  H   UNL     1      -1.225  -3.305  25.174  0.00  0.00    +0.210 HD
ENDBRANCH  16   5
ENDBRANCH  14  16
TORSDOF 10
ENDMDL
MODEL 3
REMARK VINA RESULT:      -1.6      1.913      4.338
REMARK  Name = 28962277
REMARK  11 active torsions:
REMARK  status: ('A' for Active; 'I' for Inactive)
REMARK    1  A    between atoms: O_4  and  C_13
REMARK    2  A    between atoms: O_5  and  C_16
REMARK    3  A    between atoms: N_7  and  C_11
REMARK    4  A    between atoms: N_7  and  C_17
REMARK    5  A    between atoms: N_7  and  C_18
REMARK    6  A    between atoms: N_8  and  C_15
REMARK    7  A    between atoms: N_9  and  C_24
REMARK    8  A    between atoms: C_12  and  C_15
REMARK    9  A    between atoms: C_14  and  C_16
REMARK   10  A    between atoms: C_17  and  C_19
REMARK   11  A    between atoms: C_19  and  C_20
REMARK                            x       y       z     vdW  Elec       q    Type
REMARK                         _______ _______ _______ _____ _____    ______ ____
ROOT
ATOM      3  O   UNL     1      -2.720  -0.335  24.004  0.00  0.00    -0.365 OA
ATOM     11  C   UNL     1      -1.921   1.391  25.436  0.00  0.00    +0.118 C 
ATOM     12  C   UNL     1      -2.498   1.093  24.046  0.00  0.00    +0.155 C 
ATOM     13  C   UNL     1      -1.262   0.075  25.823  0.00  0.00    +0.165 C 
ATOM     14  C   UNL     1      -2.256  -0.920  25.236  0.00  0.00    +0.174 C 
ENDROOT
BRANCH  13   4
ATOM      4  O   UNL     1       0.010  -0.072  25.206  0.00  0.00    -0.388 OA
ATOM     32  H   UNL     1       0.604  -0.489  25.852  0.00  0.00    +0.210 HD
ENDBRANCH  13   4
BRANCH  11   7
ATOM      7  N   UNL     1      -1.070   2.563  25.540  0.00  0.00    -0.297 NA
ATOM     18  C   UNL     1      -0.526   2.695  26.895  0.00  0.00    +0.105 C 
BRANCH   7  17
ATOM     17  C   UNL     1      -1.807   3.777  25.175  0.00  0.00    +0.090 C 
BRANCH  17  19
ATOM     19  C   UNL     1      -2.944   4.045  26.163  0.00  0.00    +0.071 C 
BRANCH  19  20
ATOM     10  N   UNL     1      -4.988   2.868  26.766  0.00  0.00    -0.260 NA
ATOM     20  C   UNL     1      -4.208   3.327  25.762  0.00  0.00    +0.042 A 
ATOM     22  C   UNL     1      -4.504   3.175  24.417  0.00  0.00    +0.023 A 
ATOM     23  C   UNL     1      -5.678   2.509  24.081  0.00  0.00    +0.003 A 
ATOM     25  C   UNL     1      -6.120   2.226  26.401  0.00  0.00    +0.111 A 
ATOM     26  C   UNL     1      -6.507   2.023  25.086  0.00  0.00    +0.020 A 
ENDBRANCH  19  20
ENDBRANCH  17  19
ENDBRANCH   7  17
ENDBRANCH  11   7
BRANCH  12  15
ATOM     15  C   UNL     1      -1.620   1.449  22.851  0.00  0.00    +0.139 C 
BRANCH  15   8
ATOM      6  O   UNL     1       1.083   1.961  23.648  0.00  0.00    -0.253 OA
ATOM      8  N   UNL     1      -0.511   0.550  22.741  0.00  0.00    -0.297 N 
ATOM      9  N   UNL     1       1.664  -0.196  22.926  0.00  0.00    -0.267 N 
ATOM     21  C   UNL     1       0.793   0.873  23.156  0.00  0.00    +0.304 C 
ATOM     33  H   UNL     1      -0.672  -0.364  22.331  0.00  0.00    +0.150 HD
ATOM     35  H   UNL     1       1.263  -1.032  22.508  0.00  0.00    +0.156 HD
BRANCH   9  24
ATOM      1  F   UNL     1       3.347   1.980  22.478  0.00  0.00    -0.203 F 
ATOM      2  F   UNL     1       7.091  -0.464  24.023  0.00  0.00    -0.205 F 
ATOM     24  C   UNL     1       3.048  -0.262  23.205  0.00  0.00    +0.070 A 
ATOM     27  C   UNL     1       3.864   0.845  22.970  0.00  0.00    +0.147 A 
ATOM     28  C   UNL     1       3.599  -1.437  23.717  0.00  0.00    +0.029 A 
ATOM     29  C   UNL     1       5.230   0.777  23.246  0.00  0.00    +0.078 A 
ATOM     30  C   UNL     1       4.964  -1.506  23.993  0.00  0.00    +0.040 A 
ATOM     31  C   UNL     1       5.780  -0.398  23.758  0.00  0.00    +0.126 A 
ENDBRANCH   9  24
ENDBRANCH  15   8
ENDBRANCH  12  15
BRANCH  14  16
ATOM     16  C   UNL     1      -1.704  -2.305  24.955  0.00  0.00    +0.190 C 
BRANCH  16   5
ATOM      5  O   UNL     1      -0.912  -2.254  23.779  0.00  0.00    -0.392 OA
ATOM     34  H   UNL     1      -1.046  -3.093  23.307  0.00  0.00    +0.210 HD
ENDBRANCH  16   5
ENDBRANCH  14  16
TORSDOF 10
ENDMDL
MODEL 4
REMARK VINA RESULT:      -1.3      3.098      7.039
REMARK  Name = 28962277
REMARK  11 active torsions:
REMARK  status: ('A' for Active; 'I' for Inactive)
REMARK    1  A    between atoms: O_4  and  C_13
REMARK    2  A    between atoms: O_5  and  C_16
REMARK    3  A    between atoms: N_7  and  C_11
REMARK    4  A    between atoms: N_7  and  C_17
REMARK    5  A    between atoms: N_7  and  C_18
REMARK    6  A    between atoms: N_8  and  C_15
REMARK    7  A    between atoms: N_9  and  C_24
REMARK    8  A    between atoms: C_12  and  C_15
REMARK    9  A    between atoms: C_14  and  C_16
REMARK   10  A    between atoms: C_17  and  C_19
REMARK   11  A    between atoms: C_19  and  C_20
REMARK                            x       y       z     vdW  Elec       q    Type
REMARK                         _______ _______ _______ _____ _____    ______ ____
ROOT
ATOM      3  O   UNL     1       4.098   1.474  23.107  0.00  0.00    -0.365 OA
ATOM     11  C   UNL     1       2.646  -0.145  22.139  0.00  0.00    +0.118 C 
ATOM     12  C   UNL     1       2.718   1.269  22.729  0.00  0.00    +0.155 C 
ATOM     13  C   UNL     1       3.810  -0.857  22.811  0.00  0.00    +0.165 C 
ATOM     14  C   UNL     1       4.840   0.266  22.852  0.00  0.00    +0.174 C 
ENDROOT
BRANCH  13   4
ATOM      4  O   UNL     1       3.477  -1.271  24.130  0.00  0.00    -0.388 OA
ATOM     32  H   UNL     1       4.288  -1.237  24.663  0.00  0.00    +0.210 HD
ENDBRANCH  13   4
BRANCH  11   7
ATOM      7  N   UNL     1       1.364  -0.820  22.243  0.00  0.00    -0.297 NA
ATOM     18  C   UNL     1       0.532  -0.545  21.068  0.00  0.00    +0.105 C 
BRANCH   7  17
ATOM     17  C   UNL     1       0.660  -0.414  23.463  0.00  0.00    +0.090 C 
BRANCH  17  19
ATOM     19  C   UNL     1       0.305  -1.630  24.321  0.00  0.00    +0.071 C 
BRANCH  19  20
ATOM     10  N   UNL     1      -1.540  -0.772  25.660  0.00  0.00    -0.260 NA
ATOM     20  C   UNL     1      -1.156  -1.638  24.694  0.00  0.00    +0.042 A 
ATOM     22  C   UNL     1      -2.017  -2.508  24.045  0.00  0.00    +0.023 A 
ATOM     23  C   UNL     1      -3.359  -2.489  24.411  0.00  0.00    +0.003 A 
ATOM     25  C   UNL     1      -2.851  -0.783  25.988  0.00  0.00    +0.111 A 
ATOM     26  C   UNL     1      -3.791  -1.613  25.400  0.00  0.00    +0.020 A 
ENDBRANCH  19  20
ENDBRANCH  17  19
ENDBRANCH   7  17
ENDBRANCH  11   7
BRANCH  12  15
ATOM     15  C   UNL     1       1.866   1.538  23.964  0.00  0.00    +0.139 C 
BRANCH  15   8
ATOM      6  O   UNL     1      -0.362   1.920  25.724  0.00  0.00    -0.253 OA
ATOM      8  N   UNL     1       0.549   1.969  23.598  0.00  0.00    -0.297 N 
ATOM      9  N   UNL     1      -1.661   2.562  23.878  0.00  0.00    -0.267 N 
ATOM     21  C   UNL     1      -0.497   2.135  24.522  0.00  0.00    +0.304 C 
ATOM     33  H   UNL     1       0.359   2.152  22.618  0.00  0.00    +0.150 HD
ATOM     35  H   UNL     1      -1.607   2.693  22.871  0.00  0.00    +0.156 HD
BRANCH   9  24
ATOM      1  F   UNL     1      -2.033   4.730  25.590  0.00  0.00    -0.203 F 
ATOM      2  F   UNL     1      -6.604   3.644  26.144  0.00  0.00    -0.205 F 
ATOM     24  C   UNL     1      -2.921   2.840  24.458  0.00  0.00    +0.070 A 
ATOM     27  C   UNL     1      -3.074   3.933  25.310  0.00  0.00    +0.147 A 
ATOM     28  C   UNL     1      -4.013   2.018  24.175  0.00  0.00    +0.029 A 
ATOM     29  C   UNL     1      -4.318   4.205  25.880  0.00  0.00    +0.078 A 
ATOM     30  C   UNL     1      -5.256   2.290  24.744  0.00  0.00    +0.040 A 
ATOM     31  C   UNL     1      -5.409   3.384  25.597  0.00  0.00    +0.126 A 
ENDBRANCH   9  24
ENDBRANCH  15   8
ENDBRANCH  12  15
BRANCH  14  16
ATOM     16  C   UNL     1       5.928   0.117  23.900  0.00  0.00    +0.190 C 
BRANCH  16   5
ATOM      5  O   UNL     1       5.424   0.558  25.150  0.00  0.00    -0.392 OA
ATOM     34  H   UNL     1       5.400   1.530  25.122  0.00  0.00    +0.210 HD
ENDBRANCH  16   5
ENDBRANCH  14  16
TORSDOF 10
ENDMDL
MODEL 5
REMARK VINA RESULT:      -0.9      1.706      2.521
REMARK  Name = 28962277
REMARK  11 active torsions:
REMARK  status: ('A' for Active; 'I' for Inactive)
REMARK    1  A    between atoms: O_4  and  C_13
REMARK    2  A    between atoms: O_5  and  C_16
REMARK    3  A    between atoms: N_7  and  C_11
REMARK    4  A    between atoms: N_7  and  C_17
REMARK    5  A    between atoms: N_7  and  C_18
REMARK    6  A    between atoms: N_8  and  C_15
REMARK    7  A    between atoms: N_9  and  C_24
REMARK    8  A    between atoms: C_12  and  C_15
REMARK    9  A    between atoms: C_14  and  C_16
REMARK   10  A    between atoms: C_17  and  C_19
REMARK   11  A    between atoms: C_19  and  C_20
REMARK                            x       y       z     vdW  Elec       q    Type
REMARK                         _______ _______ _______ _____ _____    ______ ____
ROOT
ATOM      3  O   UNL     1      -3.150   3.791  26.157  0.00  0.00    -0.365 OA
ATOM     11  C   UNL     1      -2.994   2.407  24.226  0.00  0.00    +0.118 C 
ATOM     12  C   UNL     1      -2.192   3.055  25.363  0.00  0.00    +0.155 C 
ATOM     13  C   UNL     1      -4.194   3.331  24.083  0.00  0.00    +0.165 C 
ATOM     14  C   UNL     1      -4.449   3.688  25.542  0.00  0.00    +0.174 C 
ENDROOT
BRANCH  13   4
ATOM      4  O   UNL     1      -3.869   4.497  23.337  0.00  0.00    -0.388 OA
ATOM     32  H   UNL     1      -4.368   4.461  22.503  0.00  0.00    +0.210 HD
ENDBRANCH  13   4
BRANCH  11   7
ATOM      7  N   UNL     1      -2.266   2.143  22.997  0.00  0.00    -0.297 NA
ATOM     18  C   UNL     1      -3.151   2.251  21.833  0.00  0.00    +0.105 C 
BRANCH   7  17
ATOM     17  C   UNL     1      -1.645   0.815  23.034  0.00  0.00    +0.090 C 
BRANCH  17  19
ATOM     19  C   UNL     1      -1.815   0.168  24.409  0.00  0.00    +0.071 C 
BRANCH  19  20
ATOM     10  N   UNL     1      -1.985  -2.246  24.682  0.00  0.00    -0.260 NA
ATOM     20  C   UNL     1      -2.619  -1.105  24.326  0.00  0.00    +0.042 A 
ATOM     22  C   UNL     1      -3.936  -1.049  23.900  0.00  0.00    +0.023 A 
ATOM     23  C   UNL     1      -4.650  -2.242  23.837  0.00  0.00    +0.003 A 
ATOM     25  C   UNL     1      -2.711  -3.384  24.607  0.00  0.00    +0.111 A 
ATOM     26  C   UNL     1      -4.033  -3.435  24.195  0.00  0.00    +0.020 A 
ENDBRANCH  19  20
ENDBRANCH  17  19
ENDBRANCH   7  17
ENDBRANCH  11   7
BRANCH  12  15
ATOM     15  C   UNL     1      -1.097   4.033  24.955  0.00  0.00    +0.139 C 
BRANCH  15   8
ATOM      6  O   UNL     1       0.831   2.027  25.634  0.00  0.00    -0.253 OA
ATOM      8  N   UNL     1      -0.157   3.414  24.068  0.00  0.00    -0.297 N 
ATOM      9  N   UNL     1       1.548   2.014  23.399  0.00  0.00    -0.267 N 
ATOM     21  C   UNL     1       0.762   2.432  24.476  0.00  0.00    +0.304 C 
ATOM     33  H   UNL     1      -0.147   3.709  23.097  0.00  0.00    +0.150 HD
ATOM     35  H   UNL     1       1.364   2.451  22.499  0.00  0.00    +0.156 HD
BRANCH   9  24
ATOM      1  F   UNL     1       0.987  -0.714  23.506  0.00  0.00    -0.203 F 
ATOM      2  F   UNL     1       5.596  -1.773  23.407  0.00  0.00    -0.205 F 
ATOM     24  C   UNL     1       2.579   1.046  23.401  0.00  0.00    +0.070 A 
ATOM     27  C   UNL     1       2.265  -0.312  23.456  0.00  0.00    +0.147 A 
ATOM     28  C   UNL     1       3.913   1.451  23.349  0.00  0.00    +0.029 A 
ATOM     29  C   UNL     1       3.284  -1.265  23.457  0.00  0.00    +0.078 A 
ATOM     30  C   UNL     1       4.932   0.499  23.351  0.00  0.00    +0.040 A 
ATOM     31  C   UNL     1       4.617  -0.859  23.405  0.00  0.00    +0.126 A 
ENDBRANCH   9  24
ENDBRANCH  15   8
ENDBRANCH  12  15
BRANCH  14  16
ATOM     16  C   UNL     1      -5.215   4.977  25.775  0.00  0.00    +0.190 C 
BRANCH  16   5
ATOM      5  O   UNL     1      -6.603   4.685  25.811  0.00  0.00    -0.392 OA
ATOM     34  H   UNL     1      -6.693   3.757  26.087  0.00  0.00    +0.210 HD
ENDBRANCH  16   5
ENDBRANCH  14  16
TORSDOF 10
ENDMDL
