MODEL 1
REMARK VINA RESULT:       6.8      0.000      0.000
REMARK  Name = 44716951
REMARK  16 active torsions:
REMARK  status: ('A' for Active; 'I' for Inactive)
REMARK    1  A    between atoms: O_1  and  C_17
REMARK    2  A    between atoms: O_1  and  C_26
REMARK    3  A    between atoms: O_2  and  C_18
REMARK    4  A    between atoms: O_3  and  C_23
REMARK    5  A    between atoms: O_6  and  C_31
REMARK    6  A    between atoms: O_7  and  C_35
REMARK    7  A    between atoms: O_7  and  C_38
REMARK    8  A    between atoms: O_8  and  C_36
REMARK    9  A    between atoms: O_8  and  C_39
REMARK   10  A    between atoms: N_10  and  C_32
REMARK   11  A    between atoms: C_11  and  C_21
REMARK   12  A    between atoms: C_13  and  C_23
REMARK   13  A    between atoms: C_13  and  C_24
REMARK   14  A    between atoms: C_14  and  C_22
REMARK   15  A    between atoms: C_22  and  C_25
REMARK   16  A    between atoms: C_27  and  C_31
REMARK                            x       y       z     vdW  Elec       q    Type
REMARK                         _______ _______ _______ _____ _____    ______ ____
ROOT
ATOM     11  C   UNL     1      -4.148   1.832  24.755  0.00  0.00    -0.023 C 
ATOM     12  C   UNL     1      -4.034   2.961  25.851  0.00  0.00    +0.007 C 
ATOM     13  C   UNL     1      -2.774   3.906  25.765  0.00  0.00    +0.031 C 
ATOM     14  C   UNL     1      -5.286   0.838  25.232  0.00  0.00    +0.032 C 
ATOM     15  C   UNL     1      -2.798   1.068  24.695  0.00  0.00    +0.011 C 
ATOM     16  C   UNL     1      -5.381   3.697  26.026  0.00  0.00    +0.007 C 
ATOM     17  C   UNL     1      -1.494   3.028  25.627  0.00  0.00    +0.186 C 
ATOM     18  C   UNL     1      -6.637   1.538  25.509  0.00  0.00    +0.119 C 
ATOM     19  C   UNL     1      -1.584   1.976  24.527  0.00  0.00    +0.046 C 
ATOM     20  C   UNL     1      -6.489   2.732  26.447  0.00  0.00    +0.032 C 
ATOM     21  C   UNL     1      -4.456   2.372  23.337  0.00  0.00    +0.012 C 
ATOM     24  C   UNL     1      -2.647   4.707  27.093  0.00  0.00    +0.017 C 
ENDROOT
BRANCH  18   2
ATOM      2  O   UNL     1      -7.253   1.954  24.294  0.00  0.00    -0.391 OA
ATOM     40  H   UNL     1      -7.000   2.879  24.134  0.00  0.00    +0.210 HD
ENDBRANCH  18   2
BRANCH  17   1
ATOM      1  O   UNL     1      -0.335   3.818  25.358  0.00  0.00    -0.446 OA
BRANCH   1  26
ATOM      5  O   UNL     1       0.645   4.162  23.320  0.00  0.00    -0.226 OA
ATOM     10  N   UNL     1       0.863   2.140  24.482  0.00  0.00    -0.251 N 
ATOM     26  C   UNL     1       0.423   3.434  24.281  0.00  0.00    +0.405 C 
ATOM     42  H   UNL     1       0.572   1.696  25.349  0.00  0.00    +0.158 HD
BRANCH  10  32
ATOM     32  C   UNL     1       1.669   1.353  23.629  0.00  0.00    +0.043 A 
ATOM     33  C   UNL     1       3.058   1.383  23.758  0.00  0.00    +0.069 A 
ATOM     34  C   UNL     1       1.076   0.546  22.657  0.00  0.00    +0.069 A 
ATOM     35  C   UNL     1       1.872  -0.231  21.816  0.00  0.00    +0.125 A 
ATOM     36  C   UNL     1       3.853   0.607  22.915  0.00  0.00    +0.125 A 
ATOM     37  C   UNL     1       3.260  -0.200  21.945  0.00  0.00    +0.091 A 
BRANCH  35   7
ATOM      7  O   UNL     1       1.294  -1.018  20.868  0.00  0.00    -0.495 OA
ATOM     38  C   UNL     1       0.018  -0.610  20.375  0.00  0.00    +0.277 C 
ENDBRANCH  35   7
BRANCH  36   8
ATOM      8  O   UNL     1       5.208   0.638  23.040  0.00  0.00    -0.495 OA
ATOM     39  C   UNL     1       5.781  -0.139  24.091  0.00  0.00    +0.277 C 
ENDBRANCH  36   8
ENDBRANCH  10  32
ENDBRANCH   1  26
ENDBRANCH  17   1
BRANCH  14  22
ATOM     22  C   UNL     1      -5.507  -0.379  24.319  0.00  0.00    +0.102 C 
BRANCH  22  25
ATOM      4  O   UNL     1      -3.928  -1.066  22.676  0.00  0.00    -0.276 OA
ATOM      9  N   UNL     1      -3.300  -1.269  24.894  0.00  0.00    -0.296 N 
ATOM     25  C   UNL     1      -4.177  -0.933  23.876  0.00  0.00    +0.216 C 
ATOM     27  C   UNL     1      -1.933  -1.728  24.639  0.00  0.00    +0.101 C 
ATOM     28  C   UNL     1      -3.553  -1.129  26.326  0.00  0.00    +0.108 C 
ATOM     29  C   UNL     1      -1.231  -1.550  25.987  0.00  0.00    +0.026 C 
ATOM     30  C   UNL     1      -2.349  -1.772  26.999  0.00  0.00    +0.021 C 
BRANCH  27  31
ATOM     31  C   UNL     1      -1.912  -3.181  24.165  0.00  0.00    +0.178 C 
BRANCH  31   6
ATOM      6  O   UNL     1      -3.245  -3.652  24.102  0.00  0.00    -0.393 OA
ATOM     43  H   UNL     1      -3.741  -3.202  24.808  0.00  0.00    +0.209 HD
ENDBRANCH  31   6
ENDBRANCH  27  31
ENDBRANCH  22  25
ENDBRANCH  14  22
BRANCH  13  23
ATOM     23  C   UNL     1      -2.855   4.963  24.645  0.00  0.00    +0.166 C 
BRANCH  23   3
ATOM      3  O   UNL     1      -1.908   5.969  24.929  0.00  0.00    -0.394 OA
ATOM     41  H   UNL     1      -1.619   5.844  25.849  0.00  0.00    +0.209 HD
ENDBRANCH  23   3
ENDBRANCH  13  23
TORSDOF 12
ENDMDL
MODEL 2
REMARK VINA RESULT:       6.8      0.020      2.047
REMARK  Name = 44716951
REMARK  16 active torsions:
REMARK  status: ('A' for Active; 'I' for Inactive)
REMARK    1  A    between atoms: O_1  and  C_17
REMARK    2  A    between atoms: O_1  and  C_26
REMARK    3  A    between atoms: O_2  and  C_18
REMARK    4  A    between atoms: O_3  and  C_23
REMARK    5  A    between atoms: O_6  and  C_31
REMARK    6  A    between atoms: O_7  and  C_35
REMARK    7  A    between atoms: O_7  and  C_38
REMARK    8  A    between atoms: O_8  and  C_36
REMARK    9  A    between atoms: O_8  and  C_39
REMARK   10  A    between atoms: N_10  and  C_32
REMARK   11  A    between atoms: C_11  and  C_21
REMARK   12  A    between atoms: C_13  and  C_23
REMARK   13  A    between atoms: C_13  and  C_24
REMARK   14  A    between atoms: C_14  and  C_22
REMARK   15  A    between atoms: C_22  and  C_25
REMARK   16  A    between atoms: C_27  and  C_31
REMARK                            x       y       z     vdW  Elec       q    Type
REMARK                         _______ _______ _______ _____ _____    ______ ____
ROOT
ATOM     11  C   UNL     1      -4.145   1.823  24.758  0.00  0.00    -0.023 C 
ATOM     12  C   UNL     1      -4.028   2.954  25.852  0.00  0.00    +0.007 C 
ATOM     13  C   UNL     1      -2.766   3.896  25.764  0.00  0.00    +0.031 C 
ATOM     14  C   UNL     1      -5.286   0.833  25.236  0.00  0.00    +0.032 C 
ATOM     15  C   UNL     1      -2.796   1.056  24.700  0.00  0.00    +0.011 C 
ATOM     16  C   UNL     1      -5.373   3.694  26.025  0.00  0.00    +0.007 C 
ATOM     17  C   UNL     1      -1.488   3.014  25.629  0.00  0.00    +0.186 C 
ATOM     18  C   UNL     1      -6.635   1.537  25.511  0.00  0.00    +0.119 C 
ATOM     19  C   UNL     1      -1.580   1.961  24.531  0.00  0.00    +0.046 C 
ATOM     20  C   UNL     1      -6.484   2.732  26.447  0.00  0.00    +0.032 C 
ATOM     21  C   UNL     1      -4.450   2.362  23.339  0.00  0.00    +0.012 C 
ATOM     24  C   UNL     1      -2.638   4.699  27.091  0.00  0.00    +0.017 C 
ENDROOT
BRANCH  18   2
ATOM      2  O   UNL     1      -7.249   1.953  24.295  0.00  0.00    -0.391 OA
ATOM     40  H   UNL     1      -7.826   1.232  23.991  0.00  0.00    +0.210 HD
ENDBRANCH  18   2
BRANCH  17   1
ATOM      1  O   UNL     1      -0.327   3.801  25.360  0.00  0.00    -0.446 OA
BRANCH   1  26
ATOM      5  O   UNL     1       0.627   4.144  23.310  0.00  0.00    -0.226 OA
ATOM     10  N   UNL     1       0.883   2.133  24.482  0.00  0.00    -0.251 N 
ATOM     26  C   UNL     1       0.425   3.420  24.277  0.00  0.00    +0.405 C 
ATOM     42  H   UNL     1       0.607   1.691  25.356  0.00  0.00    +0.158 HD
BRANCH  10  32
ATOM     32  C   UNL     1       1.691   1.351  23.626  0.00  0.00    +0.043 A 
ATOM     33  C   UNL     1       1.100   0.553  22.646  0.00  0.00    +0.069 A 
ATOM     34  C   UNL     1       3.079   1.376  23.761  0.00  0.00    +0.069 A 
ATOM     35  C   UNL     1       3.876   0.604  22.916  0.00  0.00    +0.125 A 
ATOM     36  C   UNL     1       1.898  -0.219  21.802  0.00  0.00    +0.125 A 
ATOM     37  C   UNL     1       3.286  -0.193  21.936  0.00  0.00    +0.091 A 
BRANCH  35   7
ATOM      7  O   UNL     1       5.231   0.629  23.048  0.00  0.00    -0.495 OA
ATOM     38  C   UNL     1       5.796  -0.166  24.090  0.00  0.00    +0.277 C 
ENDBRANCH  35   7
BRANCH  36   8
ATOM      8  O   UNL     1       1.322  -0.998  20.846  0.00  0.00    -0.495 OA
ATOM     39  C   UNL     1       0.014  -0.630  20.408  0.00  0.00    +0.277 C 
ENDBRANCH  36   8
ENDBRANCH  10  32
ENDBRANCH   1  26
ENDBRANCH  17   1
BRANCH  14  22
ATOM     22  C   UNL     1      -5.509  -0.385  24.325  0.00  0.00    +0.102 C 
BRANCH  22  25
ATOM      4  O   UNL     1      -3.931  -1.071  22.682  0.00  0.00    -0.276 OA
ATOM      9  N   UNL     1      -3.304  -1.282  24.899  0.00  0.00    -0.296 N 
ATOM     25  C   UNL     1      -4.180  -0.941  23.881  0.00  0.00    +0.216 C 
ATOM     27  C   UNL     1      -1.939  -1.744  24.644  0.00  0.00    +0.101 C 
ATOM     28  C   UNL     1      -3.558  -1.145  26.331  0.00  0.00    +0.108 C 
ATOM     29  C   UNL     1      -1.237  -1.572  25.993  0.00  0.00    +0.026 C 
ATOM     30  C   UNL     1      -2.357  -1.794  27.003  0.00  0.00    +0.021 C 
BRANCH  27  31
ATOM     31  C   UNL     1      -1.921  -3.196  24.166  0.00  0.00    +0.178 C 
BRANCH  31   6
ATOM      6  O   UNL     1      -3.256  -3.662  24.098  0.00  0.00    -0.393 OA
ATOM     43  H   UNL     1      -3.520  -3.639  23.163  0.00  0.00    +0.209 HD
ENDBRANCH  31   6
ENDBRANCH  27  31
ENDBRANCH  22  25
ENDBRANCH  14  22
BRANCH  13  23
ATOM     23  C   UNL     1      -2.844   4.951  24.643  0.00  0.00    +0.166 C 
BRANCH  23   3
ATOM      3  O   UNL     1      -1.895   5.955  24.925  0.00  0.00    -0.394 OA
ATOM     41  H   UNL     1      -2.278   6.804  24.645  0.00  0.00    +0.209 HD
ENDBRANCH  23   3
ENDBRANCH  13  23
TORSDOF 12
ENDMDL
MODEL 3
REMARK VINA RESULT:      10.4      1.881      4.787
REMARK  Name = 44716951
REMARK  16 active torsions:
REMARK  status: ('A' for Active; 'I' for Inactive)
REMARK    1  A    between atoms: O_1  and  C_17
REMARK    2  A    between atoms: O_1  and  C_26
REMARK    3  A    between atoms: O_2  and  C_18
REMARK    4  A    between atoms: O_3  and  C_23
REMARK    5  A    between atoms: O_6  and  C_31
REMARK    6  A    between atoms: O_7  and  C_35
REMARK    7  A    between atoms: O_7  and  C_38
REMARK    8  A    between atoms: O_8  and  C_36
REMARK    9  A    between atoms: O_8  and  C_39
REMARK   10  A    between atoms: N_10  and  C_32
REMARK   11  A    between atoms: C_11  and  C_21
REMARK   12  A    between atoms: C_13  and  C_23
REMARK   13  A    between atoms: C_13  and  C_24
REMARK   14  A    between atoms: C_14  and  C_22
REMARK   15  A    between atoms: C_22  and  C_25
REMARK   16  A    between atoms: C_27  and  C_31
REMARK                            x       y       z     vdW  Elec       q    Type
REMARK                         _______ _______ _______ _____ _____    ______ ____
ROOT
ATOM     11  C   UNL     1      -4.065   1.211  25.049  0.00  0.00    -0.023 C 
ATOM     12  C   UNL     1      -4.667  -0.021  24.270  0.00  0.00    +0.007 C 
ATOM     13  C   UNL     1      -3.790  -1.331  24.231  0.00  0.00    +0.031 C 
ATOM     14  C   UNL     1      -4.953   2.471  24.679  0.00  0.00    +0.032 C 
ATOM     15  C   UNL     1      -2.614   1.447  24.550  0.00  0.00    +0.011 C 
ATOM     16  C   UNL     1      -6.146  -0.248  24.655  0.00  0.00    +0.007 C 
ATOM     17  C   UNL     1      -2.341  -0.955  23.796  0.00  0.00    +0.186 C 
ATOM     18  C   UNL     1      -6.459   2.266  24.962  0.00  0.00    +0.119 C 
ATOM     19  C   UNL     1      -1.739   0.198  24.591  0.00  0.00    +0.046 C 
ATOM     20  C   UNL     1      -6.996   0.982  24.335  0.00  0.00    +0.032 C 
ATOM     21  C   UNL     1      -4.017   1.011  26.584  0.00  0.00    +0.012 C 
ATOM     24  C   UNL     1      -4.363  -2.296  23.153  0.00  0.00    +0.017 C 
ENDROOT
BRANCH  18   2
ATOM      2  O   UNL     1      -6.719   2.263  26.362  0.00  0.00    -0.391 OA
ATOM     40  H   UNL     1      -5.872   2.131  26.821  0.00  0.00    +0.210 HD
ENDBRANCH  18   2
BRANCH  17   1
ATOM      1  O   UNL     1      -1.447  -2.061  23.917  0.00  0.00    -0.446 OA
BRANCH   1  26
ATOM      5  O   UNL     1       0.293  -2.107  25.401  0.00  0.00    -0.226 OA
ATOM     10  N   UNL     1       0.459  -1.047  23.319  0.00  0.00    -0.251 N 
ATOM     26  C   UNL     1      -0.168  -1.765  24.319  0.00  0.00    +0.405 C 
ATOM     42  H   UNL     1      -0.093  -0.859  22.486  0.00  0.00    +0.158 HD
BRANCH  10  32
ATOM     32  C   UNL     1       1.778  -0.539  23.310  0.00  0.00    +0.043 A 
ATOM     33  C   UNL     1       2.853  -1.385  23.584  0.00  0.00    +0.069 A 
ATOM     34  C   UNL     1       2.005   0.808  23.029  0.00  0.00    +0.069 A 
ATOM     35  C   UNL     1       3.307   1.309  23.019  0.00  0.00    +0.125 A 
ATOM     36  C   UNL     1       4.154  -0.883  23.575  0.00  0.00    +0.125 A 
ATOM     37  C   UNL     1       4.381   0.464  23.292  0.00  0.00    +0.091 A 
BRANCH  35   7
ATOM      7  O   UNL     1       3.528   2.624  22.744  0.00  0.00    -0.495 OA
ATOM     38  C   UNL     1       4.202   2.928  21.523  0.00  0.00    +0.277 C 
ENDBRANCH  35   7
BRANCH  36   8
ATOM      8  O   UNL     1       5.203  -1.708  23.843  0.00  0.00    -0.495 OA
ATOM     39  C   UNL     1       6.445  -1.091  24.182  0.00  0.00    +0.277 C 
ENDBRANCH  36   8
ENDBRANCH  10  32
ENDBRANCH   1  26
ENDBRANCH  17   1
BRANCH  14  22
ATOM     22  C   UNL     1      -4.482   3.798  25.296  0.00  0.00    +0.102 C 
BRANCH  22  25
ATOM      4  O   UNL     1      -3.536   4.940  23.435  0.00  0.00    -0.276 OA
ATOM      9  N   UNL     1      -2.072   4.144  25.040  0.00  0.00    -0.296 N 
ATOM     25  C   UNL     1      -3.330   4.352  24.498  0.00  0.00    +0.216 C 
ATOM     27  C   UNL     1      -0.855   4.699  24.445  0.00  0.00    +0.101 C 
ATOM     28  C   UNL     1      -1.782   3.453  26.294  0.00  0.00    +0.108 C 
ATOM     29  C   UNL     1       0.178   4.602  25.571  0.00  0.00    +0.026 C 
ATOM     30  C   UNL     1      -0.263   3.368  26.350  0.00  0.00    +0.021 C 
BRANCH  27  31
ATOM     31  C   UNL     1      -0.430   3.911  23.206  0.00  0.00    +0.178 C 
BRANCH  31   6
ATOM      6  O   UNL     1       0.450   2.880  23.610  0.00  0.00    -0.393 OA
ATOM     43  H   UNL     1       0.370   2.797  24.576  0.00  0.00    +0.209 HD
ENDBRANCH  31   6
ENDBRANCH  27  31
ENDBRANCH  22  25
ENDBRANCH  14  22
BRANCH  13  23
ATOM     23  C   UNL     1      -3.791  -2.130  25.550  0.00  0.00    +0.166 C 
BRANCH  23   3
ATOM      3  O   UNL     1      -3.392  -3.450  25.258  0.00  0.00    -0.394 OA
ATOM     41  H   UNL     1      -3.961  -3.773  24.538  0.00  0.00    +0.209 HD
ENDBRANCH  23   3
ENDBRANCH  13  23
TORSDOF 12
ENDMDL
MODEL 4
REMARK VINA RESULT:      10.4      1.883      4.915
REMARK  Name = 44716951
REMARK  16 active torsions:
REMARK  status: ('A' for Active; 'I' for Inactive)
REMARK    1  A    between atoms: O_1  and  C_17
REMARK    2  A    between atoms: O_1  and  C_26
REMARK    3  A    between atoms: O_2  and  C_18
REMARK    4  A    between atoms: O_3  and  C_23
REMARK    5  A    between atoms: O_6  and  C_31
REMARK    6  A    between atoms: O_7  and  C_35
REMARK    7  A    between atoms: O_7  and  C_38
REMARK    8  A    between atoms: O_8  and  C_36
REMARK    9  A    between atoms: O_8  and  C_39
REMARK   10  A    between atoms: N_10  and  C_32
REMARK   11  A    between atoms: C_11  and  C_21
REMARK   12  A    between atoms: C_13  and  C_23
REMARK   13  A    between atoms: C_13  and  C_24
REMARK   14  A    between atoms: C_14  and  C_22
REMARK   15  A    between atoms: C_22  and  C_25
REMARK   16  A    between atoms: C_27  and  C_31
REMARK                            x       y       z     vdW  Elec       q    Type
REMARK                         _______ _______ _______ _____ _____    ______ ____
ROOT
ATOM     11  C   UNL     1      -4.051   1.202  25.061  0.00  0.00    -0.023 C 
ATOM     12  C   UNL     1      -4.640  -0.035  24.278  0.00  0.00    +0.007 C 
ATOM     13  C   UNL     1      -3.757  -1.341  24.252  0.00  0.00    +0.031 C 
ATOM     14  C   UNL     1      -4.940   2.457  24.679  0.00  0.00    +0.032 C 
ATOM     15  C   UNL     1      -2.596   1.442  24.576  0.00  0.00    +0.011 C 
ATOM     16  C   UNL     1      -6.122  -0.267  24.649  0.00  0.00    +0.007 C 
ATOM     17  C   UNL     1      -2.306  -0.960  23.830  0.00  0.00    +0.186 C 
ATOM     18  C   UNL     1      -6.449   2.246  24.947  0.00  0.00    +0.119 C 
ATOM     19  C   UNL     1      -1.717   0.198  24.628  0.00  0.00    +0.046 C 
ATOM     20  C   UNL     1      -6.974   0.959  24.318  0.00  0.00    +0.032 C 
ATOM     21  C   UNL     1      -4.018   1.006  26.596  0.00  0.00    +0.012 C 
ATOM     24  C   UNL     1      -4.316  -2.311  23.170  0.00  0.00    +0.017 C 
ENDROOT
BRANCH  18   2
ATOM      2  O   UNL     1      -6.722   2.245  26.344  0.00  0.00    -0.391 OA
ATOM     40  H   UNL     1      -6.020   1.737  26.785  0.00  0.00    +0.210 HD
ENDBRANCH  18   2
BRANCH  17   1
ATOM      1  O   UNL     1      -1.408  -2.062  23.963  0.00  0.00    -0.446 OA
BRANCH   1  26
ATOM      5  O   UNL     1       0.346  -2.097  25.430  0.00  0.00    -0.226 OA
ATOM     10  N   UNL     1       0.485  -1.032  23.349  0.00  0.00    -0.251 N 
ATOM     26  C   UNL     1      -0.128  -1.757  24.353  0.00  0.00    +0.405 C 
ATOM     42  H   UNL     1      -0.077  -0.848  22.521  0.00  0.00    +0.158 HD
BRANCH  10  32
ATOM     32  C   UNL     1       1.799  -0.515  23.328  0.00  0.00    +0.043 A 
ATOM     33  C   UNL     1       2.014   0.832  23.033  0.00  0.00    +0.069 A 
ATOM     34  C   UNL     1       2.883  -1.350  23.603  0.00  0.00    +0.069 A 
ATOM     35  C   UNL     1       4.180  -0.839  23.583  0.00  0.00    +0.125 A 
ATOM     36  C   UNL     1       3.312   1.342  23.012  0.00  0.00    +0.125 A 
ATOM     37  C   UNL     1       4.395   0.507  23.288  0.00  0.00    +0.091 A 
BRANCH  35   7
ATOM      7  O   UNL     1       5.237  -1.654  23.850  0.00  0.00    -0.495 OA
ATOM     38  C   UNL     1       6.530  -1.051  23.884  0.00  0.00    +0.277 C 
ENDBRANCH  35   7
BRANCH  36   8
ATOM      8  O   UNL     1       3.522   2.655  22.723  0.00  0.00    -0.495 OA
ATOM     39  C   UNL     1       4.229   2.951  21.519  0.00  0.00    +0.277 C 
ENDBRANCH  36   8
ENDBRANCH  10  32
ENDBRANCH   1  26
ENDBRANCH  17   1
BRANCH  14  22
ATOM     22  C   UNL     1      -4.482   3.787  25.298  0.00  0.00    +0.102 C 
BRANCH  22  25
ATOM      4  O   UNL     1      -3.543   4.943  23.441  0.00  0.00    -0.276 OA
ATOM      9  N   UNL     1      -2.074   4.150  25.042  0.00  0.00    -0.296 N 
ATOM     25  C   UNL     1      -3.333   4.352  24.501  0.00  0.00    +0.216 C 
ATOM     27  C   UNL     1      -0.860   4.715  24.450  0.00  0.00    +0.101 C 
ATOM     28  C   UNL     1      -1.779   3.456  26.294  0.00  0.00    +0.108 C 
ATOM     29  C   UNL     1       0.173   4.621  25.575  0.00  0.00    +0.026 C 
ATOM     30  C   UNL     1      -0.260   3.381  26.349  0.00  0.00    +0.021 C 
BRANCH  27  31
ATOM     31  C   UNL     1      -0.431   3.935  23.207  0.00  0.00    +0.178 C 
BRANCH  31   6
ATOM      6  O   UNL     1       0.470   2.919  23.606  0.00  0.00    -0.393 OA
ATOM     43  H   UNL     1       0.460   2.238  22.911  0.00  0.00    +0.209 HD
ENDBRANCH  31   6
ENDBRANCH  27  31
ENDBRANCH  22  25
ENDBRANCH  14  22
BRANCH  13  23
ATOM     23  C   UNL     1      -3.769  -2.137  25.572  0.00  0.00    +0.166 C 
BRANCH  23   3
ATOM      3  O   UNL     1      -3.431  -3.474  25.276  0.00  0.00    -0.394 OA
ATOM     41  H   UNL     1      -4.067  -3.794  24.615  0.00  0.00    +0.209 HD
ENDBRANCH  23   3
ENDBRANCH  13  23
TORSDOF 12
ENDMDL
