MODEL 1
REMARK VINA RESULT:       1.9      0.000      0.000
REMARK  Name = 28960679
REMARK  7 active torsions:
REMARK  status: ('A' for Active; 'I' for Inactive)
REMARK    1  A    between atoms: O_6  and  C_30
REMARK    2  A    between atoms: O_6  and  C_31
REMARK    3  A    between atoms: N_7  and  C_16
REMARK    4  A    between atoms: N_8  and  C_11
REMARK    5  A    between atoms: C_12  and  C_15
REMARK    6  A    between atoms: C_17  and  C_19
REMARK    7  A    between atoms: C_18  and  C_20
REMARK                            x       y       z     vdW  Elec       q    Type
REMARK                         _______ _______ _______ _____ _____    ______ ____
ROOT
ATOM      7  N   UNL     1      -4.242   3.600  23.904  0.00  0.00    -0.293 NA
ATOM     11  C   UNL     1      -5.156   2.459  25.719  0.00  0.00    +0.089 C 
ATOM     12  C   UNL     1      -3.309   3.891  25.009  0.00  0.00    +0.147 C 
ATOM     13  C   UNL     1      -3.813   3.023  26.179  0.00  0.00    +0.052 C 
ATOM     14  C   UNL     1      -5.538   3.332  24.534  0.00  0.00    +0.107 C 
ATOM     16  C   UNL     1      -4.325   4.677  22.924  0.00  0.00    +0.105 C 
ENDROOT
BRANCH  12  15
ATOM      4  O   UNL     1      -1.022   4.686  24.682  0.00  0.00    -0.336 OA
ATOM      9  N   UNL     1      -1.283   2.487  24.342  0.00  0.00    -0.190 NA
ATOM     10  N   UNL     1       0.243   4.192  24.334  0.00  0.00    -0.056 NA
ATOM     15  C   UNL     1      -1.860   3.617  24.663  0.00  0.00    +0.245 A 
ATOM     18  C   UNL     1       0.007   2.890  24.149  0.00  0.00    +0.202 A 
BRANCH  18  20
ATOM     20  C   UNL     1       1.038   1.966  23.773  0.00  0.00    +0.023 A 
ATOM     23  C   UNL     1       0.806   0.592  23.855  0.00  0.00    +0.015 A 
ATOM     24  C   UNL     1       2.271   2.440  23.327  0.00  0.00    +0.015 A 
ATOM     28  C   UNL     1       1.808  -0.307  23.491  0.00  0.00    +0.046 A 
ATOM     29  C   UNL     1       3.273   1.540  22.964  0.00  0.00    +0.046 A 
ATOM     30  C   UNL     1       3.042   0.167  23.045  0.00  0.00    +0.130 A 
BRANCH  30   6
ATOM      6  O   UNL     1       4.021  -0.709  22.690  0.00  0.00    -0.406 OA
BRANCH   6  31
ATOM      1  F   UNL     1       5.420  -1.985  23.918  0.00  0.00    -0.133 F 
ATOM      2  F   UNL     1       6.285  -0.387  22.703  0.00  0.00    -0.133 F 
ATOM      3  F   UNL     1       5.128   0.095  24.523  0.00  0.00    -0.133 F 
ATOM     31  C   UNL     1       5.219  -0.729  23.458  0.00  0.00    +0.575 C 
ENDBRANCH   6  31
ENDBRANCH  30   6
ENDBRANCH  18  20
ENDBRANCH  12  15
BRANCH  11   8
ATOM      5  O   UNL     1      -2.783   0.844  25.779  0.00  0.00    -0.270 OA
ATOM      8  N   UNL     1      -5.048   1.071  25.338  0.00  0.00    -0.307 N 
ATOM     17  C   UNL     1      -3.853   0.373  25.402  0.00  0.00    +0.244 C 
ATOM     32  H   UNL     1      -5.867   0.648  24.911  0.00  0.00    +0.149 HD
BRANCH  17  19
ATOM     19  C   UNL     1      -3.903  -1.042  24.947  0.00  0.00    +0.037 A 
ATOM     21  C   UNL     1      -4.573  -1.374  23.770  0.00  0.00    +0.013 A 
ATOM     22  C   UNL     1      -3.277  -2.036  25.700  0.00  0.00    +0.013 A 
ATOM     25  C   UNL     1      -4.618  -2.702  23.345  0.00  0.00    +0.001 A 
ATOM     26  C   UNL     1      -3.323  -3.364  25.274  0.00  0.00    +0.001 A 
ATOM     27  C   UNL     1      -3.993  -3.696  24.097  0.00  0.00    +0.000 A 
ENDBRANCH  17  19
ENDBRANCH  11   8
TORSDOF 6
ENDMDL
MODEL 2
REMARK VINA RESULT:       4.3      2.032      4.955
REMARK  Name = 28960679
REMARK  7 active torsions:
REMARK  status: ('A' for Active; 'I' for Inactive)
REMARK    1  A    between atoms: O_6  and  C_30
REMARK    2  A    between atoms: O_6  and  C_31
REMARK    3  A    between atoms: N_7  and  C_16
REMARK    4  A    between atoms: N_8  and  C_11
REMARK    5  A    between atoms: C_12  and  C_15
REMARK    6  A    between atoms: C_17  and  C_19
REMARK    7  A    between atoms: C_18  and  C_20
REMARK                            x       y       z     vdW  Elec       q    Type
REMARK                         _______ _______ _______ _____ _____    ______ ____
ROOT
ATOM      7  N   UNL     1      -3.768  -0.591  26.086  0.00  0.00    -0.293 NA
ATOM     11  C   UNL     1      -4.906   0.982  24.797  0.00  0.00    +0.089 C 
ATOM     12  C   UNL     1      -3.636  -1.102  24.709  0.00  0.00    +0.147 C 
ATOM     13  C   UNL     1      -4.251   0.001  23.826  0.00  0.00    +0.052 C 
ATOM     14  C   UNL     1      -4.998   0.206  26.102  0.00  0.00    +0.107 C 
ATOM     16  C   UNL     1      -3.791  -1.648  27.091  0.00  0.00    +0.105 C 
ENDROOT
BRANCH  12  15
ATOM      4  O   UNL     1      -1.921  -2.745  24.134  0.00  0.00    -0.336 OA
ATOM      9  N   UNL     1      -1.194  -0.626  24.136  0.00  0.00    -0.190 NA
ATOM     10  N   UNL     1      -0.564  -2.798  23.788  0.00  0.00    -0.056 NA
ATOM     15  C   UNL     1      -2.209  -1.431  24.321  0.00  0.00    +0.245 A 
ATOM     18  C   UNL     1      -0.206  -1.511  23.811  0.00  0.00    +0.202 A 
BRANCH  18  20
ATOM     20  C   UNL     1       1.127  -1.075  23.513  0.00  0.00    +0.023 A 
ATOM     23  C   UNL     1       1.331   0.044  22.704  0.00  0.00    +0.015 A 
ATOM     24  C   UNL     1       2.220  -1.771  24.030  0.00  0.00    +0.015 A 
ATOM     28  C   UNL     1       2.628   0.467  22.414  0.00  0.00    +0.046 A 
ATOM     29  C   UNL     1       3.517  -1.348  23.737  0.00  0.00    +0.046 A 
ATOM     30  C   UNL     1       3.721  -0.229  22.930  0.00  0.00    +0.130 A 
BRANCH  30   6
ATOM      6  O   UNL     1       4.987   0.182  22.646  0.00  0.00    -0.406 OA
BRANCH   6  31
ATOM      1  F   UNL     1       5.901   1.317  24.369  0.00  0.00    -0.133 F 
ATOM      2  F   UNL     1       5.699  -0.850  24.558  0.00  0.00    -0.133 F 
ATOM      3  F   UNL     1       7.202   0.016  23.190  0.00  0.00    -0.133 F 
ATOM     31  C   UNL     1       5.955   0.150  23.688  0.00  0.00    +0.575 C 
ENDBRANCH   6  31
ENDBRANCH  30   6
ENDBRANCH  18  20
ENDBRANCH  12  15
BRANCH  11   8
ATOM      5  O   UNL     1      -2.718   1.825  23.140  0.00  0.00    -0.270 OA
ATOM      8  N   UNL     1      -4.120   2.182  24.953  0.00  0.00    -0.307 N 
ATOM     17  C   UNL     1      -3.078   2.505  24.098  0.00  0.00    +0.244 C 
ATOM     32  H   UNL     1      -4.289   2.735  25.787  0.00  0.00    +0.149 HD
BRANCH  17  19
ATOM     19  C   UNL     1      -2.349   3.762  24.410  0.00  0.00    +0.037 A 
ATOM     21  C   UNL     1      -3.048   4.885  24.851  0.00  0.00    +0.013 A 
ATOM     22  C   UNL     1      -0.962   3.817  24.263  0.00  0.00    +0.013 A 
ATOM     25  C   UNL     1      -2.362   6.063  25.144  0.00  0.00    +0.001 A 
ATOM     26  C   UNL     1      -0.276   4.995  24.555  0.00  0.00    +0.001 A 
ATOM     27  C   UNL     1      -0.976   6.118  24.996  0.00  0.00    +0.000 A 
ENDBRANCH  17  19
ENDBRANCH  11   8
TORSDOF 6
ENDMDL
