MODEL 1
REMARK VINA RESULT:      -3.7      0.000      0.000
REMARK  Name = 26745472
REMARK  9 active torsions:
REMARK  status: ('A' for Active; 'I' for Inactive)
REMARK    1  A    between atoms: S_2  and  N_7
REMARK    2  A    between atoms: S_2  and  C_15
REMARK    3  A    between atoms: O_5  and  C_16
REMARK    4  A    between atoms: O_5  and  C_24
REMARK    5  A    between atoms: N_8  and  C_17
REMARK    6  A    between atoms: C_10  and  C_16
REMARK    7  A    between atoms: C_15  and  C_19
REMARK    8  A    between atoms: C_17  and  C_20
REMARK    9  A    between atoms: C_19  and  C_21
REMARK                            x       y       z     vdW  Elec       q    Type
REMARK                         _______ _______ _______ _____ _____    ______ ____
ROOT
ATOM      7  N   UNL     1      14.610  -7.845  29.581  0.00  0.00    -0.161 NA
ATOM      8  N   UNL     1      16.931  -6.368  27.046  0.00  0.00    -0.328 N 
ATOM      9  N   UNL     1      16.619  -8.299  25.968  0.00  0.00    -0.240 NA
ATOM     10  C   UNL     1      14.936  -9.274  29.229  0.00  0.00    +0.194 C 
ATOM     11  C   UNL     1      15.642  -6.811  29.202  0.00  0.00    +0.165 C 
ATOM     12  C   UNL     1      15.194  -9.450  27.717  0.00  0.00    +0.089 C 
ATOM     13  C   UNL     1      16.162  -7.143  27.861  0.00  0.00    +0.057 A 
ATOM     14  C   UNL     1      15.988  -8.323  27.181  0.00  0.00    +0.066 A 
ATOM     18  C   UNL     1      17.179  -7.107  25.917  0.00  0.00    +0.200 A 
ENDROOT
BRANCH   7   2
ATOM      2  S   UNL     1      13.830  -7.584  31.084  0.00  0.00    +0.033 S 
ATOM      3  O   UNL     1      14.837  -7.317  32.088  0.00  0.00    -0.158 OA
ATOM      4  O   UNL     1      12.823  -8.605  31.268  0.00  0.00    -0.158 OA
BRANCH   2  15
ATOM     15  C   UNL     1      13.006  -6.058  30.713  0.00  0.00    +0.185 C 
BRANCH  15  19
ATOM     19  C   UNL     1      12.942  -5.153  31.932  0.00  0.00    +0.021 C 
ATOM     21  C   UNL     1      11.817  -5.559  32.869  0.00  0.00    +0.005 C 
ENDBRANCH  15  19
ENDBRANCH   2  15
ENDBRANCH   7   2
BRANCH  10  16
ATOM      6  O   UNL     1      17.269  -9.502  29.764  0.00  0.00    -0.249 OA
ATOM     16  C   UNL     1      16.101  -9.721  30.053  0.00  0.00    +0.326 C 
BRANCH  16   5
ATOM      5  O   UNL     1      15.652 -10.396  31.150  0.00  0.00    -0.467 OA
ATOM     24  C   UNL     1      16.640 -10.679  32.145  0.00  0.00    +0.280 C 
ENDBRANCH  16   5
ENDBRANCH  10  16
BRANCH   8  17
ATOM     17  C   UNL     1      17.405  -5.031  27.306  0.00  0.00    +0.158 C 
BRANCH  17  20
ATOM      1 CL   UNL     1      16.917  -1.361  22.561  0.00  0.00    -0.084 Cl
ATOM     20  C   UNL     1      17.282  -4.111  26.117  0.00  0.00    -0.028 A 
ATOM     22  C   UNL     1      17.405  -2.732  26.285  0.00  0.00    +0.007 A 
ATOM     23  C   UNL     1      17.045  -4.640  24.848  0.00  0.00    +0.007 A 
ATOM     25  C   UNL     1      17.291  -1.882  25.186  0.00  0.00    +0.020 A 
ATOM     26  C   UNL     1      16.932  -3.790  23.748  0.00  0.00    +0.020 A 
ATOM     27  C   UNL     1      17.054  -2.411  23.917  0.00  0.00    +0.041 A 
ENDBRANCH  17  20
ENDBRANCH   8  17
TORSDOF 7
ENDMDL
MODEL 2
REMARK VINA RESULT:      -3.1     18.411     20.510
REMARK  Name = 26745472
REMARK  9 active torsions:
REMARK  status: ('A' for Active; 'I' for Inactive)
REMARK    1  A    between atoms: S_2  and  N_7
REMARK    2  A    between atoms: S_2  and  C_15
REMARK    3  A    between atoms: O_5  and  C_16
REMARK    4  A    between atoms: O_5  and  C_24
REMARK    5  A    between atoms: N_8  and  C_17
REMARK    6  A    between atoms: C_10  and  C_16
REMARK    7  A    between atoms: C_15  and  C_19
REMARK    8  A    between atoms: C_17  and  C_20
REMARK    9  A    between atoms: C_19  and  C_21
REMARK                            x       y       z     vdW  Elec       q    Type
REMARK                         _______ _______ _______ _____ _____    ______ ____
ROOT
ATOM      7  N   UNL     1      -0.823   0.938  25.119  0.00  0.00    -0.161 NA
ATOM      8  N   UNL     1      -3.707  -1.299  24.300  0.00  0.00    -0.328 N 
ATOM      9  N   UNL     1      -2.306  -2.941  24.879  0.00  0.00    -0.240 NA
ATOM     10  C   UNL     1       0.226  -0.111  24.854  0.00  0.00    +0.194 C 
ATOM     11  C   UNL     1      -2.163   0.724  24.459  0.00  0.00    +0.165 C 
ATOM     12  C   UNL     1      -0.248  -1.519  25.275  0.00  0.00    +0.089 C 
ATOM     13  C   UNL     1      -2.507  -0.708  24.556  0.00  0.00    +0.057 A 
ATOM     14  C   UNL     1      -1.664  -1.734  24.905  0.00  0.00    +0.066 A 
ATOM     18  C   UNL     1      -3.537  -2.645  24.510  0.00  0.00    +0.200 A 
ENDROOT
BRANCH   7   2
ATOM      2  S   UNL     1      -0.285   2.563  25.175  0.00  0.00    +0.033 S 
ATOM      3  O   UNL     1      -0.251   3.087  23.828  0.00  0.00    -0.158 OA
ATOM      4  O   UNL     1       0.862   2.643  26.052  0.00  0.00    -0.158 OA
BRANCH   2  15
ATOM     15  C   UNL     1      -1.670   3.290  26.013  0.00  0.00    +0.185 C 
BRANCH  15  19
ATOM     19  C   UNL     1      -2.120   4.570  25.330  0.00  0.00    +0.021 C 
ATOM     21  C   UNL     1      -0.939   5.464  24.989  0.00  0.00    +0.005 C 
ENDBRANCH  15  19
ENDBRANCH   2  15
ENDBRANCH   7   2
BRANCH  10  16
ATOM      6  O   UNL     1       0.021  -0.657  22.521  0.00  0.00    -0.249 OA
ATOM     16  C   UNL     1       0.610  -0.057  23.410  0.00  0.00    +0.326 C 
BRANCH  16   5
ATOM      5  O   UNL     1       1.699   0.751  23.257  0.00  0.00    -0.467 OA
ATOM     24  C   UNL     1       2.806   0.166  22.565  0.00  0.00    +0.280 C 
ENDBRANCH  16   5
ENDBRANCH  10  16
BRANCH   8  17
ATOM     17  C   UNL     1      -4.928  -0.654  23.883  0.00  0.00    +0.158 C 
BRANCH  17  20
ATOM      1 CL   UNL     1      -5.505   4.953  25.994  0.00  0.00    -0.084 Cl
ATOM     20  C   UNL     1      -5.071   0.751  24.413  0.00  0.00    -0.028 A 
ATOM     22  C   UNL     1      -4.589   1.830  23.671  0.00  0.00    +0.007 A 
ATOM     23  C   UNL     1      -5.688   0.973  25.644  0.00  0.00    +0.007 A 
ATOM     25  C   UNL     1      -4.722   3.128  24.161  0.00  0.00    +0.020 A 
ATOM     26  C   UNL     1      -5.822   2.272  26.134  0.00  0.00    +0.020 A 
ATOM     27  C   UNL     1      -5.338   3.350  25.393  0.00  0.00    +0.041 A 
ENDBRANCH  17  20
ENDBRANCH   8  17
TORSDOF 7
ENDMDL
MODEL 3
REMARK VINA RESULT:      -2.7     17.387     19.247
REMARK  Name = 26745472
REMARK  9 active torsions:
REMARK  status: ('A' for Active; 'I' for Inactive)
REMARK    1  A    between atoms: S_2  and  N_7
REMARK    2  A    between atoms: S_2  and  C_15
REMARK    3  A    between atoms: O_5  and  C_16
REMARK    4  A    between atoms: O_5  and  C_24
REMARK    5  A    between atoms: N_8  and  C_17
REMARK    6  A    between atoms: C_10  and  C_16
REMARK    7  A    between atoms: C_15  and  C_19
REMARK    8  A    between atoms: C_17  and  C_20
REMARK    9  A    between atoms: C_19  and  C_21
REMARK                            x       y       z     vdW  Elec       q    Type
REMARK                         _______ _______ _______ _____ _____    ______ ____
ROOT
ATOM      7  N   UNL     1      -2.927   0.847  25.004  0.00  0.00    -0.161 NA
ATOM      8  N   UNL     1       0.568   1.267  23.740  0.00  0.00    -0.328 N 
ATOM      9  N   UNL     1       0.513   3.182  24.890  0.00  0.00    -0.240 NA
ATOM     10  C   UNL     1      -3.175   2.324  25.174  0.00  0.00    +0.194 C 
ATOM     11  C   UNL     1      -1.832   0.460  24.040  0.00  0.00    +0.165 C 
ATOM     12  C   UNL     1      -1.905   3.071  25.636  0.00  0.00    +0.089 C 
ATOM     13  C   UNL     1      -0.697   1.384  24.230  0.00  0.00    +0.057 A 
ATOM     14  C   UNL     1      -0.708   2.567  24.928  0.00  0.00    +0.066 A 
ATOM     18  C   UNL     1       1.260   2.374  24.165  0.00  0.00    +0.200 A 
ENDROOT
BRANCH   7   2
ATOM      2  S   UNL     1      -4.309  -0.166  24.986  0.00  0.00    +0.033 S 
ATOM      3  O   UNL     1      -4.561  -0.582  23.624  0.00  0.00    -0.158 OA
ATOM      4  O   UNL     1      -5.339   0.440  25.801  0.00  0.00    -0.158 OA
BRANCH   2  15
ATOM     15  C   UNL     1      -3.652  -1.555  25.873  0.00  0.00    +0.185 C 
BRANCH  15  19
ATOM     19  C   UNL     1      -3.431  -2.744  24.953  0.00  0.00    +0.021 C 
ATOM     21  C   UNL     1      -1.992  -2.813  24.470  0.00  0.00    +0.005 C 
ENDBRANCH  15  19
ENDBRANCH   2  15
ENDBRANCH   7   2
BRANCH  10  16
ATOM      6  O   UNL     1      -3.411   2.458  22.785  0.00  0.00    -0.249 OA
ATOM     16  C   UNL     1      -3.718   2.875  23.894  0.00  0.00    +0.326 C 
BRANCH  16   5
ATOM      5  O   UNL     1      -4.585   3.891  24.166  0.00  0.00    -0.467 OA
ATOM     24  C   UNL     1      -5.305   3.772  25.397  0.00  0.00    +0.280 C 
ENDBRANCH  16   5
ENDBRANCH  10  16
BRANCH   8  17
ATOM     17  C   UNL     1       1.094   0.199  22.926  0.00  0.00    +0.158 C 
BRANCH  17  20
ATOM      1 CL   UNL     1       7.052  -0.477  23.444  0.00  0.00    -0.084 Cl
ATOM     20  C   UNL     1       2.587   0.029  23.055  0.00  0.00    -0.028 A 
ATOM     22  C   UNL     1       3.444   1.048  22.640  0.00  0.00    +0.007 A 
ATOM     23  C   UNL     1       3.112  -1.148  23.590  0.00  0.00    +0.007 A 
ATOM     25  C   UNL     1       4.824   0.891  22.759  0.00  0.00    +0.020 A 
ATOM     26  C   UNL     1       4.493  -1.305  23.710  0.00  0.00    +0.020 A 
ATOM     27  C   UNL     1       5.349  -0.286  23.294  0.00  0.00    +0.041 A 
ENDBRANCH  17  20
ENDBRANCH   8  17
TORSDOF 7
ENDMDL
MODEL 4
REMARK VINA RESULT:      -2.5     17.946     20.347
REMARK  Name = 26745472
REMARK  9 active torsions:
REMARK  status: ('A' for Active; 'I' for Inactive)
REMARK    1  A    between atoms: S_2  and  N_7
REMARK    2  A    between atoms: S_2  and  C_15
REMARK    3  A    between atoms: O_5  and  C_16
REMARK    4  A    between atoms: O_5  and  C_24
REMARK    5  A    between atoms: N_8  and  C_17
REMARK    6  A    between atoms: C_10  and  C_16
REMARK    7  A    between atoms: C_15  and  C_19
REMARK    8  A    between atoms: C_17  and  C_20
REMARK    9  A    between atoms: C_19  and  C_21
REMARK                            x       y       z     vdW  Elec       q    Type
REMARK                         _______ _______ _______ _____ _____    ______ ____
ROOT
ATOM      7  N   UNL     1      -0.558   1.672  23.976  0.00  0.00    -0.161 NA
ATOM      8  N   UNL     1      -4.051   2.753  24.766  0.00  0.00    -0.328 N 
ATOM      9  N   UNL     1      -3.099   4.725  25.211  0.00  0.00    -0.240 NA
ATOM     10  C   UNL     1       0.094   2.696  24.869  0.00  0.00    +0.194 C 
ATOM     11  C   UNL     1      -1.992   1.325  24.293  0.00  0.00    +0.165 C 
ATOM     12  C   UNL     1      -0.686   4.029  24.879  0.00  0.00    +0.089 C 
ATOM     13  C   UNL     1      -2.707   2.569  24.636  0.00  0.00    +0.057 A 
ATOM     14  C   UNL     1      -2.145   3.790  24.918  0.00  0.00    +0.066 A 
ATOM     18  C   UNL     1      -4.238   4.068  25.112  0.00  0.00    +0.200 A 
ENDROOT
BRANCH   7   2
ATOM      2  S   UNL     1       0.420   0.357  23.476  0.00  0.00    +0.033 S 
ATOM      3  O   UNL     1       0.137   0.071  22.087  0.00  0.00    -0.158 OA
ATOM      4  O   UNL     1       0.369  -0.671  24.491  0.00  0.00    -0.158 OA
BRANCH   2  15
ATOM     15  C   UNL     1       2.010   1.138  23.564  0.00  0.00    +0.185 C 
BRANCH  15  19
ATOM     19  C   UNL     1       2.997   0.494  22.604  0.00  0.00    +0.021 C 
ATOM     21  C   UNL     1       4.420   0.580  23.130  0.00  0.00    +0.005 C 
ENDBRANCH  15  19
ENDBRANCH   2  15
ENDBRANCH   7   2
BRANCH  10  16
ATOM      6  O   UNL     1      -0.387   1.150  26.646  0.00  0.00    -0.249 OA
ATOM     16  C   UNL     1       0.239   2.120  26.241  0.00  0.00    +0.326 C 
BRANCH  16   5
ATOM      5  O   UNL     1       1.160   2.839  26.943  0.00  0.00    -0.467 OA
ATOM     24  C   UNL     1       1.221   2.558  28.344  0.00  0.00    +0.280 C 
ENDBRANCH  16   5
ENDBRANCH  10  16
BRANCH   8  17
ATOM     17  C   UNL     1      -5.089   1.768  24.585  0.00  0.00    +0.158 C 
BRANCH  17  20
ATOM      1 CL   UNL     1      -3.112  -3.897  25.064  0.00  0.00    -0.084 Cl
ATOM     20  C   UNL     1      -4.593   0.348  24.705  0.00  0.00    -0.028 A 
ATOM     22  C   UNL     1      -4.084  -0.113  25.919  0.00  0.00    +0.007 A 
ATOM     23  C   UNL     1      -4.643  -0.504  23.601  0.00  0.00    +0.007 A 
ATOM     25  C   UNL     1      -3.625  -1.425  26.029  0.00  0.00    +0.020 A 
ATOM     26  C   UNL     1      -4.184  -1.817  23.711  0.00  0.00    +0.020 A 
ATOM     27  C   UNL     1      -3.675  -2.277  24.925  0.00  0.00    +0.041 A 
ENDBRANCH  17  20
ENDBRANCH   8  17
TORSDOF 7
ENDMDL
MODEL 5
REMARK VINA RESULT:      -1.5     18.191     20.345
REMARK  Name = 26745472
REMARK  9 active torsions:
REMARK  status: ('A' for Active; 'I' for Inactive)
REMARK    1  A    between atoms: S_2  and  N_7
REMARK    2  A    between atoms: S_2  and  C_15
REMARK    3  A    between atoms: O_5  and  C_16
REMARK    4  A    between atoms: O_5  and  C_24
REMARK    5  A    between atoms: N_8  and  C_17
REMARK    6  A    between atoms: C_10  and  C_16
REMARK    7  A    between atoms: C_15  and  C_19
REMARK    8  A    between atoms: C_17  and  C_20
REMARK    9  A    between atoms: C_19  and  C_21
REMARK                            x       y       z     vdW  Elec       q    Type
REMARK                         _______ _______ _______ _____ _____    ______ ____
ROOT
ATOM      7  N   UNL     1      -1.018   1.173  25.424  0.00  0.00    -0.161 NA
ATOM      8  N   UNL     1      -3.733  -1.205  24.441  0.00  0.00    -0.328 N 
ATOM      9  N   UNL     1      -2.150  -2.761  24.690  0.00  0.00    -0.240 NA
ATOM     10  C   UNL     1       0.103   0.286  24.947  0.00  0.00    +0.194 C 
ATOM     11  C   UNL     1      -2.375   0.922  24.815  0.00  0.00    +0.165 C 
ATOM     12  C   UNL     1      -0.209  -1.209  25.180  0.00  0.00    +0.089 C 
ATOM     13  C   UNL     1      -2.578  -0.537  24.716  0.00  0.00    +0.057 A 
ATOM     14  C   UNL     1      -1.621  -1.511  24.860  0.00  0.00    +0.066 A 
ATOM     18  C   UNL     1      -3.425  -2.542  24.438  0.00  0.00    +0.200 A 
ENDROOT
BRANCH   7   2
ATOM      2  S   UNL     1      -0.631   2.820  25.693  0.00  0.00    +0.033 S 
ATOM      3  O   UNL     1      -1.681   3.421  26.486  0.00  0.00    -0.158 OA
ATOM      4  O   UNL     1      -0.191   3.403  24.444  0.00  0.00    -0.158 OA
BRANCH   2  15
ATOM     15  C   UNL     1       0.791   2.611  26.732  0.00  0.00    +0.185 C 
BRANCH  15  19
ATOM     19  C   UNL     1       0.389   2.341  28.173  0.00  0.00    +0.021 C 
ATOM     21  C   UNL     1       1.569   2.494  29.118  0.00  0.00    +0.005 C 
ENDBRANCH  15  19
ENDBRANCH   2  15
ENDBRANCH   7   2
BRANCH  10  16
ATOM      6  O   UNL     1      -0.464   0.525  22.623  0.00  0.00    -0.249 OA
ATOM     16  C   UNL     1       0.379   0.585  23.509  0.00  0.00    +0.326 C 
BRANCH  16   5
ATOM      5  O   UNL     1       1.690   0.927  23.357  0.00  0.00    -0.467 OA
ATOM     24  C   UNL     1       2.456   0.062  22.513  0.00  0.00    +0.280 C 
ENDBRANCH  16   5
ENDBRANCH  10  16
BRANCH   8  17
ATOM     17  C   UNL     1      -5.034  -0.633  24.193  0.00  0.00    +0.158 C 
BRANCH  17  20
ATOM      1 CL   UNL     1      -5.455   5.143  25.830  0.00  0.00    -0.084 Cl
ATOM     20  C   UNL     1      -5.139   0.814  24.604  0.00  0.00    -0.028 A 
ATOM     22  C   UNL     1      -4.566   1.808  23.811  0.00  0.00    +0.007 A 
ATOM     23  C   UNL     1      -5.809   1.160  25.778  0.00  0.00    +0.007 A 
ATOM     25  C   UNL     1      -4.663   3.146  24.191  0.00  0.00    +0.020 A 
ATOM     26  C   UNL     1      -5.907   2.498  26.158  0.00  0.00    +0.020 A 
ATOM     27  C   UNL     1      -5.334   3.492  25.365  0.00  0.00    +0.041 A 
ENDBRANCH  17  20
ENDBRANCH   8  17
TORSDOF 7
ENDMDL
MODEL 6
REMARK VINA RESULT:      -1.1     18.201     20.612
REMARK  Name = 26745472
REMARK  9 active torsions:
REMARK  status: ('A' for Active; 'I' for Inactive)
REMARK    1  A    between atoms: S_2  and  N_7
REMARK    2  A    between atoms: S_2  and  C_15
REMARK    3  A    between atoms: O_5  and  C_16
REMARK    4  A    between atoms: O_5  and  C_24
REMARK    5  A    between atoms: N_8  and  C_17
REMARK    6  A    between atoms: C_10  and  C_16
REMARK    7  A    between atoms: C_15  and  C_19
REMARK    8  A    between atoms: C_17  and  C_20
REMARK    9  A    between atoms: C_19  and  C_21
REMARK                            x       y       z     vdW  Elec       q    Type
REMARK                         _______ _______ _______ _____ _____    ______ ____
ROOT
ATOM      7  N   UNL     1      -0.800   2.148  24.213  0.00  0.00    -0.161 NA
ATOM      8  N   UNL     1      -4.353   2.975  25.043  0.00  0.00    -0.328 N 
ATOM      9  N   UNL     1      -3.530   4.994  25.535  0.00  0.00    -0.240 NA
ATOM     10  C   UNL     1      -0.213   3.190  25.130  0.00  0.00    +0.194 C 
ATOM     11  C   UNL     1      -2.206   1.699  24.526  0.00  0.00    +0.165 C 
ATOM     12  C   UNL     1      -1.079   4.468  25.177  0.00  0.00    +0.089 C 
ATOM     13  C   UNL     1      -3.000   2.884  24.903  0.00  0.00    +0.057 A 
ATOM     14  C   UNL     1      -2.518   4.132  25.214  0.00  0.00    +0.066 A 
ATOM     18  C   UNL     1      -4.624   4.266  25.423  0.00  0.00    +0.200 A 
ENDROOT
BRANCH   7   2
ATOM      2  S   UNL     1       0.260   0.914  23.676  0.00  0.00    +0.033 S 
ATOM      3  O   UNL     1       1.623   1.356  23.872  0.00  0.00    -0.158 OA
ATOM      4  O   UNL     1      -0.206   0.426  22.397  0.00  0.00    -0.158 OA
BRANCH   2  15
ATOM     15  C   UNL     1      -0.100  -0.320  24.899  0.00  0.00    +0.185 C 
BRANCH  15  19
ATOM     19  C   UNL     1      -0.027  -1.719  24.311  0.00  0.00    +0.021 C 
ATOM     21  C   UNL     1       0.316  -2.751  25.373  0.00  0.00    +0.005 C 
ENDBRANCH  15  19
ENDBRANCH   2  15
ENDBRANCH   7   2
BRANCH  10  16
ATOM      6  O   UNL     1      -0.846   1.873  27.039  0.00  0.00    -0.249 OA
ATOM     16  C   UNL     1      -0.023   2.590  26.486  0.00  0.00    +0.326 C 
BRANCH  16   5
ATOM      5  O   UNL     1       1.188   2.968  26.987  0.00  0.00    -0.467 OA
ATOM     24  C   UNL     1       1.430   2.604  28.349  0.00  0.00    +0.280 C 
ENDBRANCH  16   5
ENDBRANCH  10  16
BRANCH   8  17
ATOM     17  C   UNL     1      -5.324   1.929  24.840  0.00  0.00    +0.158 C 
BRANCH  17  20
ATOM      1 CL   UNL     1      -2.929  -3.593  24.888  0.00  0.00    -0.084 Cl
ATOM     20  C   UNL     1      -4.723   0.545  24.851  0.00  0.00    -0.028 A 
ATOM     22  C   UNL     1      -4.217   0.014  26.038  0.00  0.00    +0.007 A 
ATOM     23  C   UNL     1      -4.673  -0.204  23.675  0.00  0.00    +0.007 A 
ATOM     25  C   UNL     1      -3.662  -1.265  26.048  0.00  0.00    +0.020 A 
ATOM     26  C   UNL     1      -4.118  -1.483  23.686  0.00  0.00    +0.020 A 
ATOM     27  C   UNL     1      -3.612  -2.014  24.872  0.00  0.00    +0.041 A 
ENDBRANCH  17  20
ENDBRANCH   8  17
TORSDOF 7
ENDMDL
MODEL 7
REMARK VINA RESULT:      -0.7      3.148      4.013
REMARK  Name = 26745472
REMARK  9 active torsions:
REMARK  status: ('A' for Active; 'I' for Inactive)
REMARK    1  A    between atoms: S_2  and  N_7
REMARK    2  A    between atoms: S_2  and  C_15
REMARK    3  A    between atoms: O_5  and  C_16
REMARK    4  A    between atoms: O_5  and  C_24
REMARK    5  A    between atoms: N_8  and  C_17
REMARK    6  A    between atoms: C_10  and  C_16
REMARK    7  A    between atoms: C_15  and  C_19
REMARK    8  A    between atoms: C_17  and  C_20
REMARK    9  A    between atoms: C_19  and  C_21
REMARK                            x       y       z     vdW  Elec       q    Type
REMARK                         _______ _______ _______ _____ _____    ______ ____
ROOT
ATOM      7  N   UNL     1      13.580  -7.165  30.355  0.00  0.00    -0.161 NA
ATOM      8  N   UNL     1      16.594  -6.820  28.166  0.00  0.00    -0.328 N 
ATOM      9  N   UNL     1      16.433  -9.041  27.980  0.00  0.00    -0.240 NA
ATOM     10  C   UNL     1      13.878  -8.588  30.753  0.00  0.00    +0.194 C 
ATOM     11  C   UNL     1      14.751  -6.349  29.864  0.00  0.00    +0.165 C 
ATOM     12  C   UNL     1      14.512  -9.388  29.594  0.00  0.00    +0.089 C 
ATOM     13  C   UNL     1      15.580  -7.203  28.992  0.00  0.00    +0.057 A 
ATOM     14  C   UNL     1      15.504  -8.568  28.865  0.00  0.00    +0.066 A 
ATOM     18  C   UNL     1      17.075  -7.963  27.577  0.00  0.00    +0.200 A 
ENDROOT
BRANCH   7   2
ATOM      2  S   UNL     1      12.453  -6.316  31.327  0.00  0.00    +0.033 S 
ATOM      3  O   UNL     1      11.376  -5.844  30.484  0.00  0.00    -0.158 OA
ATOM      4  O   UNL     1      13.176  -5.426  32.207  0.00  0.00    -0.158 OA
BRANCH   2  15
ATOM     15  C   UNL     1      11.839  -7.670  32.295  0.00  0.00    +0.185 C 
BRANCH  15  19
ATOM     19  C   UNL     1      10.515  -8.183  31.754  0.00  0.00    +0.021 C 
ATOM     21  C   UNL     1       9.417  -8.102  32.801  0.00  0.00    +0.005 C 
ENDBRANCH  15  19
ENDBRANCH   2  15
ENDBRANCH   7   2
BRANCH  10  16
ATOM      6  O   UNL     1      14.674  -9.406  32.869  0.00  0.00    -0.249 OA
ATOM     16  C   UNL     1      14.745  -8.578  31.970  0.00  0.00    +0.326 C 
BRANCH  16   5
ATOM      5  O   UNL     1      15.604  -7.520  31.910  0.00  0.00    -0.467 OA
ATOM     24  C   UNL     1      16.859  -7.709  32.571  0.00  0.00    +0.280 C 
ENDBRANCH  16   5
ENDBRANCH  10  16
BRANCH   8  17
ATOM     17  C   UNL     1      17.083  -5.482  27.946  0.00  0.00    +0.158 C 
BRANCH  17  20
ATOM      1 CL   UNL     1      16.883  -2.031  32.873  0.00  0.00    -0.084 Cl
ATOM     20  C   UNL     1      17.034  -4.617  29.181  0.00  0.00    -0.028 A 
ATOM     22  C   UNL     1      16.617  -3.289  29.087  0.00  0.00    +0.007 A 
ATOM     23  C   UNL     1      17.405  -5.145  30.418  0.00  0.00    +0.007 A 
ATOM     25  C   UNL     1      16.572  -2.490  30.228  0.00  0.00    +0.020 A 
ATOM     26  C   UNL     1      17.359  -4.345  31.560  0.00  0.00    +0.020 A 
ATOM     27  C   UNL     1      16.943  -3.018  31.465  0.00  0.00    +0.041 A 
ENDBRANCH  17  20
ENDBRANCH   8  17
TORSDOF 7
ENDMDL
MODEL 8
REMARK VINA RESULT:      -0.4     17.237     18.977
REMARK  Name = 26745472
REMARK  9 active torsions:
REMARK  status: ('A' for Active; 'I' for Inactive)
REMARK    1  A    between atoms: S_2  and  N_7
REMARK    2  A    between atoms: S_2  and  C_15
REMARK    3  A    between atoms: O_5  and  C_16
REMARK    4  A    between atoms: O_5  and  C_24
REMARK    5  A    between atoms: N_8  and  C_17
REMARK    6  A    between atoms: C_10  and  C_16
REMARK    7  A    between atoms: C_15  and  C_19
REMARK    8  A    between atoms: C_17  and  C_20
REMARK    9  A    between atoms: C_19  and  C_21
REMARK                            x       y       z     vdW  Elec       q    Type
REMARK                         _______ _______ _______ _____ _____    ______ ____
ROOT
ATOM      7  N   UNL     1      -2.614   1.931  24.095  0.00  0.00    -0.161 NA
ATOM      8  N   UNL     1       0.215  -0.461  23.575  0.00  0.00    -0.328 N 
ATOM      9  N   UNL     1      -0.628  -1.495  25.368  0.00  0.00    -0.240 NA
ATOM     10  C   UNL     1      -2.740   1.655  25.571  0.00  0.00    +0.194 C 
ATOM     11  C   UNL     1      -1.284   1.599  23.464  0.00  0.00    +0.165 C 
ATOM     12  C   UNL     1      -2.455   0.175  25.906  0.00  0.00    +0.089 C 
ATOM     13  C   UNL     1      -0.812   0.316  24.020  0.00  0.00    +0.057 A 
ATOM     14  C   UNL     1      -1.310  -0.335  25.121  0.00  0.00    +0.066 A 
ATOM     18  C   UNL     1       0.286  -1.542  24.419  0.00  0.00    +0.200 A 
ENDROOT
BRANCH   7   2
ATOM      2  S   UNL     1      -3.363   3.358  23.514  0.00  0.00    +0.033 S 
ATOM      3  O   UNL     1      -3.852   3.113  22.175  0.00  0.00    -0.158 OA
ATOM      4  O   UNL     1      -2.512   4.486  23.819  0.00  0.00    -0.158 OA
BRANCH   2  15
ATOM     15  C   UNL     1      -4.758   3.410  24.608  0.00  0.00    +0.185 C 
BRANCH  15  19
ATOM     19  C   UNL     1      -5.509   2.088  24.611  0.00  0.00    +0.021 C 
ATOM     21  C   UNL     1      -6.235   1.864  25.927  0.00  0.00    +0.005 C 
ENDBRANCH  15  19
ENDBRANCH   2  15
ENDBRANCH   7   2
BRANCH  10  16
ATOM      6  O   UNL     1      -2.128   3.733  26.615  0.00  0.00    -0.249 OA
ATOM     16  C   UNL     1      -1.834   2.583  26.315  0.00  0.00    +0.326 C 
BRANCH  16   5
ATOM      5  O   UNL     1      -0.660   1.949  26.594  0.00  0.00    -0.467 OA
ATOM     24  C   UNL     1       0.517   2.753  26.470  0.00  0.00    +0.280 C 
ENDBRANCH  16   5
ENDBRANCH  10  16
BRANCH   8  17
ATOM     17  C   UNL     1       1.074  -0.210  22.444  0.00  0.00    +0.158 C 
BRANCH  17  20
ATOM      1 CL   UNL     1       6.918  -0.060  23.881  0.00  0.00    -0.084 Cl
ATOM     20  C   UNL     1       2.539  -0.173  22.804  0.00  0.00    -0.028 A 
ATOM     22  C   UNL     1       3.289   0.977  22.558  0.00  0.00    +0.007 A 
ATOM     23  C   UNL     1       3.144  -1.289  23.382  0.00  0.00    +0.007 A 
ATOM     25  C   UNL     1       4.643   1.011  22.890  0.00  0.00    +0.020 A 
ATOM     26  C   UNL     1       4.498  -1.255  23.715  0.00  0.00    +0.020 A 
ATOM     27  C   UNL     1       5.248  -0.105  23.469  0.00  0.00    +0.041 A 
ENDBRANCH  17  20
ENDBRANCH   8  17
TORSDOF 7
ENDMDL
MODEL 9
REMARK VINA RESULT:      -0.3     18.462     20.300
REMARK  Name = 26745472
REMARK  9 active torsions:
REMARK  status: ('A' for Active; 'I' for Inactive)
REMARK    1  A    between atoms: S_2  and  N_7
REMARK    2  A    between atoms: S_2  and  C_15
REMARK    3  A    between atoms: O_5  and  C_16
REMARK    4  A    between atoms: O_5  and  C_24
REMARK    5  A    between atoms: N_8  and  C_17
REMARK    6  A    between atoms: C_10  and  C_16
REMARK    7  A    between atoms: C_15  and  C_19
REMARK    8  A    between atoms: C_17  and  C_20
REMARK    9  A    between atoms: C_19  and  C_21
REMARK                            x       y       z     vdW  Elec       q    Type
REMARK                         _______ _______ _______ _____ _____    ______ ____
ROOT
ATOM      7  N   UNL     1      -2.500  -0.125  24.203  0.00  0.00    -0.161 NA
ATOM      8  N   UNL     1       0.252   2.392  24.488  0.00  0.00    -0.328 N 
ATOM      9  N   UNL     1       1.403   0.939  23.240  0.00  0.00    -0.240 NA
ATOM     10  C   UNL     1      -1.576  -1.295  23.984  0.00  0.00    +0.194 C 
ATOM     11  C   UNL     1      -1.900   1.083  24.881  0.00  0.00    +0.165 C 
ATOM     12  C   UNL     1      -0.336  -0.900  23.153  0.00  0.00    +0.089 C 
ATOM     13  C   UNL     1      -0.548   1.301  24.332  0.00  0.00    +0.057 A 
ATOM     14  C   UNL     1       0.180   0.423  23.567  0.00  0.00    +0.066 A 
ATOM     18  C   UNL     1       1.417   2.127  23.811  0.00  0.00    +0.200 A 
ENDROOT
BRANCH   7   2
ATOM      2  S   UNL     1      -4.110  -0.494  24.657  0.00  0.00    +0.033 S 
ATOM      3  O   UNL     1      -4.117  -0.921  26.039  0.00  0.00    -0.158 OA
ATOM      4  O   UNL     1      -4.717  -1.289  23.613  0.00  0.00    -0.158 OA
BRANCH   2  15
ATOM     15  C   UNL     1      -4.806   1.136  24.582  0.00  0.00    +0.185 C 
BRANCH  15  19
ATOM     19  C   UNL     1      -6.243   1.148  25.078  0.00  0.00    +0.021 C 
ATOM     21  C   UNL     1      -6.337   1.693  26.493  0.00  0.00    +0.005 C 
ENDBRANCH  15  19
ENDBRANCH   2  15
ENDBRANCH   7   2
BRANCH  10  16
ATOM      6  O   UNL     1      -0.588  -1.261  26.176  0.00  0.00    -0.249 OA
ATOM     16  C   UNL     1      -1.202  -1.872  25.312  0.00  0.00    +0.326 C 
BRANCH  16   5
ATOM      5  O   UNL     1      -1.649  -3.158  25.392  0.00  0.00    -0.467 OA
ATOM     24  C   UNL     1      -2.667  -3.515  24.453  0.00  0.00    +0.280 C 
ENDBRANCH  16   5
ENDBRANCH  10  16
BRANCH   8  17
ATOM     17  C   UNL     1      -0.047   3.597  25.223  0.00  0.00    +0.158 C 
BRANCH  17  20
ATOM      1 CL   UNL     1      -5.933   4.826  25.482  0.00  0.00    -0.084 Cl
ATOM     20  C   UNL     1      -1.521   3.906  25.288  0.00  0.00    -0.028 A 
ATOM     22  C   UNL     1      -2.220   4.224  24.124  0.00  0.00    +0.007 A 
ATOM     23  C   UNL     1      -2.188   3.873  26.514  0.00  0.00    +0.007 A 
ATOM     25  C   UNL     1      -3.583   4.510  24.184  0.00  0.00    +0.020 A 
ATOM     26  C   UNL     1      -3.552   4.158  26.574  0.00  0.00    +0.020 A 
ATOM     27  C   UNL     1      -4.250   4.477  25.410  0.00  0.00    +0.041 A 
ENDBRANCH  17  20
ENDBRANCH   8  17
TORSDOF 7
ENDMDL
MODEL 10
REMARK VINA RESULT:       0.1     18.349     20.781
REMARK  Name = 26745472
REMARK  9 active torsions:
REMARK  status: ('A' for Active; 'I' for Inactive)
REMARK    1  A    between atoms: S_2  and  N_7
REMARK    2  A    between atoms: S_2  and  C_15
REMARK    3  A    between atoms: O_5  and  C_16
REMARK    4  A    between atoms: O_5  and  C_24
REMARK    5  A    between atoms: N_8  and  C_17
REMARK    6  A    between atoms: C_10  and  C_16
REMARK    7  A    between atoms: C_15  and  C_19
REMARK    8  A    between atoms: C_17  and  C_20
REMARK    9  A    between atoms: C_19  and  C_21
REMARK                            x       y       z     vdW  Elec       q    Type
REMARK                         _______ _______ _______ _____ _____    ______ ____
ROOT
ATOM      7  N   UNL     1      -0.818   1.945  24.394  0.00  0.00    -0.161 NA
ATOM      8  N   UNL     1      -4.271   2.736  25.599  0.00  0.00    -0.328 N 
ATOM      9  N   UNL     1      -3.403   4.740  26.069  0.00  0.00    -0.240 NA
ATOM     10  C   UNL     1      -0.143   2.960  25.280  0.00  0.00    +0.194 C 
ATOM     11  C   UNL     1      -2.187   1.482  24.831  0.00  0.00    +0.165 C 
ATOM     12  C   UNL     1      -0.999   4.233  25.453  0.00  0.00    +0.089 C 
ATOM     13  C   UNL     1      -2.939   2.652  25.323  0.00  0.00    +0.057 A 
ATOM     14  C   UNL     1      -2.428   3.891  25.623  0.00  0.00    +0.066 A 
ATOM     18  C   UNL     1      -4.502   4.013  26.044  0.00  0.00    +0.200 A 
ENDROOT
BRANCH   7   2
ATOM      2  S   UNL     1       0.182   0.731  23.716  0.00  0.00    +0.033 S 
ATOM      3  O   UNL     1      -0.056  -0.512  24.417  0.00  0.00    -0.158 OA
ATOM      4  O   UNL     1       1.515   1.268  23.549  0.00  0.00    -0.158 OA
BRANCH   2  15
ATOM     15  C   UNL     1      -0.566   0.610  22.113  0.00  0.00    +0.185 C 
BRANCH  15  19
ATOM     19  C   UNL     1      -2.061   0.879  22.178  0.00  0.00    +0.021 C 
ATOM     21  C   UNL     1      -2.425   2.169  21.461  0.00  0.00    +0.005 C 
ENDBRANCH  15  19
ENDBRANCH   2  15
ENDBRANCH   7   2
BRANCH  10  16
ATOM      6  O   UNL     1      -0.421   1.356  27.050  0.00  0.00    -0.249 OA
ATOM     16  C   UNL     1       0.181   2.318  26.591  0.00  0.00    +0.326 C 
BRANCH  16   5
ATOM      5  O   UNL     1       1.229   2.969  27.172  0.00  0.00    -0.467 OA
ATOM     24  C   UNL     1       1.504   2.605  28.528  0.00  0.00    +0.280 C 
ENDBRANCH  16   5
ENDBRANCH  10  16
BRANCH   8  17
ATOM     17  C   UNL     1      -5.258   1.693  25.461  0.00  0.00    +0.158 C 
BRANCH  17  20
ATOM      1 CL   UNL     1      -2.866  -3.721  24.371  0.00  0.00    -0.084 Cl
ATOM     20  C   UNL     1      -4.659   0.336  25.189  0.00  0.00    -0.028 A 
ATOM     22  C   UNL     1      -4.820  -0.259  23.937  0.00  0.00    +0.007 A 
ATOM     23  C   UNL     1      -3.944  -0.325  26.188  0.00  0.00    +0.007 A 
ATOM     25  C   UNL     1      -4.267  -1.514  23.686  0.00  0.00    +0.020 A 
ATOM     26  C   UNL     1      -3.390  -1.580  25.936  0.00  0.00    +0.020 A 
ATOM     27  C   UNL     1      -3.551  -2.175  24.685  0.00  0.00    +0.041 A 
ENDBRANCH  17  20
ENDBRANCH   8  17
TORSDOF 7
ENDMDL
