MODEL 1
REMARK VINA RESULT:      -2.4      0.000      0.000
REMARK  Name = 40779355
REMARK  10 active torsions:
REMARK  status: ('A' for Active; 'I' for Inactive)
REMARK    1  A    between atoms: O_3  and  C_29
REMARK    2  A    between atoms: N_6  and  C_20
REMARK    3  A    between atoms: N_7  and  C_17
REMARK    4  A    between atoms: C_10  and  C_16
REMARK    5  A    between atoms: C_11  and  C_17
REMARK    6  A    between atoms: C_19  and  C_22
REMARK    7  A    between atoms: C_21  and  C_23
REMARK    8  A    between atoms: C_23  and  C_24
REMARK    9  A    between atoms: C_24  and  C_26
REMARK   10  A    between atoms: C_26  and  C_29
REMARK                            x       y       z     vdW  Elec       q    Type
REMARK                         _______ _______ _______ _____ _____    ______ ____
ROOT
ATOM      5  N   UNL     1      15.953  -9.144  27.858  0.00  0.00    -0.297 NA
ATOM      9  C   UNL     1      16.333  -9.852  30.335  0.00  0.00    +0.002 C 
ATOM     10  C   UNL     1      14.958 -10.365  29.829  0.00  0.00    +0.055 C 
ATOM     11  C   UNL     1      16.370  -7.966  28.665  0.00  0.00    +0.074 C 
ATOM     12  C   UNL     1      16.399  -8.319  30.167  0.00  0.00    +0.024 C 
ATOM     13  C   UNL     1      17.405 -10.456  29.404  0.00  0.00    +0.019 C 
ATOM     14  C   UNL     1      14.717  -9.737  28.426  0.00  0.00    +0.094 C 
ATOM     15  C   UNL     1      17.033 -10.156  27.941  0.00  0.00    +0.085 C 
ENDROOT
BRANCH  10  16
ATOM      6  N   UNL     1      13.818 -10.380  32.096  0.00  0.00    -0.270 N 
ATOM      8  N   UNL     1      12.644 -10.203  32.724  0.00  0.00    -0.171 NA
ATOM     16  C   UNL     1      13.752 -10.213  30.744  0.00  0.00    +0.044 A 
ATOM     18  C   UNL     1      12.442  -9.905  30.467  0.00  0.00    +0.053 A 
ATOM     19  C   UNL     1      11.806  -9.913  31.724  0.00  0.00    +0.100 A 
ATOM     20  C   UNL     1      14.989 -10.714  32.873  0.00  0.00    +0.172 C 
BRANCH  19  22
ATOM      1  S   UNL     1       9.793  -8.162  32.607  0.00  0.00    -0.095 S 
ATOM     22  C   UNL     1      10.378  -9.638  31.963  0.00  0.00    +0.039 A 
ATOM     25  C   UNL     1       9.359 -10.526  31.698  0.00  0.00    +0.018 A 
ATOM     27  C   UNL     1       8.081  -9.989  32.028  0.00  0.00    +0.008 A 
ATOM     28  C   UNL     1       8.173  -8.711  32.533  0.00  0.00    +0.046 A 
ENDBRANCH  19  22
ENDBRANCH  10  16
BRANCH  11  17
ATOM     17  C   UNL     1      15.507  -6.733  28.385  0.00  0.00    +0.123 C 
BRANCH  17   7
ATOM      2  O   UNL     1      16.513  -4.454  29.809  0.00  0.00    -0.276 OA
ATOM      7  N   UNL     1      14.985  -6.190  29.601  0.00  0.00    -0.314 N 
ATOM     21  C   UNL     1      15.540  -5.074  30.228  0.00  0.00    +0.213 C 
ATOM     30  H   UNL     1      14.223  -6.687  30.052  0.00  0.00    +0.149 HD
BRANCH  21  23
ATOM     23  C   UNL     1      14.815  -4.723  31.516  0.00  0.00    +0.096 C 
BRANCH  23  24
ATOM     24  C   UNL     1      14.725  -5.882  32.506  0.00  0.00    +0.020 C 
BRANCH  24  26
ATOM     26  C   UNL     1      13.341  -6.532  32.517  0.00  0.00    +0.121 C 
BRANCH  26  29
ATOM      4  O   UNL     1      11.830  -4.659  32.142  0.00  0.00    -0.251 OA
ATOM     29  C   UNL     1      12.326  -5.708  31.756  0.00  0.00    +0.305 C 
BRANCH  29   3
ATOM      3  O   UNL     1      12.018  -6.280  30.563  0.00  0.00    -0.481 OA
ATOM     31  H   UNL     1      12.545  -7.091  30.400  0.00  0.00    +0.295 HD
ENDBRANCH  29   3
ENDBRANCH  26  29
ENDBRANCH  24  26
ENDBRANCH  23  24
ENDBRANCH  21  23
ENDBRANCH  17   7
ENDBRANCH  11  17
TORSDOF 9
ENDMDL
MODEL 2
REMARK VINA RESULT:      -2.1     16.679     19.671
REMARK  Name = 40779355
REMARK  10 active torsions:
REMARK  status: ('A' for Active; 'I' for Inactive)
REMARK    1  A    between atoms: O_3  and  C_29
REMARK    2  A    between atoms: N_6  and  C_20
REMARK    3  A    between atoms: N_7  and  C_17
REMARK    4  A    between atoms: C_10  and  C_16
REMARK    5  A    between atoms: C_11  and  C_17
REMARK    6  A    between atoms: C_19  and  C_22
REMARK    7  A    between atoms: C_21  and  C_23
REMARK    8  A    between atoms: C_23  and  C_24
REMARK    9  A    between atoms: C_24  and  C_26
REMARK   10  A    between atoms: C_26  and  C_29
REMARK                            x       y       z     vdW  Elec       q    Type
REMARK                         _______ _______ _______ _____ _____    ______ ____
ROOT
ATOM      5  N   UNL     1      -4.739   2.655  26.174  0.00  0.00    -0.297 NA
ATOM      9  C   UNL     1      -4.475   1.837  23.716  0.00  0.00    +0.002 C 
ATOM     10  C   UNL     1      -3.767   0.859  24.693  0.00  0.00    +0.055 C 
ATOM     11  C   UNL     1      -4.256   3.770  25.317  0.00  0.00    +0.074 C 
ATOM     12  C   UNL     1      -3.897   3.255  23.906  0.00  0.00    +0.024 C 
ATOM     13  C   UNL     1      -5.959   1.892  24.138  0.00  0.00    +0.019 C 
ATOM     14  C   UNL     1      -3.793   1.514  26.104  0.00  0.00    +0.094 C 
ATOM     15  C   UNL     1      -6.047   2.206  25.642  0.00  0.00    +0.085 C 
ENDROOT
BRANCH  10  16
ATOM      6  N   UNL     1      -1.972  -0.930  24.571  0.00  0.00    -0.270 N 
ATOM      8  N   UNL     1      -0.717  -1.186  24.165  0.00  0.00    -0.171 NA
ATOM     16  C   UNL     1      -2.385   0.345  24.320  0.00  0.00    +0.044 A 
ATOM     18  C   UNL     1      -1.325   0.969  23.707  0.00  0.00    +0.053 A 
ATOM     19  C   UNL     1      -0.326  -0.021  23.638  0.00  0.00    +0.100 A 
ATOM     20  C   UNL     1      -2.734  -1.981  25.206  0.00  0.00    +0.172 C 
BRANCH  19  22
ATOM      1  S   UNL     1       1.536  -0.616  21.619  0.00  0.00    -0.095 S 
ATOM     22  C   UNL     1       1.016   0.156  23.057  0.00  0.00    +0.039 A 
ATOM     25  C   UNL     1       1.999   0.955  23.599  0.00  0.00    +0.018 A 
ATOM     27  C   UNL     1       3.195   0.934  22.823  0.00  0.00    +0.008 A 
ATOM     28  C   UNL     1       3.080   0.119  21.719  0.00  0.00    +0.046 A 
ENDBRANCH  19  22
ENDBRANCH  10  16
BRANCH  11  17
ATOM     17  C   UNL     1      -3.096   4.537  25.956  0.00  0.00    +0.123 C 
BRANCH  17   7
ATOM      2  O   UNL     1      -0.530   4.689  24.681  0.00  0.00    -0.276 OA
ATOM      7  N   UNL     1      -1.979   3.674  26.185  0.00  0.00    -0.314 N 
ATOM     21  C   UNL     1      -0.763   3.821  25.517  0.00  0.00    +0.213 C 
ATOM     30  H   UNL     1      -2.112   2.885  26.810  0.00  0.00    +0.149 HD
BRANCH  21  23
ATOM     23  C   UNL     1       0.244   2.758  25.922  0.00  0.00    +0.096 C 
BRANCH  23  24
ATOM     24  C   UNL     1       0.196   2.399  27.406  0.00  0.00    +0.020 C 
BRANCH  24  26
ATOM     26  C   UNL     1       1.525   2.667  28.113  0.00  0.00    +0.121 C 
BRANCH  26  29
ATOM      4  O   UNL     1       0.650   2.926  30.371  0.00  0.00    -0.251 OA
ATOM     29  C   UNL     1       1.436   2.396  29.599  0.00  0.00    +0.305 C 
BRANCH  29   3
ATOM      3  O   UNL     1       2.353   1.472  29.989  0.00  0.00    -0.481 OA
ATOM     31  H   UNL     1       3.129   1.888  30.422  0.00  0.00    +0.295 HD
ENDBRANCH  29   3
ENDBRANCH  26  29
ENDBRANCH  24  26
ENDBRANCH  23  24
ENDBRANCH  21  23
ENDBRANCH  17   7
ENDBRANCH  11  17
TORSDOF 9
ENDMDL
MODEL 3
REMARK VINA RESULT:      -1.4     16.469     19.687
REMARK  Name = 40779355
REMARK  10 active torsions:
REMARK  status: ('A' for Active; 'I' for Inactive)
REMARK    1  A    between atoms: O_3  and  C_29
REMARK    2  A    between atoms: N_6  and  C_20
REMARK    3  A    between atoms: N_7  and  C_17
REMARK    4  A    between atoms: C_10  and  C_16
REMARK    5  A    between atoms: C_11  and  C_17
REMARK    6  A    between atoms: C_19  and  C_22
REMARK    7  A    between atoms: C_21  and  C_23
REMARK    8  A    between atoms: C_23  and  C_24
REMARK    9  A    between atoms: C_24  and  C_26
REMARK   10  A    between atoms: C_26  and  C_29
REMARK                            x       y       z     vdW  Elec       q    Type
REMARK                         _______ _______ _______ _____ _____    ______ ____
ROOT
ATOM      5  N   UNL     1      -3.990   3.381  24.239  0.00  0.00    -0.297 NA
ATOM      9  C   UNL     1      -1.899   3.152  25.774  0.00  0.00    +0.002 C 
ATOM     10  C   UNL     1      -1.476   3.174  24.280  0.00  0.00    +0.055 C 
ATOM     11  C   UNL     1      -4.201   2.288  25.225  0.00  0.00    +0.074 C 
ATOM     12  C   UNL     1      -2.900   2.000  26.004  0.00  0.00    +0.024 C 
ATOM     13  C   UNL     1      -2.656   4.470  26.043  0.00  0.00    +0.019 C 
ATOM     14  C   UNL     1      -2.777   3.108  23.429  0.00  0.00    +0.094 C 
ATOM     15  C   UNL     1      -3.770   4.638  24.994  0.00  0.00    +0.085 C 
ENDROOT
BRANCH  10  16
ATOM      6  N   UNL     1      -0.718   1.127  22.987  0.00  0.00    -0.270 N 
ATOM      8  N   UNL     1       0.344   0.357  22.693  0.00  0.00    -0.171 NA
ATOM     16  C   UNL     1      -0.430   2.172  23.813  0.00  0.00    +0.044 A 
ATOM     18  C   UNL     1       0.915   2.081  24.080  0.00  0.00    +0.053 A 
ATOM     19  C   UNL     1       1.339   0.945  23.364  0.00  0.00    +0.100 A 
ATOM     20  C   UNL     1      -2.006   0.792  22.425  0.00  0.00    +0.172 C 
BRANCH  19  22
ATOM      1  S   UNL     1       3.124  -1.201  23.691  0.00  0.00    -0.095 S 
ATOM     22  C   UNL     1       2.716   0.423  23.326  0.00  0.00    +0.039 A 
ATOM     25  C   UNL     1       3.824   1.172  22.995  0.00  0.00    +0.018 A 
ATOM     27  C   UNL     1       5.023   0.404  23.041  0.00  0.00    +0.008 A 
ATOM     28  C   UNL     1       4.786  -0.903  23.407  0.00  0.00    +0.046 A 
ENDBRANCH  19  22
ENDBRANCH  10  16
BRANCH  11  17
ATOM     17  C   UNL     1      -4.771   1.023  24.579  0.00  0.00    +0.123 C 
BRANCH  17   7
ATOM      2  O   UNL     1      -4.613  -1.570  23.359  0.00  0.00    -0.276 OA
ATOM      7  N   UNL     1      -4.177  -0.149  25.144  0.00  0.00    -0.314 N 
ATOM     21  C   UNL     1      -4.145  -1.374  24.477  0.00  0.00    +0.213 C 
ATOM     30  H   UNL     1      -3.829  -0.091  26.096  0.00  0.00    +0.149 HD
BRANCH  21  23
ATOM     23  C   UNL     1      -3.483  -2.460  25.308  0.00  0.00    +0.096 C 
BRANCH  23  24
ATOM     24  C   UNL     1      -2.301  -3.132  24.614  0.00  0.00    +0.020 C 
BRANCH  24  26
ATOM     26  C   UNL     1      -1.199  -2.138  24.247  0.00  0.00    +0.121 C 
BRANCH  26  29
ATOM      4  O   UNL     1      -1.066  -0.477  26.023  0.00  0.00    -0.251 OA
ATOM     29  C   UNL     1      -0.613  -1.470  25.471  0.00  0.00    +0.305 C 
BRANCH  29   3
ATOM      3  O   UNL     1       0.503  -2.114  25.901  0.00  0.00    -0.481 OA
ATOM     31  H   UNL     1       1.222  -1.487  26.130  0.00  0.00    +0.295 HD
ENDBRANCH  29   3
ENDBRANCH  26  29
ENDBRANCH  24  26
ENDBRANCH  23  24
ENDBRANCH  21  23
ENDBRANCH  17   7
ENDBRANCH  11  17
TORSDOF 9
ENDMDL
MODEL 4
REMARK VINA RESULT:      -1.2      3.803      7.071
REMARK  Name = 40779355
REMARK  10 active torsions:
REMARK  status: ('A' for Active; 'I' for Inactive)
REMARK    1  A    between atoms: O_3  and  C_29
REMARK    2  A    between atoms: N_6  and  C_20
REMARK    3  A    between atoms: N_7  and  C_17
REMARK    4  A    between atoms: C_10  and  C_16
REMARK    5  A    between atoms: C_11  and  C_17
REMARK    6  A    between atoms: C_19  and  C_22
REMARK    7  A    between atoms: C_21  and  C_23
REMARK    8  A    between atoms: C_23  and  C_24
REMARK    9  A    between atoms: C_24  and  C_26
REMARK   10  A    between atoms: C_26  and  C_29
REMARK                            x       y       z     vdW  Elec       q    Type
REMARK                         _______ _______ _______ _____ _____    ______ ____
ROOT
ATOM      5  N   UNL     1      15.583  -8.156  30.412  0.00  0.00    -0.297 NA
ATOM      9  C   UNL     1      14.786  -9.189  28.158  0.00  0.00    +0.002 C 
ATOM     10  C   UNL     1      16.236  -8.650  28.025  0.00  0.00    +0.055 C 
ATOM     11  C   UNL     1      14.252  -7.606  30.044  0.00  0.00    +0.074 C 
ATOM     12  C   UNL     1      13.857  -8.046  28.618  0.00  0.00    +0.024 C 
ATOM     13  C   UNL     1      14.803 -10.241  29.288  0.00  0.00    +0.019 C 
ATOM     14  C   UNL     1      16.564  -7.875  29.334  0.00  0.00    +0.094 C 
ATOM     15  C   UNL     1      15.448  -9.627  30.543  0.00  0.00    +0.085 C 
ENDROOT
BRANCH  10  16
ATOM      6  N   UNL     1      17.069  -8.435  25.638  0.00  0.00    -0.270 N 
ATOM      8  N   UNL     1      17.328  -7.560  24.651  0.00  0.00    -0.171 NA
ATOM     16  C   UNL     1      16.597  -7.855  26.779  0.00  0.00    +0.044 A 
ATOM     18  C   UNL     1      16.543  -6.507  26.521  0.00  0.00    +0.053 A 
ATOM     19  C   UNL     1      17.005  -6.384  25.196  0.00  0.00    +0.100 A 
ATOM     20  C   UNL     1      17.302  -9.842  25.411  0.00  0.00    +0.172 C 
BRANCH  19  22
ATOM      1  S   UNL     1      17.159  -3.578  25.193  0.00  0.00    -0.095 S 
ATOM     22  C   UNL     1      17.135  -5.121  24.449  0.00  0.00    +0.039 A 
ATOM     25  C   UNL     1      17.252  -5.036  23.079  0.00  0.00    +0.018 A 
ATOM     27  C   UNL     1      17.362  -3.686  22.633  0.00  0.00    +0.008 A 
ATOM     28  C   UNL     1      17.325  -2.792  23.680  0.00  0.00    +0.046 A 
ENDBRANCH  19  22
ENDBRANCH  10  16
BRANCH  11  17
ATOM     17  C   UNL     1      14.181  -6.087  30.213  0.00  0.00    +0.123 C 
BRANCH  17   7
ATOM      2  O   UNL     1      14.896  -6.889  32.873  0.00  0.00    -0.276 OA
ATOM      7  N   UNL     1      15.290  -5.607  30.978  0.00  0.00    -0.314 N 
ATOM     21  C   UNL     1      15.564  -6.054  32.270  0.00  0.00    +0.213 C 
ATOM     30  H   UNL     1      15.853  -4.862  30.578  0.00  0.00    +0.149 HD
BRANCH  21  23
ATOM     23  C   UNL     1      16.779  -5.365  32.868  0.00  0.00    +0.096 C 
BRANCH  23  24
ATOM     24  C   UNL     1      17.148  -4.056  32.172  0.00  0.00    +0.020 C 
BRANCH  24  26
ATOM     26  C   UNL     1      16.119  -2.953  32.422  0.00  0.00    +0.121 C 
BRANCH  26  29
ATOM      4  O   UNL     1      16.609  -1.688  30.399  0.00  0.00    -0.251 OA
ATOM     29  C   UNL     1      16.413  -1.714  31.606  0.00  0.00    +0.305 C 
BRANCH  29   3
ATOM      3  O   UNL     1      16.435  -0.601  32.386  0.00  0.00    -0.481 OA
ATOM     31  H   UNL     1      15.780  -0.653  33.115  0.00  0.00    +0.295 HD
ENDBRANCH  29   3
ENDBRANCH  26  29
ENDBRANCH  24  26
ENDBRANCH  23  24
ENDBRANCH  21  23
ENDBRANCH  17   7
ENDBRANCH  11  17
TORSDOF 9
ENDMDL
MODEL 5
REMARK VINA RESULT:      -0.8     16.444     19.275
REMARK  Name = 40779355
REMARK  10 active torsions:
REMARK  status: ('A' for Active; 'I' for Inactive)
REMARK    1  A    between atoms: O_3  and  C_29
REMARK    2  A    between atoms: N_6  and  C_20
REMARK    3  A    between atoms: N_7  and  C_17
REMARK    4  A    between atoms: C_10  and  C_16
REMARK    5  A    between atoms: C_11  and  C_17
REMARK    6  A    between atoms: C_19  and  C_22
REMARK    7  A    between atoms: C_21  and  C_23
REMARK    8  A    between atoms: C_23  and  C_24
REMARK    9  A    between atoms: C_24  and  C_26
REMARK   10  A    between atoms: C_26  and  C_29
REMARK                            x       y       z     vdW  Elec       q    Type
REMARK                         _______ _______ _______ _____ _____    ______ ____
ROOT
ATOM      5  N   UNL     1      -2.895  -2.551  23.845  0.00  0.00    -0.297 NA
ATOM      9  C   UNL     1      -2.793  -1.353  26.155  0.00  0.00    +0.002 C 
ATOM     10  C   UNL     1      -3.717  -0.575  25.180  0.00  0.00    +0.055 C 
ATOM     11  C   UNL     1      -1.479  -2.379  24.267  0.00  0.00    +0.074 C 
ATOM     12  C   UNL     1      -1.390  -1.492  25.527  0.00  0.00    +0.024 C 
ATOM     13  C   UNL     1      -3.376  -2.777  26.282  0.00  0.00    +0.019 C 
ATOM     14  C   UNL     1      -3.568  -1.230  23.778  0.00  0.00    +0.094 C 
ATOM     15  C   UNL     1      -3.579  -3.368  24.876  0.00  0.00    +0.085 C 
ENDROOT
BRANCH  10  16
ATOM      6  N   UNL     1      -4.668   1.778  25.162  0.00  0.00    -0.270 N 
ATOM      8  N   UNL     1      -4.345   3.081  25.102  0.00  0.00    -0.171 NA
ATOM     16  C   UNL     1      -3.592   0.941  25.125  0.00  0.00    +0.044 A 
ATOM     18  C   UNL     1      -2.487   1.752  25.034  0.00  0.00    +0.053 A 
ATOM     19  C   UNL     1      -3.011   3.059  25.023  0.00  0.00    +0.100 A 
ATOM     20  C   UNL     1      -6.059   1.401  25.257  0.00  0.00    +0.172 C 
BRANCH  19  22
ATOM      1  S   UNL     1      -0.577   4.342  24.450  0.00  0.00    -0.095 S 
ATOM     22  C   UNL     1      -2.219   4.299  24.938  0.00  0.00    +0.039 A 
ATOM     25  C   UNL     1      -2.701   5.553  25.238  0.00  0.00    +0.018 A 
ATOM     27  C   UNL     1      -1.712   6.564  25.066  0.00  0.00    +0.008 A 
ATOM     28  C   UNL     1      -0.509   6.042  24.640  0.00  0.00    +0.046 A 
ENDBRANCH  19  22
ENDBRANCH  10  16
BRANCH  11  17
ATOM     17  C   UNL     1      -0.593  -1.852  23.135  0.00  0.00    +0.123 C 
BRANCH  17   7
ATOM      2  O   UNL     1       1.319  -0.384  21.578  0.00  0.00    -0.276 OA
ATOM      7  N   UNL     1       0.287  -0.831  23.610  0.00  0.00    -0.314 N 
ATOM     21  C   UNL     1       1.190  -0.166  22.780  0.00  0.00    +0.213 C 
ATOM     30  H   UNL     1       0.295  -0.640  24.608  0.00  0.00    +0.149 HD
BRANCH  21  23
ATOM     23  C   UNL     1       2.026   0.849  23.540  0.00  0.00    +0.096 C 
BRANCH  23  24
ATOM     24  C   UNL     1       3.273   1.306  22.788  0.00  0.00    +0.020 C 
BRANCH  24  26
ATOM     26  C   UNL     1       4.295   0.181  22.617  0.00  0.00    +0.121 C 
BRANCH  26  29
ATOM      4  O   UNL     1       5.577   0.690  24.624  0.00  0.00    -0.251 OA
ATOM     29  C   UNL     1       5.013  -0.128  23.911  0.00  0.00    +0.305 C 
BRANCH  29   3
ATOM      3  O   UNL     1       4.960  -1.454  24.202  0.00  0.00    -0.481 OA
ATOM     31  H   UNL     1       4.056  -1.735  24.462  0.00  0.00    +0.295 HD
ENDBRANCH  29   3
ENDBRANCH  26  29
ENDBRANCH  24  26
ENDBRANCH  23  24
ENDBRANCH  21  23
ENDBRANCH  17   7
ENDBRANCH  11  17
TORSDOF 9
ENDMDL
MODEL 6
REMARK VINA RESULT:      -0.5     17.186     19.989
REMARK  Name = 40779355
REMARK  10 active torsions:
REMARK  status: ('A' for Active; 'I' for Inactive)
REMARK    1  A    between atoms: O_3  and  C_29
REMARK    2  A    between atoms: N_6  and  C_20
REMARK    3  A    between atoms: N_7  and  C_17
REMARK    4  A    between atoms: C_10  and  C_16
REMARK    5  A    between atoms: C_11  and  C_17
REMARK    6  A    between atoms: C_19  and  C_22
REMARK    7  A    between atoms: C_21  and  C_23
REMARK    8  A    between atoms: C_23  and  C_24
REMARK    9  A    between atoms: C_24  and  C_26
REMARK   10  A    between atoms: C_26  and  C_29
REMARK                            x       y       z     vdW  Elec       q    Type
REMARK                         _______ _______ _______ _____ _____    ______ ____
ROOT
ATOM      5  N   UNL     1      -1.415   4.810  25.808  0.00  0.00    -0.297 NA
ATOM      9  C   UNL     1      -2.792   4.156  23.696  0.00  0.00    +0.002 C 
ATOM     10  C   UNL     1      -3.453   3.577  24.976  0.00  0.00    +0.055 C 
ATOM     11  C   UNL     1      -0.516   4.234  24.773  0.00  0.00    +0.074 C 
ATOM     12  C   UNL     1      -1.336   3.653  23.602  0.00  0.00    +0.024 C 
ATOM     13  C   UNL     1      -2.731   5.688  23.879  0.00  0.00    +0.019 C 
ATOM     14  C   UNL     1      -2.476   3.833  26.159  0.00  0.00    +0.094 C 
ATOM     15  C   UNL     1      -2.065   6.010  25.228  0.00  0.00    +0.085 C 
ENDROOT
BRANCH  10  16
ATOM      6  N   UNL     1      -5.221   1.784  25.292  0.00  0.00    -0.270 N 
ATOM      8  N   UNL     1      -5.463   0.466  25.193  0.00  0.00    -0.171 NA
ATOM     16  C   UNL     1      -3.952   2.140  24.940  0.00  0.00    +0.044 A 
ATOM     18  C   UNL     1      -3.320   0.973  24.585  0.00  0.00    +0.053 A 
ATOM     19  C   UNL     1      -4.298  -0.024  24.760  0.00  0.00    +0.100 A 
ATOM     20  C   UNL     1      -6.277   2.662  25.742  0.00  0.00    +0.172 C 
BRANCH  19  22
ATOM      1  S   UNL     1      -3.132  -2.477  25.484  0.00  0.00    -0.095 S 
ATOM     22  C   UNL     1      -4.108  -1.463  24.506  0.00  0.00    +0.039 A 
ATOM     25  C   UNL     1      -4.688  -2.153  23.464  0.00  0.00    +0.018 A 
ATOM     27  C   UNL     1      -4.327  -3.532  23.467  0.00  0.00    +0.008 A 
ATOM     28  C   UNL     1      -3.485  -3.843  24.512  0.00  0.00    +0.046 A 
ENDBRANCH  19  22
ENDBRANCH  10  16
BRANCH  11  17
ATOM     17  C   UNL     1       0.458   3.205  25.354  0.00  0.00    +0.123 C 
BRANCH  17   7
ATOM      2  O   UNL     1      -0.694   0.645  25.945  0.00  0.00    -0.276 OA
ATOM      7  N   UNL     1       0.513   2.036  24.532  0.00  0.00    -0.314 N 
ATOM     21  C   UNL     1      -0.077   0.827  24.900  0.00  0.00    +0.213 C 
ATOM     30  H   UNL     1       1.066   2.082  23.682  0.00  0.00    +0.149 HD
BRANCH  21  23
ATOM     23  C   UNL     1       0.154  -0.260  23.864  0.00  0.00    +0.096 C 
BRANCH  23  24
ATOM     24  C   UNL     1       1.041   0.177  22.701  0.00  0.00    +0.020 C 
BRANCH  24  26
ATOM     26  C   UNL     1       2.420  -0.483  22.740  0.00  0.00    +0.121 C 
BRANCH  26  29
ATOM      4  O   UNL     1       4.725   0.292  22.858  0.00  0.00    -0.251 OA
ATOM     29  C   UNL     1       3.527   0.536  22.890  0.00  0.00    +0.305 C 
BRANCH  29   3
ATOM      3  O   UNL     1       3.029   1.787  23.069  0.00  0.00    -0.481 OA
ATOM     31  H   UNL     1       3.741   2.446  23.220  0.00  0.00    +0.295 HD
ENDBRANCH  29   3
ENDBRANCH  26  29
ENDBRANCH  24  26
ENDBRANCH  23  24
ENDBRANCH  21  23
ENDBRANCH  17   7
ENDBRANCH  11  17
TORSDOF 9
ENDMDL
MODEL 7
REMARK VINA RESULT:      -0.5     16.120     19.098
REMARK  Name = 40779355
REMARK  10 active torsions:
REMARK  status: ('A' for Active; 'I' for Inactive)
REMARK    1  A    between atoms: O_3  and  C_29
REMARK    2  A    between atoms: N_6  and  C_20
REMARK    3  A    between atoms: N_7  and  C_17
REMARK    4  A    between atoms: C_10  and  C_16
REMARK    5  A    between atoms: C_11  and  C_17
REMARK    6  A    between atoms: C_19  and  C_22
REMARK    7  A    between atoms: C_21  and  C_23
REMARK    8  A    between atoms: C_23  and  C_24
REMARK    9  A    between atoms: C_24  and  C_26
REMARK   10  A    between atoms: C_26  and  C_29
REMARK                            x       y       z     vdW  Elec       q    Type
REMARK                         _______ _______ _______ _____ _____    ______ ____
ROOT
ATOM      5  N   UNL     1      -3.759  -0.379  25.692  0.00  0.00    -0.297 NA
ATOM      9  C   UNL     1      -2.560  -2.065  24.110  0.00  0.00    +0.002 C 
ATOM     10  C   UNL     1      -1.523  -1.308  24.983  0.00  0.00    +0.055 C 
ATOM     11  C   UNL     1      -4.244  -0.201  24.297  0.00  0.00    +0.074 C 
ATOM     12  C   UNL     1      -3.401  -1.043  23.316  0.00  0.00    +0.024 C 
ATOM     13  C   UNL     1      -3.520  -2.785  25.080  0.00  0.00    +0.019 C 
ATOM     14  C   UNL     1      -2.288  -0.189  25.746  0.00  0.00    +0.094 C 
ATOM     15  C   UNL     1      -4.062  -1.771  26.103  0.00  0.00    +0.085 C 
ENDROOT
BRANCH  10  16
ATOM      6  N   UNL     1      -0.268   0.194  23.368  0.00  0.00    -0.270 N 
ATOM      8  N   UNL     1       0.951   0.509  22.898  0.00  0.00    -0.171 NA
ATOM     16  C   UNL     1      -0.259  -0.789  24.313  0.00  0.00    +0.044 A 
ATOM     18  C   UNL     1       1.058  -1.144  24.473  0.00  0.00    +0.053 A 
ATOM     19  C   UNL     1       1.757  -0.312  23.578  0.00  0.00    +0.100 A 
ATOM     20  C   UNL     1      -1.423   0.894  22.854  0.00  0.00    +0.172 C 
BRANCH  19  22
ATOM      1  S   UNL     1       4.057   0.947  22.566  0.00  0.00    -0.095 S 
ATOM     22  C   UNL     1       3.217  -0.308  23.375  0.00  0.00    +0.039 A 
ATOM     25  C   UNL     1       4.066  -1.302  23.809  0.00  0.00    +0.018 A 
ATOM     27  C   UNL     1       5.424  -1.031  23.473  0.00  0.00    +0.008 A 
ATOM     28  C   UNL     1       5.561   0.160  22.795  0.00  0.00    +0.046 A 
ENDBRANCH  19  22
ENDBRANCH  10  16
BRANCH  11  17
ATOM     17  C   UNL     1      -4.299   1.272  23.883  0.00  0.00    +0.123 C 
BRANCH  17   7
ATOM      2  O   UNL     1      -4.099   4.134  23.821  0.00  0.00    -0.276 OA
ATOM      7  N   UNL     1      -3.745   2.109  24.902  0.00  0.00    -0.314 N 
ATOM     21  C   UNL     1      -3.688   3.498  24.788  0.00  0.00    +0.213 C 
ATOM     30  H   UNL     1      -3.318   1.657  25.704  0.00  0.00    +0.149 HD
BRANCH  21  23
ATOM     23  C   UNL     1      -3.027   4.143  25.994  0.00  0.00    +0.096 C 
BRANCH  23  24
ATOM     24  C   UNL     1      -1.641   4.715  25.703  0.00  0.00    +0.020 C 
BRANCH  24  26
ATOM     26  C   UNL     1      -0.727   3.703  25.011  0.00  0.00    +0.121 C 
BRANCH  26  29
ATOM      4  O   UNL     1      -0.477   2.550  27.142  0.00  0.00    -0.251 OA
ATOM     29  C   UNL     1      -0.088   2.753  26.000  0.00  0.00    +0.305 C 
BRANCH  29   3
ATOM      3  O   UNL     1       0.995   2.133  25.463  0.00  0.00    -0.481 OA
ATOM     31  H   UNL     1       1.327   2.601  24.667  0.00  0.00    +0.295 HD
ENDBRANCH  29   3
ENDBRANCH  26  29
ENDBRANCH  24  26
ENDBRANCH  23  24
ENDBRANCH  21  23
ENDBRANCH  17   7
ENDBRANCH  11  17
TORSDOF 9
ENDMDL
MODEL 8
REMARK VINA RESULT:      -0.3     16.953     20.209
REMARK  Name = 40779355
REMARK  10 active torsions:
REMARK  status: ('A' for Active; 'I' for Inactive)
REMARK    1  A    between atoms: O_3  and  C_29
REMARK    2  A    between atoms: N_6  and  C_20
REMARK    3  A    between atoms: N_7  and  C_17
REMARK    4  A    between atoms: C_10  and  C_16
REMARK    5  A    between atoms: C_11  and  C_17
REMARK    6  A    between atoms: C_19  and  C_22
REMARK    7  A    between atoms: C_21  and  C_23
REMARK    8  A    between atoms: C_23  and  C_24
REMARK    9  A    between atoms: C_24  and  C_26
REMARK   10  A    between atoms: C_26  and  C_29
REMARK                            x       y       z     vdW  Elec       q    Type
REMARK                         _______ _______ _______ _____ _____    ______ ____
ROOT
ATOM      5  N   UNL     1      -4.836   3.492  24.320  0.00  0.00    -0.297 NA
ATOM      9  C   UNL     1      -3.140   3.501  26.296  0.00  0.00    +0.002 C 
ATOM     10  C   UNL     1      -2.398   3.675  24.942  0.00  0.00    +0.055 C 
ATOM     11  C   UNL     1      -5.083   2.324  25.206  0.00  0.00    +0.074 C 
ATOM     12  C   UNL     1      -3.963   2.196  26.262  0.00  0.00    +0.024 C 
ATOM     13  C   UNL     1      -4.144   4.668  26.407  0.00  0.00    +0.019 C 
ATOM     14  C   UNL     1      -3.443   3.458  23.810  0.00  0.00    +0.094 C 
ATOM     15  C   UNL     1      -5.002   4.722  25.131  0.00  0.00    +0.085 C 
ENDROOT
BRANCH  10  16
ATOM      6  N   UNL     1      -0.228   2.602  25.704  0.00  0.00    -0.270 N 
ATOM      8  N   UNL     1       0.832   1.885  25.297  0.00  0.00    -0.171 NA
ATOM     16  C   UNL     1      -1.124   2.876  24.713  0.00  0.00    +0.044 A 
ATOM     18  C   UNL     1      -0.613   2.297  23.576  0.00  0.00    +0.053 A 
ATOM     19  C   UNL     1       0.592   1.701  23.995  0.00  0.00    +0.100 A 
ATOM     20  C   UNL     1      -0.320   2.999  27.091  0.00  0.00    +0.172 C 
BRANCH  19  22
ATOM      1  S   UNL     1       3.195   1.285  23.022  0.00  0.00    -0.095 S 
ATOM     22  C   UNL     1       1.519   0.947  23.134  0.00  0.00    +0.039 A 
ATOM     25  C   UNL     1       1.149  -0.106  22.327  0.00  0.00    +0.018 A 
ATOM     27  C   UNL     1       2.256  -0.644  21.607  0.00  0.00    +0.008 A 
ATOM     28  C   UNL     1       3.429   0.020  21.891  0.00  0.00    +0.046 A 
ENDBRANCH  19  22
ENDBRANCH  10  16
BRANCH  11  17
ATOM     17  C   UNL     1      -5.276   1.025  24.420  0.00  0.00    +0.123 C 
BRANCH  17   7
ATOM      2  O   UNL     1      -4.461  -1.438  23.194  0.00  0.00    -0.276 OA
ATOM      7  N   UNL     1      -4.602  -0.062  25.059  0.00  0.00    -0.314 N 
ATOM     21  C   UNL     1      -4.242  -1.228  24.383  0.00  0.00    +0.213 C 
ATOM     30  H   UNL     1      -4.448   0.001  26.061  0.00  0.00    +0.149 HD
BRANCH  21  23
ATOM     23  C   UNL     1      -3.567  -2.234  25.299  0.00  0.00    +0.096 C 
BRANCH  23  24
ATOM     24  C   UNL     1      -2.477  -3.056  24.614  0.00  0.00    +0.020 C 
BRANCH  24  26
ATOM     26  C   UNL     1      -1.269  -2.206  24.217  0.00  0.00    +0.121 C 
BRANCH  26  29
ATOM      4  O   UNL     1      -1.302  -0.510  25.964  0.00  0.00    -0.251 OA
ATOM     29  C   UNL     1      -0.724  -1.421  25.389  0.00  0.00    +0.305 C 
BRANCH  29   3
ATOM      3  O   UNL     1       0.515  -1.854  25.741  0.00  0.00    -0.481 OA
ATOM     31  H   UNL     1       1.087  -1.116  26.043  0.00  0.00    +0.295 HD
ENDBRANCH  29   3
ENDBRANCH  26  29
ENDBRANCH  24  26
ENDBRANCH  23  24
ENDBRANCH  21  23
ENDBRANCH  17   7
ENDBRANCH  11  17
TORSDOF 9
ENDMDL
MODEL 9
REMARK VINA RESULT:      -0.2     16.689     19.953
REMARK  Name = 40779355
REMARK  10 active torsions:
REMARK  status: ('A' for Active; 'I' for Inactive)
REMARK    1  A    between atoms: O_3  and  C_29
REMARK    2  A    between atoms: N_6  and  C_20
REMARK    3  A    between atoms: N_7  and  C_17
REMARK    4  A    between atoms: C_10  and  C_16
REMARK    5  A    between atoms: C_11  and  C_17
REMARK    6  A    between atoms: C_19  and  C_22
REMARK    7  A    between atoms: C_21  and  C_23
REMARK    8  A    between atoms: C_23  and  C_24
REMARK    9  A    between atoms: C_24  and  C_26
REMARK   10  A    between atoms: C_26  and  C_29
REMARK                            x       y       z     vdW  Elec       q    Type
REMARK                         _______ _______ _______ _____ _____    ______ ____
ROOT
ATOM      5  N   UNL     1      -4.296   2.211  23.381  0.00  0.00    -0.297 NA
ATOM      9  C   UNL     1      -3.178   4.209  24.622  0.00  0.00    +0.002 C 
ATOM     10  C   UNL     1      -2.102   3.196  24.145  0.00  0.00    +0.055 C 
ATOM     11  C   UNL     1      -4.973   2.443  24.684  0.00  0.00    +0.074 C 
ATOM     12  C   UNL     1      -4.198   3.482  25.523  0.00  0.00    +0.024 C 
ATOM     13  C   UNL     1      -3.937   4.679  23.364  0.00  0.00    +0.019 C 
ATOM     14  C   UNL     1      -2.852   1.947  23.599  0.00  0.00    +0.094 C 
ATOM     15  C   UNL     1      -4.423   3.450  22.576  0.00  0.00    +0.085 C 
ENDROOT
BRANCH  10  16
ATOM      6  N   UNL     1       0.093   2.073  24.745  0.00  0.00    -0.270 N 
ATOM      8  N   UNL     1       0.966   1.854  25.743  0.00  0.00    -0.171 NA
ATOM     16  C   UNL     1      -0.986   2.823  25.109  0.00  0.00    +0.044 A 
ATOM     18  C   UNL     1      -0.807   3.116  26.440  0.00  0.00    +0.053 A 
ATOM     19  C   UNL     1       0.410   2.494  26.776  0.00  0.00    +0.100 A 
ATOM     20  C   UNL     1       0.365   1.519  23.438  0.00  0.00    +0.172 C 
BRANCH  19  22
ATOM      1  S   UNL     1       2.721   2.776  28.351  0.00  0.00    -0.095 S 
ATOM     22  C   UNL     1       1.045   2.518  28.106  0.00  0.00    +0.039 A 
ATOM     25  C   UNL     1       0.371   2.336  29.293  0.00  0.00    +0.018 A 
ATOM     27  C   UNL     1       1.240   2.411  30.420  0.00  0.00    +0.008 A 
ATOM     28  C   UNL     1       2.546   2.646  30.050  0.00  0.00    +0.046 A 
ENDBRANCH  19  22
ENDBRANCH  10  16
BRANCH  11  17
ATOM     17  C   UNL     1      -5.206   1.143  25.460  0.00  0.00    +0.123 C 
BRANCH  17   7
ATOM      2  O   UNL     1      -3.680  -1.119  26.348  0.00  0.00    -0.276 OA
ATOM      7  N   UNL     1      -4.831   0.008  24.675  0.00  0.00    -0.314 N 
ATOM     21  C   UNL     1      -4.084  -1.052  25.191  0.00  0.00    +0.213 C 
ATOM     30  H   UNL     1      -5.065   0.018  23.687  0.00  0.00    +0.149 HD
BRANCH  21  23
ATOM     23  C   UNL     1      -3.798  -2.113  24.142  0.00  0.00    +0.096 C 
BRANCH  23  24
ATOM     24  C   UNL     1      -2.415  -2.747  24.270  0.00  0.00    +0.020 C 
BRANCH  24  26
ATOM     26  C   UNL     1      -1.289  -1.719  24.149  0.00  0.00    +0.121 C 
BRANCH  26  29
ATOM      4  O   UNL     1       0.467  -2.405  25.690  0.00  0.00    -0.251 OA
ATOM     29  C   UNL     1      -0.452  -1.650  25.406  0.00  0.00    +0.305 C 
BRANCH  29   3
ATOM      3  O   UNL     1      -0.846  -0.627  26.209  0.00  0.00    -0.481 OA
ATOM     31  H   UNL     1      -0.587  -0.774  27.143  0.00  0.00    +0.295 HD
ENDBRANCH  29   3
ENDBRANCH  26  29
ENDBRANCH  24  26
ENDBRANCH  23  24
ENDBRANCH  21  23
ENDBRANCH  17   7
ENDBRANCH  11  17
TORSDOF 9
ENDMDL
MODEL 10
REMARK VINA RESULT:       0.0      1.641      2.061
REMARK  Name = 40779355
REMARK  10 active torsions:
REMARK  status: ('A' for Active; 'I' for Inactive)
REMARK    1  A    between atoms: O_3  and  C_29
REMARK    2  A    between atoms: N_6  and  C_20
REMARK    3  A    between atoms: N_7  and  C_17
REMARK    4  A    between atoms: C_10  and  C_16
REMARK    5  A    between atoms: C_11  and  C_17
REMARK    6  A    between atoms: C_19  and  C_22
REMARK    7  A    between atoms: C_21  and  C_23
REMARK    8  A    between atoms: C_23  and  C_24
REMARK    9  A    between atoms: C_24  and  C_26
REMARK   10  A    between atoms: C_26  and  C_29
REMARK                            x       y       z     vdW  Elec       q    Type
REMARK                         _______ _______ _______ _____ _____    ______ ____
ROOT
ATOM      5  N   UNL     1      15.903  -9.662  27.704  0.00  0.00    -0.297 NA
ATOM      9  C   UNL     1      16.366 -10.061  30.235  0.00  0.00    +0.002 C 
ATOM     10  C   UNL     1      14.974 -10.626  29.842  0.00  0.00    +0.055 C 
ATOM     11  C   UNL     1      16.347  -8.396  28.345  0.00  0.00    +0.074 C 
ATOM     12  C   UNL     1      16.427  -8.561  29.878  0.00  0.00    +0.024 C 
ATOM     13  C   UNL     1      17.405 -10.781  29.350  0.00  0.00    +0.019 C 
ATOM     14  C   UNL     1      14.686 -10.175  28.381  0.00  0.00    +0.094 C 
ATOM     15  C   UNL     1      16.984 -10.662  27.875  0.00  0.00    +0.085 C 
ENDROOT
BRANCH  10  16
ATOM      6  N   UNL     1      13.941 -10.167  32.114  0.00  0.00    -0.270 N 
ATOM      8  N   UNL     1      12.783  -9.943  32.757  0.00  0.00    -0.171 NA
ATOM     16  C   UNL     1      13.799 -10.357  30.771  0.00  0.00    +0.044 A 
ATOM     18  C   UNL     1      12.453 -10.251  30.517  0.00  0.00    +0.053 A 
ATOM     19  C   UNL     1      11.877  -9.996  31.776  0.00  0.00    +0.100 A 
ATOM     20  C   UNL     1      15.174 -10.183  32.868  0.00  0.00    +0.172 C 
BRANCH  19  22
ATOM      1  S   UNL     1       9.799  -8.420  32.823  0.00  0.00    -0.095 S 
ATOM     22  C   UNL     1      10.440  -9.801  32.037  0.00  0.00    +0.039 A 
ATOM     25  C   UNL     1       9.456 -10.697  31.681  0.00  0.00    +0.018 A 
ATOM     27  C   UNL     1       8.158 -10.245  32.059  0.00  0.00    +0.008 A 
ATOM     28  C   UNL     1       8.200  -9.020  32.689  0.00  0.00    +0.046 A 
ENDBRANCH  19  22
ENDBRANCH  10  16
BRANCH  11  17
ATOM     17  C   UNL     1      15.477  -7.202  27.944  0.00  0.00    +0.123 C 
BRANCH  17   7
ATOM      2  O   UNL     1      15.917  -5.551  30.249  0.00  0.00    -0.276 OA
ATOM      7  N   UNL     1      16.228  -5.986  27.990  0.00  0.00    -0.314 N 
ATOM     21  C   UNL     1      16.391  -5.244  29.159  0.00  0.00    +0.213 C 
ATOM     30  H   UNL     1      16.594  -5.624  27.114  0.00  0.00    +0.149 HD
BRANCH  21  23
ATOM     23  C   UNL     1      17.206  -3.983  28.927  0.00  0.00    +0.096 C 
BRANCH  23  24
ATOM     24  C   UNL     1      17.381  -3.124  30.178  0.00  0.00    +0.020 C 
BRANCH  24  26
ATOM     26  C   UNL     1      16.856  -3.815  31.437  0.00  0.00    +0.121 C 
BRANCH  26  29
ATOM      4  O   UNL     1      14.649  -3.801  32.467  0.00  0.00    -0.251 OA
ATOM     29  C   UNL     1      15.561  -3.199  31.918  0.00  0.00    +0.305 C 
BRANCH  29   3
ATOM      3  O   UNL     1      15.523  -1.865  31.664  0.00  0.00    -0.481 OA
ATOM     31  H   UNL     1      15.902  -1.649  30.786  0.00  0.00    +0.295 HD
ENDBRANCH  29   3
ENDBRANCH  26  29
ENDBRANCH  24  26
ENDBRANCH  23  24
ENDBRANCH  21  23
ENDBRANCH  17   7
ENDBRANCH  11  17
TORSDOF 9
ENDMDL
