MODEL 1
REMARK VINA RESULT:      -4.1      0.000      0.000
REMARK  Name = 75537096
REMARK  5 active torsions:
REMARK  status: ('A' for Active; 'I' for Inactive)
REMARK    1  A    between atoms: N_4  and  C_13
REMARK    2  A    between atoms: N_5  and  C_14
REMARK    3  A    between atoms: C_13  and  C_15
REMARK    4  A    between atoms: C_14  and  C_16
REMARK    5  A    between atoms: C_20  and  C_26
REMARK                            x       y       z     vdW  Elec       q    Type
REMARK                         _______ _______ _______ _____ _____    ______ ____
ROOT
ATOM      2  O   UNL     1      16.049  -7.815  25.087  0.00  0.00    -0.252 OA
ATOM      3  N   UNL     1      16.512  -7.217  27.311  0.00  0.00    -0.278 N 
ATOM      4  N   UNL     1      16.113  -6.866  30.073  0.00  0.00    -0.293 NA
ATOM      5  N   UNL     1      17.089  -5.783  25.682  0.00  0.00    -0.279 N 
ATOM      7  C   UNL     1      17.224  -6.157  27.995  0.00  0.00    +0.109 C 
ATOM      8  C   UNL     1      16.444  -5.701  29.227  0.00  0.00    +0.109 C 
ATOM      9  C   UNL     1      17.405  -5.089  26.918  0.00  0.00    +0.133 C 
ATOM     10  C   UNL     1      16.011  -8.340  28.075  0.00  0.00    +0.125 C 
ATOM     11  C   UNL     1      15.289  -7.840  29.328  0.00  0.00    +0.104 C 
ATOM     12  C   UNL     1      16.497  -7.040  25.921  0.00  0.00    +0.305 C 
ENDROOT
BRANCH   4  13
ATOM     13  C   UNL     1      15.418  -6.433  31.286  0.00  0.00    +0.140 C 
BRANCH  13  15
ATOM      6  N   UNL     1      13.932  -8.247  31.918  0.00  0.00    -0.255 NA
ATOM     15  C   UNL     1      14.036  -7.013  31.378  0.00  0.00    +0.056 A 
ATOM     17  C   UNL     1      12.958  -6.274  30.919  0.00  0.00    +0.024 A 
ATOM     20  C   UNL     1      12.685  -8.765  32.000  0.00  0.00    +0.039 A 
ATOM     21  C   UNL     1      11.692  -6.839  31.020  0.00  0.00    +0.004 A 
ATOM     24  C   UNL     1      11.544  -8.107  31.570  0.00  0.00    +0.023 A 
ATOM     26  C   UNL     1      12.565 -10.127  32.595  0.00  0.00    +0.065 C 
ENDBRANCH  13  15
ENDBRANCH   4  13
BRANCH   5  14
ATOM     14  C   UNL     1      17.242  -5.154  24.389  0.00  0.00    +0.144 C 
BRANCH  14  16
ATOM      1  F   UNL     1      16.699   0.443  24.690  0.00  0.00    -0.205 F 
ATOM     16  C   UNL     1      17.098  -3.662  24.469  0.00  0.00    -0.030 A 
ATOM     18  C   UNL     1      16.662  -2.942  23.356  0.00  0.00    +0.008 A 
ATOM     19  C   UNL     1      17.399  -2.995  25.657  0.00  0.00    +0.008 A 
ATOM     22  C   UNL     1      16.527  -1.556  23.431  0.00  0.00    +0.038 A 
ATOM     23  C   UNL     1      17.265  -1.608  25.731  0.00  0.00    +0.038 A 
ATOM     25  C   UNL     1      16.829  -0.888  24.618  0.00  0.00    +0.123 A 
ENDBRANCH  14  16
ENDBRANCH   5  14
TORSDOF 4
ENDMDL
MODEL 2
REMARK VINA RESULT:      -4.1      1.956      3.089
REMARK  Name = 75537096
REMARK  5 active torsions:
REMARK  status: ('A' for Active; 'I' for Inactive)
REMARK    1  A    between atoms: N_4  and  C_13
REMARK    2  A    between atoms: N_5  and  C_14
REMARK    3  A    between atoms: C_13  and  C_15
REMARK    4  A    between atoms: C_14  and  C_16
REMARK    5  A    between atoms: C_20  and  C_26
REMARK                            x       y       z     vdW  Elec       q    Type
REMARK                         _______ _______ _______ _____ _____    ______ ____
ROOT
ATOM      2  O   UNL     1      14.812  -9.854  25.350  0.00  0.00    -0.252 OA
ATOM      3  N   UNL     1      15.441  -9.941  27.612  0.00  0.00    -0.278 N 
ATOM      4  N   UNL     1      15.200  -9.808  30.411  0.00  0.00    -0.293 NA
ATOM      5  N   UNL     1      16.801  -8.885  26.169  0.00  0.00    -0.279 N 
ATOM      7  C   UNL     1      16.602  -9.583  28.401  0.00  0.00    +0.109 C 
ATOM      8  C   UNL     1      16.172  -8.938  29.718  0.00  0.00    +0.109 C 
ATOM      9  C   UNL     1      17.405  -8.674  27.473  0.00  0.00    +0.133 C 
ATOM     10  C   UNL     1      14.357 -10.668  28.237  0.00  0.00    +0.125 C 
ATOM     11  C   UNL     1      13.999 -10.024  29.578  0.00  0.00    +0.104 C 
ATOM     12  C   UNL     1      15.588  -9.596  26.261  0.00  0.00    +0.305 C 
ENDROOT
BRANCH   4  13
ATOM     13  C   UNL     1      14.827  -9.228  31.702  0.00  0.00    +0.140 C 
BRANCH  13  15
ATOM      6  N   UNL     1      14.763  -6.803  31.590  0.00  0.00    -0.255 NA
ATOM     15  C   UNL     1      14.053  -7.952  31.541  0.00  0.00    +0.056 A 
ATOM     17  C   UNL     1      12.682  -8.009  31.354  0.00  0.00    +0.024 A 
ATOM     20  C   UNL     1      14.061  -5.656  31.443  0.00  0.00    +0.039 A 
ATOM     21  C   UNL     1      11.994  -6.809  31.208  0.00  0.00    +0.004 A 
ATOM     24  C   UNL     1      12.691  -5.606  31.251  0.00  0.00    +0.023 A 
ATOM     26  C   UNL     1      14.841  -4.385  31.495  0.00  0.00    +0.065 C 
ENDBRANCH  13  15
ENDBRANCH   4  13
BRANCH   5  14
ATOM     14  C   UNL     1      17.339  -8.285  24.969  0.00  0.00    +0.144 C 
BRANCH  14  16
ATOM      1  F   UNL     1      16.845  -2.676  25.009  0.00  0.00    -0.205 F 
ATOM     16  C   UNL     1      17.208  -6.789  24.980  0.00  0.00    -0.030 A 
ATOM     18  C   UNL     1      17.367  -6.066  23.797  0.00  0.00    +0.008 A 
ATOM     19  C   UNL     1      16.926  -6.123  26.172  0.00  0.00    +0.008 A 
ATOM     22  C   UNL     1      17.244  -4.677  23.807  0.00  0.00    +0.038 A 
ATOM     23  C   UNL     1      16.803  -4.733  26.182  0.00  0.00    +0.038 A 
ATOM     25  C   UNL     1      16.963  -4.010  25.000  0.00  0.00    +0.123 A 
ENDBRANCH  14  16
ENDBRANCH   5  14
TORSDOF 4
ENDMDL
MODEL 3
REMARK VINA RESULT:      -3.7      1.567      2.194
REMARK  Name = 75537096
REMARK  5 active torsions:
REMARK  status: ('A' for Active; 'I' for Inactive)
REMARK    1  A    between atoms: N_4  and  C_13
REMARK    2  A    between atoms: N_5  and  C_14
REMARK    3  A    between atoms: C_13  and  C_15
REMARK    4  A    between atoms: C_14  and  C_16
REMARK    5  A    between atoms: C_20  and  C_26
REMARK                            x       y       z     vdW  Elec       q    Type
REMARK                         _______ _______ _______ _____ _____    ______ ____
ROOT
ATOM      2  O   UNL     1      17.043  -8.541  25.111  0.00  0.00    -0.252 OA
ATOM      3  N   UNL     1      16.998  -7.911  27.373  0.00  0.00    -0.278 N 
ATOM      4  N   UNL     1      16.246  -7.909  30.083  0.00  0.00    -0.293 NA
ATOM      5  N   UNL     1      17.017  -6.290  25.818  0.00  0.00    -0.279 N 
ATOM      7  C   UNL     1      17.103  -6.680  28.131  0.00  0.00    +0.109 C 
ATOM      8  C   UNL     1      16.098  -6.677  29.282  0.00  0.00    +0.109 C 
ATOM      9  C   UNL     1      16.884  -5.590  27.084  0.00  0.00    +0.133 C 
ATOM     10  C   UNL     1      16.983  -9.176  28.077  0.00  0.00    +0.125 C 
ATOM     11  C   UNL     1      16.009  -9.108  29.255  0.00  0.00    +0.104 C 
ATOM     12  C   UNL     1      17.026  -7.689  25.990  0.00  0.00    +0.305 C 
ENDROOT
BRANCH   4  13
ATOM     13  C   UNL     1      15.329  -7.887  31.224  0.00  0.00    +0.140 C 
BRANCH  13  15
ATOM      6  N   UNL     1      13.651  -6.217  31.762  0.00  0.00    -0.255 NA
ATOM     15  C   UNL     1      14.968  -6.487  31.627  0.00  0.00    +0.056 A 
ATOM     17  C   UNL     1      15.975  -5.560  31.838  0.00  0.00    +0.024 A 
ATOM     20  C   UNL     1      13.330  -4.955  32.127  0.00  0.00    +0.039 A 
ATOM     21  C   UNL     1      15.607  -4.273  32.212  0.00  0.00    +0.004 A 
ATOM     24  C   UNL     1      14.261  -3.956  32.362  0.00  0.00    +0.023 A 
ATOM     26  C   UNL     1      11.877  -4.652  32.278  0.00  0.00    +0.065 C 
ENDBRANCH  13  15
ENDBRANCH   4  13
BRANCH   5  14
ATOM     14  C   UNL     1      16.986  -5.595  24.550  0.00  0.00    +0.144 C 
BRANCH  14  16
ATOM      1  F   UNL     1      16.686  -0.012  25.214  0.00  0.00    -0.205 F 
ATOM     16  C   UNL     1      16.907  -4.106  24.727  0.00  0.00    -0.030 A 
ATOM     18  C   UNL     1      16.351  -3.313  23.723  0.00  0.00    +0.008 A 
ATOM     19  C   UNL     1      17.389  -3.516  25.896  0.00  0.00    +0.008 A 
ATOM     22  C   UNL     1      16.275  -1.931  23.888  0.00  0.00    +0.038 A 
ATOM     23  C   UNL     1      17.314  -2.133  26.060  0.00  0.00    +0.038 A 
ATOM     25  C   UNL     1      16.758  -1.340  25.056  0.00  0.00    +0.123 A 
ENDBRANCH  14  16
ENDBRANCH   5  14
TORSDOF 4
ENDMDL
MODEL 4
REMARK VINA RESULT:      -2.7     26.840     28.104
REMARK  Name = 75537096
REMARK  5 active torsions:
REMARK  status: ('A' for Active; 'I' for Inactive)
REMARK    1  A    between atoms: N_4  and  C_13
REMARK    2  A    between atoms: N_5  and  C_14
REMARK    3  A    between atoms: C_13  and  C_15
REMARK    4  A    between atoms: C_14  and  C_16
REMARK    5  A    between atoms: C_20  and  C_26
REMARK                            x       y       z     vdW  Elec       q    Type
REMARK                         _______ _______ _______ _____ _____    ______ ____
ROOT
ATOM      2  O   UNL     1      -8.687  -9.136  12.275  0.00  0.00    -0.252 OA
ATOM      3  N   UNL     1      -6.758 -10.184  11.440  0.00  0.00    -0.278 N 
ATOM      4  N   UNL     1      -4.027 -10.719  11.038  0.00  0.00    -0.293 NA
ATOM      5  N   UNL     1      -8.427  -9.728  10.006  0.00  0.00    -0.279 N 
ATOM      7  C   UNL     1      -6.335 -10.777  10.188  0.00  0.00    +0.109 C 
ATOM      8  C   UNL     1      -4.887 -10.397   9.882  0.00  0.00    +0.109 C 
ATOM      9  C   UNL     1      -7.361 -10.265   9.179  0.00  0.00    +0.133 C 
ATOM     10  C   UNL     1      -5.911 -10.312  12.606  0.00  0.00    +0.125 C 
ATOM     11  C   UNL     1      -4.463  -9.980  12.241  0.00  0.00    +0.104 C 
ATOM     12  C   UNL     1      -8.041  -9.624  11.358  0.00  0.00    +0.305 C 
ENDROOT
BRANCH   4  13
ATOM     13  C   UNL     1      -2.628 -10.415  10.733  0.00  0.00    +0.140 C 
BRANCH  13  15
ATOM      6  N   UNL     1      -1.062  -8.839  11.713  0.00  0.00    -0.255 NA
ATOM     15  C   UNL     1      -1.896  -9.880  11.929  0.00  0.00    +0.056 A 
ATOM     17  C   UNL     1      -2.105 -10.461  13.169  0.00  0.00    +0.024 A 
ATOM     20  C   UNL     1      -0.405  -8.359  12.794  0.00  0.00    +0.039 A 
ATOM     21  C   UNL     1      -1.412  -9.942  14.256  0.00  0.00    +0.004 A 
ATOM     24  C   UNL     1      -0.545  -8.870  14.073  0.00  0.00    +0.023 A 
ATOM     26  C   UNL     1       0.516  -7.210  12.560  0.00  0.00    +0.065 C 
ENDBRANCH  13  15
ENDBRANCH   4  13
BRANCH   5  14
ATOM     14  C   UNL     1      -9.661  -9.232   9.440  0.00  0.00    +0.144 C 
BRANCH  14  16
ATOM      1  F   UNL     1      -9.464  -3.686   8.485  0.00  0.00    -0.205 F 
ATOM     16  C   UNL     1      -9.609  -7.753   9.185  0.00  0.00    -0.030 A 
ATOM     18  C   UNL     1     -10.719  -6.957   9.466  0.00  0.00    +0.008 A 
ATOM     19  C   UNL     1      -8.449  -7.176   8.668  0.00  0.00    +0.008 A 
ATOM     22  C   UNL     1     -10.670  -5.584   9.230  0.00  0.00    +0.038 A 
ATOM     23  C   UNL     1      -8.401  -5.802   8.431  0.00  0.00    +0.038 A 
ATOM     25  C   UNL     1      -9.511  -5.005   8.712  0.00  0.00    +0.123 A 
ENDBRANCH  14  16
ENDBRANCH   5  14
TORSDOF 4
ENDMDL
MODEL 5
REMARK VINA RESULT:      -0.4     16.920     18.486
REMARK  Name = 75537096
REMARK  5 active torsions:
REMARK  status: ('A' for Active; 'I' for Inactive)
REMARK    1  A    between atoms: N_4  and  C_13
REMARK    2  A    between atoms: N_5  and  C_14
REMARK    3  A    between atoms: C_13  and  C_15
REMARK    4  A    between atoms: C_14  and  C_16
REMARK    5  A    between atoms: C_20  and  C_26
REMARK                            x       y       z     vdW  Elec       q    Type
REMARK                         _______ _______ _______ _____ _____    ______ ____
ROOT
ATOM      2  O   UNL     1       0.047  -2.479  22.651  0.00  0.00    -0.252 OA
ATOM      3  N   UNL     1      -1.220  -1.160  24.124  0.00  0.00    -0.278 N 
ATOM      4  N   UNL     1      -3.485  -0.100  25.412  0.00  0.00    -0.293 NA
ATOM      5  N   UNL     1       0.467  -0.185  23.007  0.00  0.00    -0.279 N 
ATOM      7  C   UNL     1      -1.160   0.185  24.658  0.00  0.00    +0.109 C 
ATOM      8  C   UNL     1      -2.557   0.803  24.702  0.00  0.00    +0.109 C 
ATOM      9  C   UNL     1      -0.172   0.897  23.736  0.00  0.00    +0.133 C 
ATOM     10  C   UNL     1      -2.201  -2.087  24.649  0.00  0.00    +0.125 C 
ATOM     11  C   UNL     1      -3.570  -1.408  24.732  0.00  0.00    +0.104 C 
ATOM     12  C   UNL     1      -0.202  -1.412  23.195  0.00  0.00    +0.305 C 
ENDROOT
BRANCH   4  13
ATOM     13  C   UNL     1      -4.812   0.509  25.513  0.00  0.00    +0.140 C 
BRANCH  13  15
ATOM      6  N   UNL     1      -3.508   2.558  25.494  0.00  0.00    -0.255 NA
ATOM     15  C   UNL     1      -4.743   2.009  25.498  0.00  0.00    +0.056 A 
ATOM     17  C   UNL     1      -5.918   2.743  25.489  0.00  0.00    +0.024 A 
ATOM     20  C   UNL     1      -3.451   3.910  25.480  0.00  0.00    +0.039 A 
ATOM     21  C   UNL     1      -5.819   4.129  25.475  0.00  0.00    +0.004 A 
ATOM     24  C   UNL     1      -4.566   4.731  25.469  0.00  0.00    +0.023 A 
ATOM     26  C   UNL     1      -2.090   4.521  25.475  0.00  0.00    +0.065 C 
ENDBRANCH  13  15
ENDBRANCH   4  13
BRANCH   5  14
ATOM     14  C   UNL     1       1.562   0.048  22.092  0.00  0.00    +0.144 C 
BRANCH  14  16
ATOM      1  F   UNL     1       6.569  -0.570  24.594  0.00  0.00    -0.205 F 
ATOM     16  C   UNL     1       2.897  -0.116  22.759  0.00  0.00    -0.030 A 
ATOM     18  C   UNL     1       3.228  -1.327  23.368  0.00  0.00    +0.008 A 
ATOM     19  C   UNL     1       3.806   0.942  22.771  0.00  0.00    +0.008 A 
ATOM     22  C   UNL     1       4.468  -1.481  23.987  0.00  0.00    +0.038 A 
ATOM     23  C   UNL     1       5.046   0.788  23.391  0.00  0.00    +0.038 A 
ATOM     25  C   UNL     1       5.378  -0.422  23.999  0.00  0.00    +0.123 A 
ENDBRANCH  14  16
ENDBRANCH   5  14
TORSDOF 4
ENDMDL
