MODEL 1
REMARK VINA RESULT:      15.6      0.000      0.000
REMARK  Name = 11882854
REMARK  12 active torsions:
REMARK  status: ('A' for Active; 'I' for Inactive)
REMARK    1  A    between atoms: O_2  and  C_16
REMARK    2  A    between atoms: O_3  and  C_21
REMARK    3  A    between atoms: O_7  and  C_38
REMARK    4  A    between atoms: O_7  and  C_39
REMARK    5  A    between atoms: N_9  and  C_27
REMARK    6  A    between atoms: C_11  and  C_19
REMARK    7  A    between atoms: C_13  and  C_21
REMARK    8  A    between atoms: C_13  and  C_22
REMARK    9  A    between atoms: C_14  and  C_24
REMARK   10  A    between atoms: C_24  and  C_25
REMARK   11  A    between atoms: C_27  and  C_29
REMARK   12  A    between atoms: C_28  and  C_30
REMARK                            x       y       z     vdW  Elec       q    Type
REMARK                         _______ _______ _______ _____ _____    ______ ____
ROOT
ATOM      1  S   UNL     1       0.611   2.182  25.807  0.00  0.00    -0.057 S 
ATOM      5  O   UNL     1       2.261   0.428  21.823  0.00  0.00    -0.270 OA
ATOM      8  N   UNL     1       0.006   1.550  23.373  0.00  0.00    -0.229 NA
ATOM     10  N   UNL     1       2.280   1.155  24.065  0.00  0.00    -0.261 N 
ATOM     11  C   UNL     1      -3.665   2.389  24.207  0.00  0.00    -0.019 C 
ATOM     12  C   UNL     1      -3.252   3.501  25.268  0.00  0.00    +0.011 C 
ATOM     13  C   UNL     1      -4.418   4.174  26.092  0.00  0.00    +0.021 C 
ATOM     14  C   UNL     1      -2.434   2.176  23.212  0.00  0.00    +0.054 C 
ATOM     15  C   UNL     1      -4.879   2.889  23.382  0.00  0.00    +0.010 C 
ATOM     16  C   UNL     1      -5.566   4.571  25.123  0.00  0.00    +0.123 C 
ATOM     17  C   UNL     1      -2.053   3.034  26.145  0.00  0.00    +0.049 C 
ATOM     18  C   UNL     1      -6.025   3.421  24.232  0.00  0.00    +0.032 C 
ATOM     19  C   UNL     1      -4.034   1.037  24.865  0.00  0.00    +0.012 C 
ATOM     20  C   UNL     1      -1.138   2.047  23.971  0.00  0.00    +0.058 A 
ATOM     22  C   UNL     1      -3.888   5.483  26.744  0.00  0.00    +0.016 C 
ATOM     23  C   UNL     1      -0.985   2.455  25.281  0.00  0.00    +0.015 A 
ATOM     26  C   UNL     1       0.987   1.568  24.248  0.00  0.00    +0.165 A 
ATOM     28  C   UNL     1       2.833   0.620  22.890  0.00  0.00    +0.250 C 
ATOM     43  H   UNL     1       2.871   1.304  24.876  0.00  0.00    +0.157 HD
ENDROOT
BRANCH  28  30
ATOM     30  C   UNL     1       4.279   0.283  22.963  0.00  0.00    +0.037 A 
ATOM     32  C   UNL     1       4.993   0.524  24.136  0.00  0.00    +0.016 A 
ATOM     33  C   UNL     1       4.921  -0.276  21.858  0.00  0.00    +0.016 A 
ATOM     36  C   UNL     1       6.349   0.207  24.205  0.00  0.00    +0.046 A 
ATOM     37  C   UNL     1       6.278  -0.593  21.926  0.00  0.00    +0.046 A 
ATOM     38  C   UNL     1       6.993  -0.351  23.100  0.00  0.00    +0.120 A 
BRANCH  38   7
ATOM      7  O   UNL     1       8.315  -0.663  23.167  0.00  0.00    -0.495 OA
ATOM     39  C   UNL     1       9.237   0.425  23.214  0.00  0.00    +0.277 C 
ENDBRANCH  38   7
ENDBRANCH  28  30
BRANCH  16   2
ATOM      2  O   UNL     1      -6.691   5.063  25.851  0.00  0.00    -0.391 OA
ATOM     40  H   UNL     1      -7.169   4.296  26.209  0.00  0.00    +0.210 HD
ENDBRANCH  16   2
BRANCH  13  21
ATOM     21  C   UNL     1      -4.953   3.316  27.260  0.00  0.00    +0.165 C 
BRANCH  21   3
ATOM      3  O   UNL     1      -6.082   2.610  26.795  0.00  0.00    -0.394 OA
ATOM     41  H   UNL     1      -6.846   2.908  27.317  0.00  0.00    +0.209 HD
ENDBRANCH  21   3
ENDBRANCH  13  21
BRANCH  14  24
ATOM     24  C   UNL     1      -2.614   1.028  22.210  0.00  0.00    +0.106 C 
BRANCH  24  25
ATOM      4  O   UNL     1      -3.874  -0.838  23.100  0.00  0.00    -0.276 OA
ATOM      9  N   UNL     1      -1.556  -0.832  23.274  0.00  0.00    -0.308 N 
ATOM     25  C   UNL     1      -2.784  -0.306  22.901  0.00  0.00    +0.214 C 
ATOM     42  H   UNL     1      -0.707  -0.319  23.050  0.00  0.00    +0.149 HD
BRANCH   9  27
ATOM     27  C   UNL     1      -1.413  -2.097  23.958  0.00  0.00    +0.178 C 
BRANCH  27  29
ATOM      6  O   UNL     1      -1.551  -1.141  26.186  0.00  0.00    -0.466 OA
ATOM     29  C   UNL     1      -2.083  -2.021  25.296  0.00  0.00    +0.122 A 
ATOM     31  C   UNL     1      -3.163  -2.672  25.847  0.00  0.00    +0.046 A 
ATOM     34  C   UNL     1      -3.303  -2.159  27.159  0.00  0.00    +0.041 A 
ATOM     35  C   UNL     1      -2.300  -1.232  27.316  0.00  0.00    +0.195 A 
ENDBRANCH  27  29
ENDBRANCH   9  27
ENDBRANCH  24  25
ENDBRANCH  14  24
TORSDOF 9
ENDMDL
MODEL 2
REMARK VINA RESULT:      18.9      2.576      3.915
REMARK  Name = 11882854
REMARK  12 active torsions:
REMARK  status: ('A' for Active; 'I' for Inactive)
REMARK    1  A    between atoms: O_2  and  C_16
REMARK    2  A    between atoms: O_3  and  C_21
REMARK    3  A    between atoms: O_7  and  C_38
REMARK    4  A    between atoms: O_7  and  C_39
REMARK    5  A    between atoms: N_9  and  C_27
REMARK    6  A    between atoms: C_11  and  C_19
REMARK    7  A    between atoms: C_13  and  C_21
REMARK    8  A    between atoms: C_13  and  C_22
REMARK    9  A    between atoms: C_14  and  C_24
REMARK   10  A    between atoms: C_24  and  C_25
REMARK   11  A    between atoms: C_27  and  C_29
REMARK   12  A    between atoms: C_28  and  C_30
REMARK                            x       y       z     vdW  Elec       q    Type
REMARK                         _______ _______ _______ _____ _____    ______ ____
ROOT
ATOM      1  S   UNL     1      -0.565  -0.682  23.897  0.00  0.00    -0.057 S 
ATOM      5  O   UNL     1       2.962   2.353  23.756  0.00  0.00    -0.270 OA
ATOM      8  N   UNL     1       0.096   1.796  24.227  0.00  0.00    -0.229 NA
ATOM     10  N   UNL     1       1.855   0.279  23.590  0.00  0.00    -0.261 N 
ATOM     11  C   UNL     1      -3.647   2.593  24.711  0.00  0.00    -0.019 C 
ATOM     12  C   UNL     1      -3.949   1.163  25.342  0.00  0.00    +0.011 C 
ATOM     13  C   UNL     1      -5.458   0.827  25.662  0.00  0.00    +0.021 C 
ATOM     14  C   UNL     1      -2.085   2.885  24.880  0.00  0.00    +0.054 C 
ATOM     15  C   UNL     1      -4.434   3.679  25.489  0.00  0.00    +0.010 C 
ATOM     16  C   UNL     1      -6.105   2.033  26.400  0.00  0.00    +0.123 C 
ATOM     17  C   UNL     1      -3.205   0.032  24.574  0.00  0.00    +0.049 C 
ATOM     18  C   UNL     1      -5.911   3.358  25.670  0.00  0.00    +0.032 C 
ATOM     19  C   UNL     1      -4.027   2.682  23.213  0.00  0.00    +0.012 C 
ATOM     20  C   UNL     1      -1.262   1.691  24.469  0.00  0.00    +0.058 A 
ATOM     22  C   UNL     1      -5.511  -0.390  26.630  0.00  0.00    +0.016 C 
ATOM     23  C   UNL     1      -1.781   0.418  24.356  0.00  0.00    +0.015 A 
ATOM     26  C   UNL     1       0.566   0.610  23.910  0.00  0.00    +0.165 A 
ATOM     28  C   UNL     1       2.957   1.148  23.532  0.00  0.00    +0.250 C 
ATOM     43  H   UNL     1       1.988  -0.713  23.420  0.00  0.00    +0.157 HD
ENDROOT
BRANCH  28  30
ATOM     30  C   UNL     1       4.254   0.510  23.184  0.00  0.00    +0.037 A 
ATOM     32  C   UNL     1       4.486   0.065  21.884  0.00  0.00    +0.016 A 
ATOM     33  C   UNL     1       5.240   0.358  24.159  0.00  0.00    +0.016 A 
ATOM     36  C   UNL     1       5.703  -0.533  21.557  0.00  0.00    +0.046 A 
ATOM     37  C   UNL     1       6.457  -0.241  23.834  0.00  0.00    +0.046 A 
ATOM     38  C   UNL     1       6.689  -0.686  22.533  0.00  0.00    +0.120 A 
BRANCH  38   7
ATOM      7  O   UNL     1       7.877  -1.268  22.214  0.00  0.00    -0.495 OA
ATOM     39  C   UNL     1       9.061  -0.632  22.694  0.00  0.00    +0.277 C 
ENDBRANCH  38   7
ENDBRANCH  28  30
BRANCH  16   2
ATOM      2  O   UNL     1      -7.503   1.814  26.588  0.00  0.00    -0.391 OA
ATOM     40  H   UNL     1      -7.969   2.619  26.304  0.00  0.00    +0.210 HD
ENDBRANCH  16   2
BRANCH  13  21
ATOM     21  C   UNL     1      -6.297   0.417  24.432  0.00  0.00    +0.165 C 
BRANCH  21   3
ATOM      3  O   UNL     1      -7.223   1.450  24.178  0.00  0.00    -0.394 OA
ATOM     41  H   UNL     1      -6.719   2.277  24.095  0.00  0.00    +0.209 HD
ENDBRANCH  21   3
ENDBRANCH  13  21
BRANCH  14  24
ATOM     24  C   UNL     1      -1.598   4.167  24.192  0.00  0.00    +0.106 C 
BRANCH  24  25
ATOM      4  O   UNL     1       0.100   5.841  24.609  0.00  0.00    -0.276 OA
ATOM      9  N   UNL     1       0.195   3.807  25.730  0.00  0.00    -0.308 N 
ATOM     25  C   UNL     1      -0.353   4.724  24.845  0.00  0.00    +0.214 C 
ATOM     42  H   UNL     1      -0.266   2.911  25.866  0.00  0.00    +0.149 HD
BRANCH   9  27
ATOM     27  C   UNL     1       1.393   4.068  26.495  0.00  0.00    +0.178 C 
BRANCH  27  29
ATOM      6  O   UNL     1       2.564   3.126  28.403  0.00  0.00    -0.466 OA
ATOM     29  C   UNL     1       1.381   3.237  27.742  0.00  0.00    +0.122 A 
ATOM     31  C   UNL     1       0.395   2.533  28.395  0.00  0.00    +0.046 A 
ATOM     34  C   UNL     1       1.012   1.952  29.528  0.00  0.00    +0.041 A 
ATOM     35  C   UNL     1       2.331   2.342  29.488  0.00  0.00    +0.195 A 
ENDBRANCH  27  29
ENDBRANCH   9  27
ENDBRANCH  24  25
ENDBRANCH  14  24
TORSDOF 9
ENDMDL
