MODEL 1
REMARK VINA RESULT:       1.5      0.000      0.000
REMARK  Name = 51136661
REMARK  7 active torsions:
REMARK  status: ('A' for Active; 'I' for Inactive)
REMARK    1  A    between atoms: O_2  and  C_18
REMARK    2  A    between atoms: O_5  and  C_30
REMARK    3  A    between atoms: O_5  and  C_31
REMARK    4  A    between atoms: C_9  and  C_14
REMARK    5  A    between atoms: C_10  and  C_15
REMARK    6  A    between atoms: C_14  and  C_16
REMARK    7  A    between atoms: C_15  and  C_18
REMARK                            x       y       z     vdW  Elec       q    Type
REMARK                         _______ _______ _______ _____ _____    ______ ____
ROOT
ATOM      1  O   UNL     1       0.082   2.961  26.164  0.00  0.00    -0.252 OA
ATOM      3  O   UNL     1      -3.919   5.141  25.367  0.00  0.00    -0.377 OA
ATOM      6  N   UNL     1      -0.054   2.314  23.956  0.00  0.00    -0.285 N 
ATOM      7  N   UNL     1      -1.972   3.119  25.135  0.00  0.00    -0.281 N 
ATOM      9  C   UNL     1       0.099  -0.052  23.205  0.00  0.00    +0.016 C 
ATOM     10  C   UNL     1       1.599   0.187  22.889  0.00  0.00    +0.006 C 
ATOM     11  C   UNL     1       2.187   1.308  23.762  0.00  0.00    +0.023 C 
ATOM     12  C   UNL     1      -0.680   1.277  23.123  0.00  0.00    +0.113 C 
ATOM     13  C   UNL     1       1.350   2.577  23.649  0.00  0.00    +0.109 C 
ATOM     17  C   UNL     1      -0.607   2.807  25.148  0.00  0.00    +0.305 C 
ATOM     20  C   UNL     1      -2.688   3.330  26.392  0.00  0.00    +0.137 C 
ATOM     21  C   UNL     1      -2.711   3.574  23.950  0.00  0.00    +0.137 C 
ATOM     25  C   UNL     1      -3.127   4.783  26.504  0.00  0.00    +0.179 C 
ATOM     26  C   UNL     1      -3.169   5.016  24.154  0.00  0.00    +0.179 C 
ENDROOT
BRANCH   9  14
ATOM     14  C   UNL     1      -0.148  -0.734  24.557  0.00  0.00    +0.061 C 
BRANCH  14  16
ATOM      8  N   UNL     1      -1.385  -2.775  24.288  0.00  0.00    -0.287 NA
ATOM     16  C   UNL     1      -1.446  -1.504  24.512  0.00  0.00    +0.044 C 
ATOM     19  C   UNL     1      -2.721  -0.770  24.717  0.00  0.00    -0.001 A 
ATOM     22  C   UNL     1      -3.892  -1.410  24.293  0.00  0.00    -0.033 A 
ATOM     23  C   UNL     1      -3.785  -2.764  23.658  0.00  0.00    +0.059 C 
ATOM     24  C   UNL     1      -2.640  -3.533  24.304  0.00  0.00    +0.146 C 
ATOM     27  C   UNL     1      -2.776   0.502  25.289  0.00  0.00    +0.013 A 
ATOM     28  C   UNL     1      -5.121  -0.756  24.422  0.00  0.00    +0.050 A 
ATOM     29  C   UNL     1      -4.008   1.141  25.428  0.00  0.00    +0.046 A 
ATOM     30  C   UNL     1      -5.178   0.516  24.994  0.00  0.00    +0.120 A 
BRANCH  30   5
ATOM      5  O   UNL     1      -6.376   1.149  25.124  0.00  0.00    -0.495 OA
ATOM     31  C   UNL     1      -6.353   2.485  25.626  0.00  0.00    +0.277 C 
ENDBRANCH  30   5
ENDBRANCH  14  16
ENDBRANCH   9  14
BRANCH  10  15
ATOM     15  C   UNL     1       2.445  -1.081  22.998  0.00  0.00    +0.124 C 
BRANCH  15  18
ATOM      4  O   UNL     1       4.533   0.154  22.761  0.00  0.00    -0.251 OA
ATOM     18  C   UNL     1       3.893  -0.763  23.253  0.00  0.00    +0.305 C 
BRANCH  18   2
ATOM      2  O   UNL     1       4.411  -1.659  24.132  0.00  0.00    -0.481 OA
ATOM     32  H   UNL     1       5.283  -1.997  23.837  0.00  0.00    +0.295 HD
ENDBRANCH  18   2
ENDBRANCH  15  18
ENDBRANCH  10  15
TORSDOF 6
ENDMDL
MODEL 2
REMARK VINA RESULT:       2.9      1.817      4.310
REMARK  Name = 51136661
REMARK  7 active torsions:
REMARK  status: ('A' for Active; 'I' for Inactive)
REMARK    1  A    between atoms: O_2  and  C_18
REMARK    2  A    between atoms: O_5  and  C_30
REMARK    3  A    between atoms: O_5  and  C_31
REMARK    4  A    between atoms: C_9  and  C_14
REMARK    5  A    between atoms: C_10  and  C_15
REMARK    6  A    between atoms: C_14  and  C_16
REMARK    7  A    between atoms: C_15  and  C_18
REMARK                            x       y       z     vdW  Elec       q    Type
REMARK                         _______ _______ _______ _____ _____    ______ ____
ROOT
ATOM      1  O   UNL     1      -1.961   0.725  22.028  0.00  0.00    -0.252 OA
ATOM      3  O   UNL     1      -4.956  -0.940  25.134  0.00  0.00    -0.377 OA
ATOM      6  N   UNL     1      -0.369  -0.421  23.236  0.00  0.00    -0.285 N 
ATOM      7  N   UNL     1      -2.514   0.076  24.167  0.00  0.00    -0.281 N 
ATOM      9  C   UNL     1       1.700   0.631  24.130  0.00  0.00    +0.016 C 
ATOM     10  C   UNL     1       2.463   0.091  22.893  0.00  0.00    +0.006 C 
ATOM     11  C   UNL     1       1.523  -0.099  21.690  0.00  0.00    +0.023 C 
ATOM     12  C   UNL     1       0.474  -0.257  24.430  0.00  0.00    +0.113 C 
ATOM     13  C   UNL     1       0.325  -0.963  22.070  0.00  0.00    +0.109 C 
ATOM     17  C   UNL     1      -1.635   0.162  23.080  0.00  0.00    +0.305 C 
ATOM     20  C   UNL     1      -3.711   0.915  24.211  0.00  0.00    +0.137 C 
ATOM     21  C   UNL     1      -2.524  -1.020  25.144  0.00  0.00    +0.137 C 
ATOM     25  C   UNL     1      -4.958   0.050  24.100  0.00  0.00    +0.179 C 
ATOM     26  C   UNL     1      -3.825  -1.809  25.016  0.00  0.00    +0.179 C 
ENDROOT
BRANCH   9  14
ATOM     14  C   UNL     1       1.277   2.101  24.004  0.00  0.00    +0.061 C 
BRANCH  14  16
ATOM      8  N   UNL     1       1.174   2.386  26.387  0.00  0.00    -0.287 NA
ATOM     16  C   UNL     1       0.561   2.537  25.260  0.00  0.00    +0.044 C 
ATOM     19  C   UNL     1      -0.806   3.107  25.142  0.00  0.00    -0.001 A 
ATOM     22  C   UNL     1      -1.579   3.136  26.309  0.00  0.00    -0.033 A 
ATOM     23  C   UNL     1      -0.993   2.587  27.576  0.00  0.00    +0.059 C 
ATOM     24  C   UNL     1       0.504   2.864  27.599  0.00  0.00    +0.146 C 
ATOM     27  C   UNL     1      -1.324   3.583  23.936  0.00  0.00    +0.013 A 
ATOM     28  C   UNL     1      -2.888   3.624  26.257  0.00  0.00    +0.050 A 
ATOM     29  C   UNL     1      -2.626   4.083  23.898  0.00  0.00    +0.046 A 
ATOM     30  C   UNL     1      -3.408   4.101  25.053  0.00  0.00    +0.120 A 
BRANCH  30   5
ATOM      5  O   UNL     1      -4.680   4.581  25.005  0.00  0.00    -0.495 OA
ATOM     31  C   UNL     1      -5.707   3.757  25.558  0.00  0.00    +0.277 C 
ENDBRANCH  30   5
ENDBRANCH  14  16
ENDBRANCH   9  14
BRANCH  10  15
ATOM     15  C   UNL     1       3.666   0.949  22.506  0.00  0.00    +0.124 C 
BRANCH  15  18
ATOM      4  O   UNL     1       5.843  -0.147  22.555  0.00  0.00    -0.251 OA
ATOM     18  C   UNL     1       4.936   0.437  23.129  0.00  0.00    +0.305 C 
BRANCH  18   2
ATOM      2  O   UNL     1       4.940   0.720  24.458  0.00  0.00    -0.481 OA
ATOM     32  H   UNL     1       5.851   0.752  24.821  0.00  0.00    +0.295 HD
ENDBRANCH  18   2
ENDBRANCH  15  18
ENDBRANCH  10  15
TORSDOF 6
ENDMDL
MODEL 3
REMARK VINA RESULT:       3.3      1.925      5.807
REMARK  Name = 51136661
REMARK  7 active torsions:
REMARK  status: ('A' for Active; 'I' for Inactive)
REMARK    1  A    between atoms: O_2  and  C_18
REMARK    2  A    between atoms: O_5  and  C_30
REMARK    3  A    between atoms: O_5  and  C_31
REMARK    4  A    between atoms: C_9  and  C_14
REMARK    5  A    between atoms: C_10  and  C_15
REMARK    6  A    between atoms: C_14  and  C_16
REMARK    7  A    between atoms: C_15  and  C_18
REMARK                            x       y       z     vdW  Elec       q    Type
REMARK                         _______ _______ _______ _____ _____    ______ ____
ROOT
ATOM      1  O   UNL     1      -1.126   1.983  22.138  0.00  0.00    -0.252 OA
ATOM      3  O   UNL     1       2.881  -0.326  22.226  0.00  0.00    -0.377 OA
ATOM      6  N   UNL     1      -0.430   2.881  24.142  0.00  0.00    -0.285 N 
ATOM      7  N   UNL     1       0.561   0.892  23.261  0.00  0.00    -0.281 N 
ATOM      9  C   UNL     1      -1.797   2.829  26.221  0.00  0.00    +0.016 C 
ATOM     10  C   UNL     1      -2.262   4.275  25.903  0.00  0.00    +0.006 C 
ATOM     11  C   UNL     1      -2.212   4.564  24.394  0.00  0.00    +0.023 C 
ATOM     12  C   UNL     1      -0.420   2.560  25.577  0.00  0.00    +0.113 C 
ATOM     13  C   UNL     1      -0.832   4.250  23.827  0.00  0.00    +0.109 C 
ATOM     17  C   UNL     1      -0.377   1.921  23.121  0.00  0.00    +0.305 C 
ATOM     20  C   UNL     1       0.471  -0.304  22.424  0.00  0.00    +0.137 C 
ATOM     21  C   UNL     1       1.845   1.026  23.964  0.00  0.00    +0.137 C 
ATOM     25  C   UNL     1       1.661  -0.368  21.478  0.00  0.00    +0.179 C 
ATOM     26  C   UNL     1       2.992   0.895  22.965  0.00  0.00    +0.179 C 
ENDROOT
BRANCH   9  14
ATOM     14  C   UNL     1      -2.802   1.749  25.801  0.00  0.00    +0.061 C 
BRANCH  14  16
ATOM      8  N   UNL     1      -1.030   0.279  26.483  0.00  0.00    -0.287 NA
ATOM     16  C   UNL     1      -2.138   0.393  25.830  0.00  0.00    +0.044 C 
ATOM     19  C   UNL     1      -2.782  -0.733  25.105  0.00  0.00    -0.001 A 
ATOM     22  C   UNL     1      -1.976  -1.843  24.823  0.00  0.00    -0.033 A 
ATOM     23  C   UNL     1      -0.538  -1.818  25.251  0.00  0.00    +0.059 C 
ATOM     24  C   UNL     1      -0.417  -1.051  26.561  0.00  0.00    +0.146 C 
ATOM     27  C   UNL     1      -4.117  -0.706  24.701  0.00  0.00    +0.013 A 
ATOM     28  C   UNL     1      -2.510  -2.920  24.110  0.00  0.00    +0.050 A 
ATOM     29  C   UNL     1      -4.646  -1.792  24.002  0.00  0.00    +0.046 A 
ATOM     30  C   UNL     1      -3.845  -2.895  23.704  0.00  0.00    +0.120 A 
BRANCH  30   5
ATOM      5  O   UNL     1      -4.365  -3.947  23.015  0.00  0.00    -0.495 OA
ATOM     31  C   UNL     1      -5.775  -3.945  22.795  0.00  0.00    +0.277 C 
ENDBRANCH  30   5
ENDBRANCH  14  16
ENDBRANCH   9  14
BRANCH  10  15
ATOM     15  C   UNL     1      -3.643   4.599  26.470  0.00  0.00    +0.124 C 
BRANCH  15  18
ATOM      4  O   UNL     1      -4.852   4.031  24.431  0.00  0.00    -0.251 OA
ATOM     18  C   UNL     1      -4.740   3.981  25.646  0.00  0.00    +0.305 C 
BRANCH  18   2
ATOM      2  O   UNL     1      -5.617   3.339  26.460  0.00  0.00    -0.481 OA
ATOM     32  H   UNL     1      -5.565   2.365  26.358  0.00  0.00    +0.295 HD
ENDBRANCH  18   2
ENDBRANCH  15  18
ENDBRANCH  10  15
TORSDOF 6
ENDMDL
MODEL 4
REMARK VINA RESULT:       3.7      2.017      5.981
REMARK  Name = 51136661
REMARK  7 active torsions:
REMARK  status: ('A' for Active; 'I' for Inactive)
REMARK    1  A    between atoms: O_2  and  C_18
REMARK    2  A    between atoms: O_5  and  C_30
REMARK    3  A    between atoms: O_5  and  C_31
REMARK    4  A    between atoms: C_9  and  C_14
REMARK    5  A    between atoms: C_10  and  C_15
REMARK    6  A    between atoms: C_14  and  C_16
REMARK    7  A    between atoms: C_15  and  C_18
REMARK                            x       y       z     vdW  Elec       q    Type
REMARK                         _______ _______ _______ _____ _____    ______ ____
ROOT
ATOM      1  O   UNL     1      -3.574   3.027  22.857  0.00  0.00    -0.252 OA
ATOM      3  O   UNL     1      -2.327   6.332  25.842  0.00  0.00    -0.377 OA
ATOM      6  N   UNL     1      -4.117   1.807  24.734  0.00  0.00    -0.285 N 
ATOM      7  N   UNL     1      -2.683   3.715  24.865  0.00  0.00    -0.281 N 
ATOM      9  C   UNL     1      -3.259  -0.486  25.180  0.00  0.00    +0.016 C 
ATOM     10  C   UNL     1      -4.585  -1.051  24.609  0.00  0.00    +0.006 C 
ATOM     11  C   UNL     1      -5.223  -0.082  23.600  0.00  0.00    +0.023 C 
ATOM     12  C   UNL     1      -3.481   0.937  25.736  0.00  0.00    +0.113 C 
ATOM     13  C   UNL     1      -5.386   1.306  24.211  0.00  0.00    +0.109 C 
ATOM     17  C   UNL     1      -3.464   2.860  24.078  0.00  0.00    +0.305 C 
ATOM     20  C   UNL     1      -1.730   4.627  24.235  0.00  0.00    +0.137 C 
ATOM     21  C   UNL     1      -2.950   4.020  26.277  0.00  0.00    +0.137 C 
ATOM     25  C   UNL     1      -2.173   6.068  24.443  0.00  0.00    +0.179 C 
ATOM     26  C   UNL     1      -3.331   5.492  26.419  0.00  0.00    +0.179 C 
ENDROOT
BRANCH   9  14
ATOM     14  C   UNL     1      -2.100  -0.491  24.175  0.00  0.00    +0.061 C 
BRANCH  14  16
ATOM      8  N   UNL     1      -1.192   1.084  25.745  0.00  0.00    -0.287 NA
ATOM     16  C   UNL     1      -0.975   0.377  24.686  0.00  0.00    +0.044 C 
ATOM     19  C   UNL     1       0.315   0.384  23.949  0.00  0.00    -0.001 A 
ATOM     22  C   UNL     1       1.180   1.456  24.201  0.00  0.00    -0.033 A 
ATOM     23  C   UNL     1       0.749   2.517  25.170  0.00  0.00    +0.059 C 
ATOM     24  C   UNL     1      -0.081   1.880  26.276  0.00  0.00    +0.146 C 
ATOM     27  C   UNL     1       0.666  -0.610  23.033  0.00  0.00    +0.013 A 
ATOM     28  C   UNL     1       2.392   1.542  23.510  0.00  0.00    +0.050 A 
ATOM     29  C   UNL     1       1.885  -0.524  22.360  0.00  0.00    +0.046 A 
ATOM     30  C   UNL     1       2.745   0.550  22.595  0.00  0.00    +0.120 A 
BRANCH  30   5
ATOM      5  O   UNL     1       3.928   0.632  21.927  0.00  0.00    -0.495 OA
ATOM     31  C   UNL     1       5.111   0.322  22.663  0.00  0.00    +0.277 C 
ENDBRANCH  30   5
ENDBRANCH  14  16
ENDBRANCH   9  14
BRANCH  10  15
ATOM     15  C   UNL     1      -4.431  -2.442  23.997  0.00  0.00    +0.124 C 
BRANCH  15  18
ATOM      4  O   UNL     1      -2.223  -3.461  23.828  0.00  0.00    -0.251 OA
ATOM     18  C   UNL     1      -3.192  -3.134  24.497  0.00  0.00    +0.305 C 
BRANCH  18   2
ATOM      2  O   UNL     1      -3.297  -3.354  25.832  0.00  0.00    -0.481 OA
ATOM     32  H   UNL     1      -4.232  -3.450  26.114  0.00  0.00    +0.295 HD
ENDBRANCH  18   2
ENDBRANCH  15  18
ENDBRANCH  10  15
TORSDOF 6
ENDMDL
MODEL 5
REMARK VINA RESULT:       4.6      2.141      7.096
REMARK  Name = 51136661
REMARK  7 active torsions:
REMARK  status: ('A' for Active; 'I' for Inactive)
REMARK    1  A    between atoms: O_2  and  C_18
REMARK    2  A    between atoms: O_5  and  C_30
REMARK    3  A    between atoms: O_5  and  C_31
REMARK    4  A    between atoms: C_9  and  C_14
REMARK    5  A    between atoms: C_10  and  C_15
REMARK    6  A    between atoms: C_14  and  C_16
REMARK    7  A    between atoms: C_15  and  C_18
REMARK                            x       y       z     vdW  Elec       q    Type
REMARK                         _______ _______ _______ _____ _____    ______ ____
ROOT
ATOM      1  O   UNL     1      -0.620  -1.173  25.326  0.00  0.00    -0.252 OA
ATOM      3  O   UNL     1       2.452  -0.082  22.045  0.00  0.00    -0.377 OA
ATOM      6  N   UNL     1      -2.199  -0.421  23.825  0.00  0.00    -0.285 N 
ATOM      7  N   UNL     1       0.110   0.154  23.591  0.00  0.00    -0.281 N 
ATOM      9  C   UNL     1      -3.908   1.301  24.374  0.00  0.00    +0.016 C 
ATOM     10  C   UNL     1      -4.920   0.156  24.639  0.00  0.00    +0.006 C 
ATOM     11  C   UNL     1      -4.207  -1.140  25.060  0.00  0.00    +0.023 C 
ATOM     12  C   UNL     1      -2.824   0.834  23.380  0.00  0.00    +0.113 C 
ATOM     13  C   UNL     1      -3.134  -1.522  24.046  0.00  0.00    +0.109 C 
ATOM     17  C   UNL     1      -0.886  -0.519  24.309  0.00  0.00    +0.305 C 
ATOM     20  C   UNL     1       1.427   0.368  24.188  0.00  0.00    +0.137 C 
ATOM     21  C   UNL     1       0.068   0.400  22.143  0.00  0.00    +0.137 C 
ATOM     25  C   UNL     1       2.478  -0.432  23.433  0.00  0.00    +0.179 C 
ATOM     26  C   UNL     1       1.183  -0.387  21.458  0.00  0.00    +0.179 C 
ENDROOT
BRANCH   9  14
ATOM     14  C   UNL     1      -3.261   1.862  25.647  0.00  0.00    +0.061 C 
BRANCH  14  16
ATOM      8  N   UNL     1      -2.222   3.488  24.215  0.00  0.00    -0.287 NA
ATOM     16  C   UNL     1      -2.106   2.763  25.279  0.00  0.00    +0.044 C 
ATOM     19  C   UNL     1      -0.899   2.769  26.144  0.00  0.00    -0.001 A 
ATOM     22  C   UNL     1       0.274   3.294  25.588  0.00  0.00    -0.033 A 
ATOM     23  C   UNL     1       0.239   3.796  24.175  0.00  0.00    +0.059 C 
ATOM     24  C   UNL     1      -1.127   4.407  23.891  0.00  0.00    +0.146 C 
ATOM     27  C   UNL     1      -0.902   2.266  27.447  0.00  0.00    +0.013 A 
ATOM     28  C   UNL     1       1.454   3.292  26.336  0.00  0.00    +0.050 A 
ATOM     29  C   UNL     1       0.277   2.283  28.192  0.00  0.00    +0.046 A 
ATOM     30  C   UNL     1       1.453   2.791  27.639  0.00  0.00    +0.120 A 
BRANCH  30   5
ATOM      5  O   UNL     1       2.602   2.795  28.369  0.00  0.00    -0.495 OA
ATOM     31  C   UNL     1       2.497   2.434  29.745  0.00  0.00    +0.277 C 
ENDBRANCH  30   5
ENDBRANCH  14  16
ENDBRANCH   9  14
BRANCH  10  15
ATOM     15  C   UNL     1      -6.000   0.531  25.653  0.00  0.00    +0.124 C 
BRANCH  15  18
ATOM      4  O   UNL     1      -6.152   2.923  26.098  0.00  0.00    -0.251 OA
ATOM     18  C   UNL     1      -6.485   1.941  25.451  0.00  0.00    +0.305 C 
BRANCH  18   2
ATOM      2  O   UNL     1      -7.370   1.977  24.422  0.00  0.00    -0.481 OA
ATOM     32  H   UNL     1      -8.036   2.688  24.539  0.00  0.00    +0.295 HD
ENDBRANCH  18   2
ENDBRANCH  15  18
ENDBRANCH  10  15
TORSDOF 6
ENDMDL
MODEL 6
REMARK VINA RESULT:       4.7      1.954      4.801
REMARK  Name = 51136661
REMARK  7 active torsions:
REMARK  status: ('A' for Active; 'I' for Inactive)
REMARK    1  A    between atoms: O_2  and  C_18
REMARK    2  A    between atoms: O_5  and  C_30
REMARK    3  A    between atoms: O_5  and  C_31
REMARK    4  A    between atoms: C_9  and  C_14
REMARK    5  A    between atoms: C_10  and  C_15
REMARK    6  A    between atoms: C_14  and  C_16
REMARK    7  A    between atoms: C_15  and  C_18
REMARK                            x       y       z     vdW  Elec       q    Type
REMARK                         _______ _______ _______ _____ _____    ______ ____
ROOT
ATOM      1  O   UNL     1      -1.318  -1.616  22.355  0.00  0.00    -0.252 OA
ATOM      3  O   UNL     1      -4.563  -2.860  25.407  0.00  0.00    -0.377 OA
ATOM      6  N   UNL     1      -0.124  -0.923  24.200  0.00  0.00    -0.285 N 
ATOM      7  N   UNL     1      -2.481  -1.307  24.318  0.00  0.00    -0.281 N 
ATOM      9  C   UNL     1       0.823   1.365  24.445  0.00  0.00    +0.016 C 
ATOM     10  C   UNL     1       2.186   0.810  23.955  0.00  0.00    +0.006 C 
ATOM     11  C   UNL     1       2.002  -0.425  23.057  0.00  0.00    +0.023 C 
ATOM     12  C   UNL     1      -0.007   0.238  25.095  0.00  0.00    +0.113 C 
ATOM     13  C   UNL     1       1.151  -1.480  23.756  0.00  0.00    +0.109 C 
ATOM     17  C   UNL     1      -1.309  -1.300  23.552  0.00  0.00    +0.305 C 
ATOM     20  C   UNL     1      -3.787  -1.376  23.664  0.00  0.00    +0.137 C 
ATOM     21  C   UNL     1      -2.528  -1.574  25.762  0.00  0.00    +0.137 C 
ATOM     25  C   UNL     1      -4.463  -2.700  23.988  0.00  0.00    +0.179 C 
ATOM     26  C   UNL     1      -3.269  -2.884  26.018  0.00  0.00    +0.179 C 
ENDROOT
BRANCH   9  14
ATOM     14  C   UNL     1       0.009   2.064  23.349  0.00  0.00    +0.061 C 
BRANCH  14  16
ATOM      8  N   UNL     1      -0.226   4.289  24.221  0.00  0.00    -0.287 NA
ATOM     16  C   UNL     1      -0.818   3.173  23.954  0.00  0.00    +0.044 C 
ATOM     19  C   UNL     1      -2.259   2.927  24.219  0.00  0.00    -0.001 A 
ATOM     22  C   UNL     1      -2.893   3.799  25.113  0.00  0.00    -0.033 A 
ATOM     23  C   UNL     1      -2.088   4.895  25.744  0.00  0.00    +0.059 C 
ATOM     24  C   UNL     1      -1.042   5.386  24.752  0.00  0.00    +0.146 C 
ATOM     27  C   UNL     1      -2.967   1.877  23.631  0.00  0.00    +0.013 A 
ATOM     28  C   UNL     1      -4.238   3.598  25.435  0.00  0.00    +0.050 A 
ATOM     29  C   UNL     1      -4.313   1.694  23.947  0.00  0.00    +0.046 A 
ATOM     30  C   UNL     1      -4.948   2.550  24.849  0.00  0.00    +0.120 A 
BRANCH  30   5
ATOM      5  O   UNL     1      -6.259   2.359  25.159  0.00  0.00    -0.495 OA
ATOM     31  C   UNL     1      -6.556   1.925  26.486  0.00  0.00    +0.277 C 
ENDBRANCH  30   5
ENDBRANCH  14  16
ENDBRANCH   9  14
BRANCH  10  15
ATOM     15  C   UNL     1       3.046   1.861  23.255  0.00  0.00    +0.124 C 
BRANCH  15  18
ATOM      4  O   UNL     1       5.320   0.984  23.264  0.00  0.00    -0.251 OA
ATOM     18  C   UNL     1       4.291   1.257  22.665  0.00  0.00    +0.305 C 
BRANCH  18   2
ATOM      2  O   UNL     1       4.113   1.050  21.335  0.00  0.00    -0.481 OA
ATOM     32  H   UNL     1       4.781   0.432  20.969  0.00  0.00    +0.295 HD
ENDBRANCH  18   2
ENDBRANCH  15  18
ENDBRANCH  10  15
TORSDOF 6
ENDMDL
MODEL 7
REMARK VINA RESULT:       5.3      1.998      7.173
REMARK  Name = 51136661
REMARK  7 active torsions:
REMARK  status: ('A' for Active; 'I' for Inactive)
REMARK    1  A    between atoms: O_2  and  C_18
REMARK    2  A    between atoms: O_5  and  C_30
REMARK    3  A    between atoms: O_5  and  C_31
REMARK    4  A    between atoms: C_9  and  C_14
REMARK    5  A    between atoms: C_10  and  C_15
REMARK    6  A    between atoms: C_14  and  C_16
REMARK    7  A    between atoms: C_15  and  C_18
REMARK                            x       y       z     vdW  Elec       q    Type
REMARK                         _______ _______ _______ _____ _____    ______ ____
ROOT
ATOM      1  O   UNL     1      -0.206  -1.488  25.215  0.00  0.00    -0.252 OA
ATOM      3  O   UNL     1       2.689  -0.350  21.792  0.00  0.00    -0.377 OA
ATOM      6  N   UNL     1      -1.851  -0.628  23.849  0.00  0.00    -0.285 N 
ATOM      7  N   UNL     1       0.457  -0.111  23.493  0.00  0.00    -0.281 N 
ATOM      9  C   UNL     1      -3.466   1.120  24.575  0.00  0.00    +0.016 C 
ATOM     10  C   UNL     1      -4.495  -0.005  24.857  0.00  0.00    +0.006 C 
ATOM     11  C   UNL     1      -3.800  -1.338  25.180  0.00  0.00    +0.023 C 
ATOM     12  C   UNL     1      -2.461   0.663  23.496  0.00  0.00    +0.113 C 
ATOM     13  C   UNL     1      -2.805  -1.709  24.085  0.00  0.00    +0.109 C 
ATOM     17  C   UNL     1      -0.514  -0.784  24.245  0.00  0.00    +0.305 C 
ATOM     20  C   UNL     1       1.815   0.039  24.012  0.00  0.00    +0.137 C 
ATOM     21  C   UNL     1       0.333   0.198  22.062  0.00  0.00    +0.137 C 
ATOM     25  C   UNL     1       2.790  -0.760  23.160  0.00  0.00    +0.179 C 
ATOM     26  C   UNL     1       1.377  -0.593  21.275  0.00  0.00    +0.179 C 
ENDROOT
BRANCH   9  14
ATOM     14  C   UNL     1      -2.723   1.607  25.826  0.00  0.00    +0.061 C 
BRANCH  14  16
ATOM      8  N   UNL     1      -3.392   3.824  26.462  0.00  0.00    -0.287 NA
ATOM     16  C   UNL     1      -2.565   3.108  25.775  0.00  0.00    +0.044 C 
ATOM     19  C   UNL     1      -1.481   3.685  24.939  0.00  0.00    -0.001 A 
ATOM     22  C   UNL     1      -1.597   5.040  24.604  0.00  0.00    -0.033 A 
ATOM     23  C   UNL     1      -2.793   5.803  25.091  0.00  0.00    +0.059 C 
ATOM     24  C   UNL     1      -3.202   5.278  26.460  0.00  0.00    +0.146 C 
ATOM     27  C   UNL     1      -0.397   2.933  24.484  0.00  0.00    +0.013 A 
ATOM     28  C   UNL     1      -0.631   5.634  23.788  0.00  0.00    +0.050 A 
ATOM     29  C   UNL     1       0.571   3.539  23.682  0.00  0.00    +0.046 A 
ATOM     30  C   UNL     1       0.454   4.885  23.331  0.00  0.00    +0.120 A 
BRANCH  30   5
ATOM      5  O   UNL     1       1.397   5.466  22.541  0.00  0.00    -0.495 OA
ATOM     31  C   UNL     1       0.955   6.020  21.303  0.00  0.00    +0.277 C 
ENDBRANCH  30   5
ENDBRANCH  14  16
ENDBRANCH   9  14
BRANCH  10  15
ATOM     15  C   UNL     1      -5.497   0.358  25.952  0.00  0.00    +0.124 C 
BRANCH  15  18
ATOM      4  O   UNL     1      -6.751   1.926  24.569  0.00  0.00    -0.251 OA
ATOM     18  C   UNL     1      -6.228   1.634  25.634  0.00  0.00    +0.305 C 
BRANCH  18   2
ATOM      2  O   UNL     1      -6.230   2.444  26.724  0.00  0.00    -0.481 OA
ATOM     32  H   UNL     1      -6.586   1.989  27.517  0.00  0.00    +0.295 HD
ENDBRANCH  18   2
ENDBRANCH  15  18
ENDBRANCH  10  15
TORSDOF 6
ENDMDL
MODEL 8
REMARK VINA RESULT:       5.5      2.093      7.564
REMARK  Name = 51136661
REMARK  7 active torsions:
REMARK  status: ('A' for Active; 'I' for Inactive)
REMARK    1  A    between atoms: O_2  and  C_18
REMARK    2  A    between atoms: O_5  and  C_30
REMARK    3  A    between atoms: O_5  and  C_31
REMARK    4  A    between atoms: C_9  and  C_14
REMARK    5  A    between atoms: C_10  and  C_15
REMARK    6  A    between atoms: C_14  and  C_16
REMARK    7  A    between atoms: C_15  and  C_18
REMARK                            x       y       z     vdW  Elec       q    Type
REMARK                         _______ _______ _______ _____ _____    ______ ____
ROOT
ATOM      1  O   UNL     1      -3.601  -1.037  26.910  0.00  0.00    -0.252 OA
ATOM      3  O   UNL     1      -0.909  -3.400  23.984  0.00  0.00    -0.377 OA
ATOM      6  N   UNL     1      -4.324   0.086  25.033  0.00  0.00    -0.285 N 
ATOM      7  N   UNL     1      -2.294  -1.177  25.020  0.00  0.00    -0.281 N 
ATOM      9  C   UNL     1      -4.302   2.565  24.819  0.00  0.00    +0.016 C 
ATOM     10  C   UNL     1      -5.800   2.573  25.221  0.00  0.00    +0.006 C 
ATOM     11  C   UNL     1      -6.159   1.352  26.083  0.00  0.00    +0.023 C 
ATOM     12  C   UNL     1      -3.931   1.213  24.173  0.00  0.00    +0.113 C 
ATOM     13  C   UNL     1      -5.740   0.059  25.392  0.00  0.00    +0.109 C 
ATOM     17  C   UNL     1      -3.416  -0.728  25.726  0.00  0.00    +0.305 C 
ATOM     20  C   UNL     1      -1.157  -1.753  25.736  0.00  0.00    +0.137 C 
ATOM     21  C   UNL     1      -2.266  -1.423  23.572  0.00  0.00    +0.137 C 
ATOM     25  C   UNL     1      -1.024  -3.231  25.401  0.00  0.00    +0.179 C 
ATOM     26  C   UNL     1      -2.073  -2.915  23.309  0.00  0.00    +0.179 C 
ENDROOT
BRANCH   9  14
ATOM     14  C   UNL     1      -3.348   2.881  25.979  0.00  0.00    +0.061 C 
BRANCH  14  16
ATOM      8  N   UNL     1      -2.240   4.958  25.501  0.00  0.00    -0.287 NA
ATOM     16  C   UNL     1      -2.165   3.669  25.469  0.00  0.00    +0.044 C 
ATOM     19  C   UNL     1      -0.985   2.931  24.950  0.00  0.00    -0.001 A 
ATOM     22  C   UNL     1      -0.094   3.652  24.145  0.00  0.00    -0.033 A 
ATOM     23  C   UNL     1      -0.392   5.093  23.852  0.00  0.00    +0.059 C 
ATOM     24  C   UNL     1      -1.068   5.723  25.062  0.00  0.00    +0.146 C 
ATOM     27  C   UNL     1      -0.758   1.581  25.224  0.00  0.00    +0.013 A 
ATOM     28  C   UNL     1       1.015   3.006  23.593  0.00  0.00    +0.050 A 
ATOM     29  C   UNL     1       0.361   0.948  24.682  0.00  0.00    +0.046 A 
ATOM     30  C   UNL     1       1.244   1.657  23.866  0.00  0.00    +0.120 A 
BRANCH  30   5
ATOM      5  O   UNL     1       2.328   1.030  23.333  0.00  0.00    -0.495 OA
ATOM     31  C   UNL     1       2.077  -0.052  22.437  0.00  0.00    +0.277 C 
ENDBRANCH  30   5
ENDBRANCH  14  16
ENDBRANCH   9  14
BRANCH  10  15
ATOM     15  C   UNL     1      -6.229   3.866  25.912  0.00  0.00    +0.124 C 
BRANCH  15  18
ATOM      4  O   UNL     1      -4.999   5.150  24.243  0.00  0.00    -0.251 OA
ATOM     18  C   UNL     1      -5.874   5.078  25.094  0.00  0.00    +0.305 C 
BRANCH  18   2
ATOM      2  O   UNL     1      -6.682   6.114  25.436  0.00  0.00    -0.481 OA
ATOM     32  H   UNL     1      -7.404   6.246  24.785  0.00  0.00    +0.295 HD
ENDBRANCH  18   2
ENDBRANCH  15  18
ENDBRANCH  10  15
TORSDOF 6
ENDMDL
MODEL 9
REMARK VINA RESULT:       5.5      1.971      6.722
REMARK  Name = 51136661
REMARK  7 active torsions:
REMARK  status: ('A' for Active; 'I' for Inactive)
REMARK    1  A    between atoms: O_2  and  C_18
REMARK    2  A    between atoms: O_5  and  C_30
REMARK    3  A    between atoms: O_5  and  C_31
REMARK    4  A    between atoms: C_9  and  C_14
REMARK    5  A    between atoms: C_10  and  C_15
REMARK    6  A    between atoms: C_14  and  C_16
REMARK    7  A    between atoms: C_15  and  C_18
REMARK                            x       y       z     vdW  Elec       q    Type
REMARK                         _______ _______ _______ _____ _____    ______ ____
ROOT
ATOM      1  O   UNL     1      -4.258  -0.562  26.604  0.00  0.00    -0.252 OA
ATOM      3  O   UNL     1      -4.578  -3.910  23.429  0.00  0.00    -0.377 OA
ATOM      6  N   UNL     1      -4.124   0.868  24.802  0.00  0.00    -0.285 N 
ATOM      7  N   UNL     1      -3.722  -1.476  24.560  0.00  0.00    -0.281 N 
ATOM      9  C   UNL     1      -2.297   2.528  24.496  0.00  0.00    +0.016 C 
ATOM     10  C   UNL     1      -3.233   3.609  25.097  0.00  0.00    +0.006 C 
ATOM     11  C   UNL     1      -4.274   2.991  26.044  0.00  0.00    +0.023 C 
ATOM     12  C   UNL     1      -3.131   1.398  23.856  0.00  0.00    +0.113 C 
ATOM     13  C   UNL     1      -5.037   1.868  25.351  0.00  0.00    +0.109 C 
ATOM     17  C   UNL     1      -4.047  -0.401  25.395  0.00  0.00    +0.305 C 
ATOM     20  C   UNL     1      -3.314  -2.756  25.137  0.00  0.00    +0.137 C 
ATOM     21  C   UNL     1      -4.057  -1.551  23.132  0.00  0.00    +0.137 C 
ATOM     25  C   UNL     1      -4.362  -3.819  24.841  0.00  0.00    +0.179 C 
ATOM     26  C   UNL     1      -5.067  -2.673  22.900  0.00  0.00    +0.179 C 
ENDROOT
BRANCH   9  14
ATOM     14  C   UNL     1      -1.295   1.948  25.503  0.00  0.00    +0.061 C 
BRANCH  14  16
ATOM      8  N   UNL     1      -1.342  -0.431  25.169  0.00  0.00    -0.287 NA
ATOM     16  C   UNL     1      -0.702   0.671  24.956  0.00  0.00    +0.044 C 
ATOM     19  C   UNL     1       0.582   0.741  24.212  0.00  0.00    -0.001 A 
ATOM     22  C   UNL     1       1.290  -0.458  24.062  0.00  0.00    -0.033 A 
ATOM     23  C   UNL     1       0.723  -1.709  24.664  0.00  0.00    +0.059 C 
ATOM     24  C   UNL     1      -0.797  -1.661  24.587  0.00  0.00    +0.146 C 
ATOM     27  C   UNL     1       1.088   1.933  23.690  0.00  0.00    +0.013 A 
ATOM     28  C   UNL     1       2.524  -0.453  23.407  0.00  0.00    +0.050 A 
ATOM     29  C   UNL     1       2.314   1.925  23.024  0.00  0.00    +0.046 A 
ATOM     30  C   UNL     1       3.032   0.737  22.884  0.00  0.00    +0.120 A 
BRANCH  30   5
ATOM      5  O   UNL     1       4.231   0.739  22.241  0.00  0.00    -0.495 OA
ATOM     31  C   UNL     1       5.348   0.199  22.946  0.00  0.00    +0.277 C 
ENDBRANCH  30   5
ENDBRANCH  14  16
ENDBRANCH   9  14
BRANCH  10  15
ATOM     15  C   UNL     1      -2.475   4.740  25.791  0.00  0.00    +0.124 C 
BRANCH  15  18
ATOM      4  O   UNL     1      -0.265   5.178  24.860  0.00  0.00    -0.251 OA
ATOM     18  C   UNL     1      -1.470   5.381  24.874  0.00  0.00    +0.305 C 
BRANCH  18   2
ATOM      2  O   UNL     1      -2.101   6.243  24.035  0.00  0.00    -0.481 OA
ATOM     32  H   UNL     1      -1.601   6.373  23.201  0.00  0.00    +0.295 HD
ENDBRANCH  18   2
ENDBRANCH  15  18
ENDBRANCH  10  15
TORSDOF 6
ENDMDL
