MODEL 1
REMARK VINA RESULT:       4.1      0.000      0.000
REMARK  Name = 11880092
REMARK  12 active torsions:
REMARK  status: ('A' for Active; 'I' for Inactive)
REMARK    1  A    between atoms: O_1  and  C_12
REMARK    2  A    between atoms: O_2  and  C_15
REMARK    3  A    between atoms: O_3  and  C_17
REMARK    4  A    between atoms: N_8  and  C_13
REMARK    5  A    between atoms: N_9  and  C_19
REMARK    6  A    between atoms: N_10  and  C_24
REMARK    7  A    between atoms: C_12  and  C_18
REMARK    8  A    between atoms: C_19  and  C_21
REMARK    9  A    between atoms: C_19  and  C_22
REMARK   10  A    between atoms: C_21  and  C_23
REMARK   11  A    between atoms: C_34  and  C_35
REMARK   12  A    between atoms: C_35  and  C_36
REMARK                            x       y       z     vdW  Elec       q    Type
REMARK                         _______ _______ _______ _____ _____    ______ ____
ROOT
ATOM     12  C   UNL     1      -4.309   0.031  24.757  0.00  0.00    +0.146 C 
ATOM     13  C   UNL     1      -2.249  -1.282  24.055  0.00  0.00    +0.109 C 
ATOM     14  C   UNL     1      -2.952   0.080  24.051  0.00  0.00    +0.069 C 
ATOM     15  C   UNL     1      -3.147  -2.389  23.489  0.00  0.00    +0.163 C 
ATOM     16  C   UNL     1      -5.199  -1.061  24.172  0.00  0.00    +0.078 C 
ATOM     17  C   UNL     1      -4.514  -2.428  24.178  0.00  0.00    +0.148 C 
ENDROOT
BRANCH  13   8
ATOM      5  O   UNL     1       0.318  -0.519  25.071  0.00  0.00    -0.252 OA
ATOM      8  N   UNL     1      -1.014  -1.196  23.307  0.00  0.00    -0.294 N 
ATOM     10  N   UNL     1       1.215  -0.822  22.923  0.00  0.00    -0.269 N 
ATOM     20  C   UNL     1       0.201  -0.813  23.884  0.00  0.00    +0.304 C 
ATOM     37  H   UNL     1      -1.045  -1.348  22.304  0.00  0.00    +0.151 HD
ATOM     42  H   UNL     1       0.947  -1.093  21.980  0.00  0.00    +0.156 HD
BRANCH  10  24
ATOM     24  C   UNL     1       2.581  -0.499  23.101  0.00  0.00    +0.035 A 
ATOM     27  C   UNL     1       3.043   0.743  22.697  0.00  0.00    +0.024 A 
ATOM     28  C   UNL     1       3.428  -1.431  23.677  0.00  0.00    +0.024 A 
ATOM     32  C   UNL     1       4.389   1.062  22.874  0.00  0.00    +0.013 A 
ATOM     33  C   UNL     1       4.774  -1.113  23.854  0.00  0.00    +0.013 A 
ATOM     34  C   UNL     1       5.255   0.133  23.452  0.00  0.00    +0.017 A 
BRANCH  34  35
ATOM      7  O   UNL     1       7.010   1.497  24.243  0.00  0.00    -0.292 OA
ATOM     35  C   UNL     1       6.659   0.465  23.635  0.00  0.00    +0.160 C 
ATOM     36  C   UNL     1       7.745  -0.450  23.082  0.00  0.00    +0.091 C 
ENDBRANCH  34  35
ENDBRANCH  10  24
ENDBRANCH  13   8
BRANCH  12  18
ATOM      4  O   UNL     1      -6.218   1.455  24.565  0.00  0.00    -0.273 OA
ATOM      9  N   UNL     1      -4.102   2.418  24.704  0.00  0.00    -0.301 N 
ATOM     18  C   UNL     1      -4.997   1.362  24.671  0.00  0.00    +0.246 C 
ATOM     41  H   UNL     1      -3.130   2.229  24.928  0.00  0.00    +0.150 HD
BRANCH   9  19
ATOM     19  C   UNL     1      -4.510   3.802  24.614  0.00  0.00    +0.163 C 
BRANCH  19  22
ATOM      6  O   UNL     1      -6.372   4.944  25.678  0.00  0.00    -0.274 OA
ATOM     11  N   UNL     1      -5.496   3.083  26.701  0.00  0.00    -0.328 N 
ATOM     22  C   UNL     1      -5.547   4.034  25.703  0.00  0.00    +0.231 C 
ATOM     43  H   UNL     1      -4.823   2.323  26.696  0.00  0.00    +0.145 HD
ATOM     44  H   UNL     1      -6.142   3.112  27.481  0.00  0.00    +0.145 HD
ENDBRANCH  19  22
BRANCH  19  21
ATOM     21  C   UNL     1      -3.331   4.768  24.783  0.00  0.00    +0.067 C 
BRANCH  21  23
ATOM     23  C   UNL     1      -2.030   4.047  25.044  0.00  0.00    -0.045 A 
ATOM     25  C   UNL     1      -1.824   3.441  26.273  0.00  0.00    +0.004 A 
ATOM     26  C   UNL     1      -1.066   4.004  24.049  0.00  0.00    +0.004 A 
ATOM     29  C   UNL     1      -0.622   2.774  26.513  0.00  0.00    +0.000 A 
ATOM     30  C   UNL     1       0.135   3.338  24.290  0.00  0.00    +0.000 A 
ATOM     31  C   UNL     1       0.357   2.723  25.523  0.00  0.00    +0.000 A 
ENDBRANCH  21  23
ENDBRANCH  19  21
ENDBRANCH   9  19
ENDBRANCH  12  18
BRANCH  12   1
ATOM      1  O   UNL     1      -4.136  -0.205  26.150  0.00  0.00    -0.379 OA
ATOM     38  H   UNL     1      -3.376  -0.800  26.268  0.00  0.00    +0.211 HD
ENDBRANCH  12   1
BRANCH  15   2
ATOM      2  O   UNL     1      -2.518  -3.656  23.704  0.00  0.00    -0.387 OA
ATOM     39  H   UNL     1      -2.671  -4.199  22.913  0.00  0.00    +0.210 HD
ENDBRANCH  15   2
BRANCH  17   3
ATOM      3  O   UNL     1      -5.342  -3.363  23.486  0.00  0.00    -0.389 OA
ATOM     40  H   UNL     1      -5.916  -2.861  22.884  0.00  0.00    +0.210 HD
ENDBRANCH  17   3
TORSDOF 11
ENDMDL
MODEL 2
REMARK VINA RESULT:       7.2      2.121      4.934
REMARK  Name = 11880092
REMARK  12 active torsions:
REMARK  status: ('A' for Active; 'I' for Inactive)
REMARK    1  A    between atoms: O_1  and  C_12
REMARK    2  A    between atoms: O_2  and  C_15
REMARK    3  A    between atoms: O_3  and  C_17
REMARK    4  A    between atoms: N_8  and  C_13
REMARK    5  A    between atoms: N_9  and  C_19
REMARK    6  A    between atoms: N_10  and  C_24
REMARK    7  A    between atoms: C_12  and  C_18
REMARK    8  A    between atoms: C_19  and  C_21
REMARK    9  A    between atoms: C_19  and  C_22
REMARK   10  A    between atoms: C_21  and  C_23
REMARK   11  A    between atoms: C_34  and  C_35
REMARK   12  A    between atoms: C_35  and  C_36
REMARK                            x       y       z     vdW  Elec       q    Type
REMARK                         _______ _______ _______ _____ _____    ______ ____
ROOT
ATOM     12  C   UNL     1      -4.226   2.709  24.786  0.00  0.00    +0.146 C 
ATOM     13  C   UNL     1      -2.049   3.714  23.940  0.00  0.00    +0.109 C 
ATOM     14  C   UNL     1      -2.902   2.446  24.063  0.00  0.00    +0.069 C 
ATOM     15  C   UNL     1      -1.832   4.389  25.300  0.00  0.00    +0.163 C 
ATOM     16  C   UNL     1      -3.993   3.364  26.145  0.00  0.00    +0.078 C 
ATOM     17  C   UNL     1      -3.151   4.635  26.036  0.00  0.00    +0.148 C 
ENDROOT
BRANCH  13   8
ATOM      5  O   UNL     1      -0.236   1.646  24.739  0.00  0.00    -0.252 OA
ATOM      8  N   UNL     1      -0.781   3.390  23.323  0.00  0.00    -0.294 N 
ATOM     10  N   UNL     1       1.197   2.282  22.992  0.00  0.00    -0.269 N 
ATOM     20  C   UNL     1       0.046   2.360  23.779  0.00  0.00    +0.304 C 
ATOM     37  H   UNL     1      -0.443   3.985  22.573  0.00  0.00    +0.151 HD
ATOM     42  H   UNL     1       1.275   2.951  22.230  0.00  0.00    +0.156 HD
BRANCH  10  24
ATOM     24  C   UNL     1       2.279   1.378  23.123  0.00  0.00    +0.035 A 
ATOM     27  C   UNL     1       2.019   0.029  23.300  0.00  0.00    +0.024 A 
ATOM     28  C   UNL     1       3.575   1.862  23.069  0.00  0.00    +0.024 A 
ATOM     32  C   UNL     1       3.085  -0.861  23.427  0.00  0.00    +0.013 A 
ATOM     33  C   UNL     1       4.642   0.972  23.196  0.00  0.00    +0.013 A 
ATOM     34  C   UNL     1       4.397  -0.389  23.375  0.00  0.00    +0.017 A 
BRANCH  34  35
ATOM      7  O   UNL     1       5.334  -2.487  23.908  0.00  0.00    -0.292 OA
ATOM     35  C   UNL     1       5.508  -1.318  23.509  0.00  0.00    +0.160 C 
ATOM     36  C   UNL     1       6.925  -0.877  23.161  0.00  0.00    +0.091 C 
ENDBRANCH  34  35
ENDBRANCH  10  24
ENDBRANCH  13   8
BRANCH  12  18
ATOM      4  O   UNL     1      -6.203   1.435  25.198  0.00  0.00    -0.273 OA
ATOM      9  N   UNL     1      -4.199   0.313  24.811  0.00  0.00    -0.301 N 
ATOM     18  C   UNL     1      -5.000   1.435  24.950  0.00  0.00    +0.246 C 
ATOM     41  H   UNL     1      -3.248   0.430  24.476  0.00  0.00    +0.150 HD
BRANCH   9  19
ATOM     19  C   UNL     1      -4.700  -1.036  24.946  0.00  0.00    +0.163 C 
BRANCH  19  22
ATOM      6  O   UNL     1      -5.006  -2.813  23.318  0.00  0.00    -0.274 OA
ATOM     11  N   UNL     1      -3.863  -0.925  22.681  0.00  0.00    -0.328 N 
ATOM     22  C   UNL     1      -4.541  -1.709  23.591  0.00  0.00    +0.231 C 
ATOM     43  H   UNL     1      -3.505  -0.004  22.914  0.00  0.00    +0.145 HD
ATOM     44  H   UNL     1      -3.701  -1.249  21.734  0.00  0.00    +0.145 HD
ENDBRANCH  19  22
BRANCH  19  21
ATOM     21  C   UNL     1      -3.953  -1.827  26.027  0.00  0.00    +0.067 C 
BRANCH  21  23
ATOM     23  C   UNL     1      -2.469  -1.906  25.761  0.00  0.00    -0.045 A 
ATOM     25  C   UNL     1      -1.989  -2.853  24.871  0.00  0.00    +0.004 A 
ATOM     26  C   UNL     1      -1.615  -1.029  26.410  0.00  0.00    +0.004 A 
ATOM     29  C   UNL     1      -0.617  -2.925  24.624  0.00  0.00    +0.000 A 
ATOM     30  C   UNL     1      -0.244  -1.101  26.164  0.00  0.00    +0.000 A 
ATOM     31  C   UNL     1       0.255  -2.050  25.270  0.00  0.00    +0.000 A 
ENDBRANCH  21  23
ENDBRANCH  19  21
ENDBRANCH   9  19
ENDBRANCH  12  18
BRANCH  12   1
ATOM      1  O   UNL     1      -5.063   3.551  24.001  0.00  0.00    -0.379 OA
ATOM     38  H   UNL     1      -5.985   3.404  24.271  0.00  0.00    +0.211 HD
ENDBRANCH  12   1
BRANCH  15   2
ATOM      2  O   UNL     1      -1.207   5.660  25.095  0.00  0.00    -0.387 OA
ATOM     39  H   UNL     1      -0.610   5.819  25.845  0.00  0.00    +0.210 HD
ENDBRANCH  15   2
BRANCH  17   3
ATOM      3  O   UNL     1      -2.854   5.106  27.351  0.00  0.00    -0.389 OA
ATOM     40  H   UNL     1      -3.168   4.437  27.983  0.00  0.00    +0.210 HD
ENDBRANCH  17   3
TORSDOF 11
ENDMDL
