MODEL 1
REMARK VINA RESULT:      11.2      0.000      0.000
REMARK  Name = 51136832
REMARK  7 active torsions:
REMARK  status: ('A' for Active; 'I' for Inactive)
REMARK    1  A    between atoms: N_4  and  C_15
REMARK    2  A    between atoms: N_10  and  C_31
REMARK    3  A    between atoms: C_11  and  C_16
REMARK    4  A    between atoms: C_15  and  C_17
REMARK    5  A    between atoms: C_22  and  C_26
REMARK    6  A    between atoms: C_28  and  C_34
REMARK    7  A    between atoms: C_35  and  C_36
REMARK                            x       y       z     vdW  Elec       q    Type
REMARK                         _______ _______ _______ _____ _____    ______ ____
ROOT
ATOM      1  O   UNL     1      -5.471   1.146  25.184  0.00  0.00    -0.336 OA
ATOM      6  N   UNL     1      -3.245   1.395  25.141  0.00  0.00    -0.190 NA
ATOM      8  N   UNL     1      -4.945  -0.106  24.838  0.00  0.00    -0.056 NA
ATOM     16  C   UNL     1      -4.403   1.970  25.344  0.00  0.00    +0.245 A 
ATOM     22  C   UNL     1      -3.628   0.122  24.832  0.00  0.00    +0.202 A 
ENDROOT
BRANCH  22  26
ATOM      2  O   UNL     1       5.167   0.844  22.037  0.00  0.00    -0.276 OA
ATOM      5  N   UNL     1       0.857  -1.225  23.686  0.00  0.00    -0.312 N 
ATOM      7  N   UNL     1       3.593  -0.427  23.179  0.00  0.00    -0.299 N 
ATOM      9  N   UNL     1      -0.800  -2.891  23.924  0.00  0.00    -0.240 NA
ATOM     18  C   UNL     1       1.168   0.053  23.041  0.00  0.00    +0.125 C 
ATOM     19  C   UNL     1       1.966  -2.129  24.001  0.00  0.00    +0.125 C 
ATOM     20  C   UNL     1       2.499  -0.026  22.298  0.00  0.00    +0.126 C 
ATOM     21  C   UNL     1       3.249  -1.342  24.270  0.00  0.00    +0.126 C 
ATOM     23  C   UNL     1      -0.462  -1.582  23.959  0.00  0.00    +0.122 A 
ATOM     26  C   UNL     1      -2.669  -0.900  24.523  0.00  0.00    +0.027 A 
ATOM     27  C   UNL     1      -1.348  -0.559  24.250  0.00  0.00    +0.055 A 
ATOM     28  C   UNL     1       4.876   0.073  22.955  0.00  0.00    +0.213 C 
ATOM     32  C   UNL     1      -3.055  -2.235  24.496  0.00  0.00    +0.031 A 
ATOM     33  C   UNL     1      -2.092  -3.184  24.194  0.00  0.00    +0.113 A 
ATOM     34  C   UNL     1       5.947  -0.383  23.914  0.00  0.00    +0.109 C 
ENDBRANCH  22  26
BRANCH  16  11
ATOM      4  N   UNL     1      -4.754   4.306  24.560  0.00  0.00    -0.287 NA
ATOM     11  C   UNL     1      -4.709   3.403  25.727  0.00  0.00    +0.146 C 
ATOM     12  C   UNL     1      -6.089   3.557  26.394  0.00  0.00    +0.030 C 
ATOM     13  C   UNL     1      -6.814   4.611  25.568  0.00  0.00    +0.017 C 
ATOM     14  C   UNL     1      -5.689   5.378  24.901  0.00  0.00    +0.085 C 
BRANCH   4  15
ATOM     15  C   UNL     1      -3.444   4.823  24.183  0.00  0.00    +0.120 C 
BRANCH  15  17
ATOM     17  C   UNL     1      -2.342   4.211  25.006  0.00  0.00    -0.033 A 
ATOM     24  C   UNL     1      -2.429   4.213  26.399  0.00  0.00    +0.007 A 
ATOM     25  C   UNL     1      -1.234   3.643  24.378  0.00  0.00    +0.007 A 
ATOM     29  C   UNL     1      -1.408   3.647  27.162  0.00  0.00    +0.023 A 
ATOM     30  C   UNL     1      -0.212   3.078  25.141  0.00  0.00    +0.023 A 
ATOM     31  C   UNL     1      -0.300   3.079  26.533  0.00  0.00    +0.033 A 
BRANCH  31  10
ATOM      3  O   UNL     1       0.121   3.040  29.515  0.00  0.00    -0.276 OA
ATOM     10  N   UNL     1       0.723   2.514  27.296  0.00  0.00    -0.286 N 
ATOM     35  C   UNL     1       0.871   2.527  28.690  0.00  0.00    +0.214 C 
ATOM     36  C   UNL     1       2.118   1.802  29.127  0.00  0.00    +0.109 C 
ATOM     37  H   UNL     1       1.447   2.036  26.765  0.00  0.00    +0.155 HD
ENDBRANCH  31  10
ENDBRANCH  15  17
ENDBRANCH   4  15
ENDBRANCH  16  11
TORSDOF 5
ENDMDL
MODEL 2
REMARK VINA RESULT:      12.4      2.122      2.888
REMARK  Name = 51136832
REMARK  7 active torsions:
REMARK  status: ('A' for Active; 'I' for Inactive)
REMARK    1  A    between atoms: N_4  and  C_15
REMARK    2  A    between atoms: N_10  and  C_31
REMARK    3  A    between atoms: C_11  and  C_16
REMARK    4  A    between atoms: C_15  and  C_17
REMARK    5  A    between atoms: C_22  and  C_26
REMARK    6  A    between atoms: C_28  and  C_34
REMARK    7  A    between atoms: C_35  and  C_36
REMARK                            x       y       z     vdW  Elec       q    Type
REMARK                         _______ _______ _______ _____ _____    ______ ____
ROOT
ATOM      1  O   UNL     1      -5.884   0.942  25.075  0.00  0.00    -0.336 OA
ATOM      6  N   UNL     1      -3.685   1.126  25.457  0.00  0.00    -0.190 NA
ATOM      8  N   UNL     1      -5.304  -0.238  24.590  0.00  0.00    -0.056 NA
ATOM     16  C   UNL     1      -4.861   1.688  25.568  0.00  0.00    +0.245 A 
ATOM     22  C   UNL     1      -4.006  -0.054  24.851  0.00  0.00    +0.202 A 
ENDROOT
BRANCH  22  26
ATOM      2  O   UNL     1       4.713   1.094  21.960  0.00  0.00    -0.276 OA
ATOM      5  N   UNL     1       0.521  -1.185  23.636  0.00  0.00    -0.312 N 
ATOM      7  N   UNL     1       3.211  -0.259  23.106  0.00  0.00    -0.299 N 
ATOM      9  N   UNL     1      -1.058  -2.926  23.874  0.00  0.00    -0.240 NA
ATOM     18  C   UNL     1       0.766   0.113  23.002  0.00  0.00    +0.125 C 
ATOM     19  C   UNL     1       1.673  -2.042  23.927  0.00  0.00    +0.125 C 
ATOM     20  C   UNL     1       2.090   0.101  22.243  0.00  0.00    +0.126 C 
ATOM     21  C   UNL     1       2.922  -1.201  24.190  0.00  0.00    +0.126 C 
ATOM     23  C   UNL     1      -0.778  -1.604  23.921  0.00  0.00    +0.122 A 
ATOM     26  C   UNL     1      -3.006  -1.028  24.518  0.00  0.00    +0.027 A 
ATOM     27  C   UNL     1      -1.706  -0.625  24.234  0.00  0.00    +0.055 A 
ATOM     28  C   UNL     1       4.467   0.300  22.872  0.00  0.00    +0.213 C 
ATOM     32  C   UNL     1      -3.332  -2.379  24.481  0.00  0.00    +0.031 A 
ATOM     33  C   UNL     1      -2.331  -3.280  24.156  0.00  0.00    +0.113 A 
ATOM     34  C   UNL     1       5.570  -0.117  23.814  0.00  0.00    +0.109 C 
ENDBRANCH  22  26
BRANCH  16  11
ATOM      4  N   UNL     1      -4.422   4.137  25.611  0.00  0.00    -0.287 NA
ATOM     11  C   UNL     1      -5.231   3.032  26.161  0.00  0.00    +0.146 C 
ATOM     12  C   UNL     1      -6.690   3.429  25.865  0.00  0.00    +0.030 C 
ATOM     13  C   UNL     1      -6.602   4.798  25.205  0.00  0.00    +0.017 C 
ATOM     14  C   UNL     1      -5.262   5.334  25.669  0.00  0.00    +0.085 C 
BRANCH   4  15
ATOM     15  C   UNL     1      -3.156   4.324  26.307  0.00  0.00    +0.120 C 
BRANCH  15  17
ATOM     17  C   UNL     1      -2.007   4.484  25.347  0.00  0.00    -0.033 A 
ATOM     24  C   UNL     1      -1.531   5.758  25.035  0.00  0.00    +0.007 A 
ATOM     25  C   UNL     1      -1.418   3.359  24.769  0.00  0.00    +0.007 A 
ATOM     29  C   UNL     1      -0.468   5.907  24.145  0.00  0.00    +0.023 A 
ATOM     30  C   UNL     1      -0.355   3.508  23.878  0.00  0.00    +0.023 A 
ATOM     31  C   UNL     1       0.120   4.782  23.566  0.00  0.00    +0.033 A 
BRANCH  31  10
ATOM      3  O   UNL     1       0.452   6.628  21.210  0.00  0.00    -0.276 OA
ATOM     10  N   UNL     1       1.184   4.931  22.675  0.00  0.00    -0.286 N 
ATOM     35  C   UNL     1       1.285   5.810  21.588  0.00  0.00    +0.214 C 
ATOM     36  C   UNL     1       2.602   5.660  20.869  0.00  0.00    +0.109 C 
ATOM     37  H   UNL     1       1.979   4.319  22.843  0.00  0.00    +0.155 HD
ENDBRANCH  31  10
ENDBRANCH  15  17
ENDBRANCH   4  15
ENDBRANCH  16  11
TORSDOF 5
ENDMDL
