MODEL 1
REMARK VINA RESULT:      -3.0      0.000      0.000
REMARK  Name = 51136740
REMARK  8 active torsions:
REMARK  status: ('A' for Active; 'I' for Inactive)
REMARK    1  A    between atoms: O_1  and  C_17
REMARK    2  A    between atoms: N_6  and  C_25
REMARK    3  A    between atoms: C_7  and  C_11
REMARK    4  A    between atoms: C_8  and  C_13
REMARK    5  A    between atoms: C_11  and  C_14
REMARK    6  A    between atoms: C_13  and  C_17
REMARK    7  A    between atoms: C_23  and  C_26
REMARK    8  A    between atoms: C_25  and  C_27
REMARK                            x       y       z     vdW  Elec       q    Type
REMARK                         _______ _______ _______ _____ _____    ______ ____
ROOT
ATOM      2  O   UNL     1      -2.806  -9.865   9.609  0.00  0.00    -0.253 OA
ATOM      4  N   UNL     1      -4.757  -9.011  10.524  0.00  0.00    -0.285 N 
ATOM      6  N   UNL     1      -2.870  -9.481  11.869  0.00  0.00    -0.296 N 
ATOM      7  C   UNL     1      -6.858  -9.374  11.789  0.00  0.00    +0.016 C 
ATOM      8  C   UNL     1      -7.624  -9.396  10.439  0.00  0.00    +0.006 C 
ATOM      9  C   UNL     1      -6.714  -9.815   9.271  0.00  0.00    +0.023 C 
ATOM     10  C   UNL     1      -5.580  -8.528  11.642  0.00  0.00    +0.113 C 
ATOM     12  C   UNL     1      -5.437  -8.977   9.228  0.00  0.00    +0.109 C 
ATOM     15  C   UNL     1      -3.435  -9.476  10.599  0.00  0.00    +0.302 C 
ATOM     29  H   UNL     1      -3.410  -9.240  12.688  0.00  0.00    +0.151 HD
ENDROOT
BRANCH   7  11
ATOM     11  C   UNL     1      -6.519 -10.765  12.338  0.00  0.00    +0.061 C 
BRANCH  11  14
ATOM      5  N   UNL     1      -4.758 -10.781  13.970  0.00  0.00    -0.287 NA
ATOM     14  C   UNL     1      -6.026 -10.650  13.760  0.00  0.00    +0.044 C 
ATOM     16  C   UNL     1      -7.012 -10.386  14.839  0.00  0.00    -0.001 A 
ATOM     18  C   UNL     1      -6.503  -9.906  16.053  0.00  0.00    -0.037 A 
ATOM     19  C   UNL     1      -5.026  -9.681  16.178  0.00  0.00    +0.059 C 
ATOM     20  C   UNL     1      -4.287 -10.730  15.359  0.00  0.00    +0.146 C 
ATOM     21  C   UNL     1      -8.383 -10.583  14.674  0.00  0.00    +0.013 A 
ATOM     22  C   UNL     1      -7.383  -9.600  17.096  0.00  0.00    +0.004 A 
ATOM     23  C   UNL     1      -9.252 -10.289  15.726  0.00  0.00    -0.050 A 
ATOM     24  C   UNL     1      -8.754  -9.796  16.932  0.00  0.00    +0.003 A 
ATOM     26  C   UNL     1     -10.719 -10.498  15.559  0.00  0.00    +0.044 C 
ENDBRANCH  11  14
ENDBRANCH   7  11
BRANCH   8  13
ATOM     13  C   UNL     1      -8.883 -10.262  10.480  0.00  0.00    +0.124 C 
BRANCH  13  17
ATOM      3  O   UNL     1     -10.481  -9.515  12.163  0.00  0.00    -0.251 OA
ATOM     17  C   UNL     1     -10.065  -9.498  11.015  0.00  0.00    +0.305 C 
BRANCH  17   1
ATOM      1  O   UNL     1     -10.625  -8.766  10.019  0.00  0.00    -0.481 OA
ATOM     30  H   UNL     1     -11.330  -9.263   9.552  0.00  0.00    +0.295 HD
ENDBRANCH  17   1
ENDBRANCH  13  17
ENDBRANCH   8  13
BRANCH   6  25
ATOM     25  C   UNL     1      -1.520  -9.940  12.109  0.00  0.00    +0.132 C 
BRANCH  25  27
ATOM     27  C   UNL     1      -1.337 -10.171  13.572  0.00  0.00    -0.016 C 
ATOM     28  C   UNL     1      -0.894  -9.240  14.424  0.00  0.00    +0.005 C 
ENDBRANCH  25  27
ENDBRANCH   6  25
TORSDOF 7
ENDMDL
MODEL 2
REMARK VINA RESULT:      -0.4     15.027     17.053
REMARK  Name = 51136740
REMARK  8 active torsions:
REMARK  status: ('A' for Active; 'I' for Inactive)
REMARK    1  A    between atoms: O_1  and  C_17
REMARK    2  A    between atoms: N_6  and  C_25
REMARK    3  A    between atoms: C_7  and  C_11
REMARK    4  A    between atoms: C_8  and  C_13
REMARK    5  A    between atoms: C_11  and  C_14
REMARK    6  A    between atoms: C_13  and  C_17
REMARK    7  A    between atoms: C_23  and  C_26
REMARK    8  A    between atoms: C_25  and  C_27
REMARK                            x       y       z     vdW  Elec       q    Type
REMARK                         _______ _______ _______ _____ _____    ______ ____
ROOT
ATOM      2  O   UNL     1       3.090  -1.044  23.378  0.00  0.00    -0.253 OA
ATOM      4  N   UNL     1       0.904  -0.387  22.975  0.00  0.00    -0.285 N 
ATOM      6  N   UNL     1       2.683   1.170  22.941  0.00  0.00    -0.296 N 
ATOM      7  C   UNL     1      -1.186   0.678  23.779  0.00  0.00    +0.016 C 
ATOM      8  C   UNL     1      -1.769  -0.739  24.029  0.00  0.00    +0.006 C 
ATOM      9  C   UNL     1      -0.661  -1.781  24.262  0.00  0.00    +0.023 C 
ATOM     10  C   UNL     1      -0.130   0.611  22.662  0.00  0.00    +0.113 C 
ATOM     12  C   UNL     1       0.385  -1.744  23.149  0.00  0.00    +0.109 C 
ATOM     15  C   UNL     1       2.281  -0.149  23.113  0.00  0.00    +0.302 C 
ATOM     29  H   UNL     1       2.014   1.914  22.805  0.00  0.00    +0.151 HD
ENDROOT
BRANCH   7  11
ATOM     11  C   UNL     1      -0.600   1.341  25.032  0.00  0.00    +0.061 C 
BRANCH  11  14
ATOM      5  N   UNL     1      -0.166   3.700  25.145  0.00  0.00    -0.287 NA
ATOM     14  C   UNL     1      -1.067   2.774  25.120  0.00  0.00    +0.044 C 
ATOM     16  C   UNL     1      -2.526   3.049  25.165  0.00  0.00    -0.001 A 
ATOM     18  C   UNL     1      -2.930   4.355  24.858  0.00  0.00    -0.037 A 
ATOM     19  C   UNL     1      -1.885   5.367  24.496  0.00  0.00    +0.059 C 
ATOM     20  C   UNL     1      -0.618   5.088  25.293  0.00  0.00    +0.146 C 
ATOM     21  C   UNL     1      -3.470   2.071  25.480  0.00  0.00    +0.013 A 
ATOM     22  C   UNL     1      -4.293   4.669  24.843  0.00  0.00    +0.004 A 
ATOM     23  C   UNL     1      -4.827   2.398  25.478  0.00  0.00    -0.050 A 
ATOM     24  C   UNL     1      -5.237   3.692  25.158  0.00  0.00    +0.003 A 
ATOM     26  C   UNL     1      -5.842   1.358  25.815  0.00  0.00    +0.044 C 
ENDBRANCH  11  14
ENDBRANCH   7  11
BRANCH   8  13
ATOM     13  C   UNL     1      -2.791  -0.775  25.165  0.00  0.00    +0.124 C 
BRANCH  13  17
ATOM      3  O   UNL     1      -3.670  -3.006  25.599  0.00  0.00    -0.251 OA
ATOM     17  C   UNL     1      -3.741  -1.933  25.021  0.00  0.00    +0.305 C 
BRANCH  17   1
ATOM      1  O   UNL     1      -4.718  -1.615  24.134  0.00  0.00    -0.481 OA
ATOM     30  H   UNL     1      -4.651  -2.145  23.311  0.00  0.00    +0.295 HD
ENDBRANCH  17   1
ENDBRANCH  13  17
ENDBRANCH   8  13
BRANCH   6  25
ATOM     25  C   UNL     1       4.067   1.573  23.060  0.00  0.00    +0.132 C 
BRANCH  25  27
ATOM     27  C   UNL     1       4.925   0.354  23.127  0.00  0.00    -0.016 C 
ATOM     28  C   UNL     1       5.788   0.103  24.118  0.00  0.00    +0.005 C 
ENDBRANCH  25  27
ENDBRANCH   6  25
TORSDOF 7
ENDMDL
MODEL 3
REMARK VINA RESULT:       0.4     15.008     17.165
REMARK  Name = 51136740
REMARK  8 active torsions:
REMARK  status: ('A' for Active; 'I' for Inactive)
REMARK    1  A    between atoms: O_1  and  C_17
REMARK    2  A    between atoms: N_6  and  C_25
REMARK    3  A    between atoms: C_7  and  C_11
REMARK    4  A    between atoms: C_8  and  C_13
REMARK    5  A    between atoms: C_11  and  C_14
REMARK    6  A    between atoms: C_13  and  C_17
REMARK    7  A    between atoms: C_23  and  C_26
REMARK    8  A    between atoms: C_25  and  C_27
REMARK                            x       y       z     vdW  Elec       q    Type
REMARK                         _______ _______ _______ _____ _____    ______ ____
ROOT
ATOM      2  O   UNL     1       1.784   2.783  23.197  0.00  0.00    -0.253 OA
ATOM      4  N   UNL     1       0.164   2.679  24.852  0.00  0.00    -0.285 N 
ATOM      6  N   UNL     1       0.906   0.734  23.732  0.00  0.00    -0.296 N 
ATOM      7  C   UNL     1      -2.222   2.475  25.492  0.00  0.00    +0.016 C 
ATOM      8  C   UNL     1      -2.262   4.013  25.696  0.00  0.00    +0.006 C 
ATOM      9  C   UNL     1      -1.192   4.730  24.853  0.00  0.00    +0.023 C 
ATOM     10  C   UNL     1      -0.788   1.962  25.712  0.00  0.00    +0.113 C 
ATOM     12  C   UNL     1       0.193   4.125  25.075  0.00  0.00    +0.109 C 
ATOM     15  C   UNL     1       1.006   2.111  23.882  0.00  0.00    +0.302 C 
ATOM     29  H   UNL     1       0.214   0.195  24.234  0.00  0.00    +0.151 HD
ENDROOT
BRANCH   7  11
ATOM     11  C   UNL     1      -2.752   2.013  24.128  0.00  0.00    +0.061 C 
BRANCH  11  14
ATOM      5  N   UNL     1      -4.965   1.100  24.318  0.00  0.00    -0.287 NA
ATOM     14  C   UNL     1      -3.697   0.850  24.313  0.00  0.00    +0.044 C 
ATOM     16  C   UNL     1      -3.130  -0.514  24.469  0.00  0.00    -0.001 A 
ATOM     18  C   UNL     1      -4.002  -1.588  24.250  0.00  0.00    -0.037 A 
ATOM     19  C   UNL     1      -5.421  -1.297  23.863  0.00  0.00    +0.059 C 
ATOM     20  C   UNL     1      -5.880  -0.022  24.558  0.00  0.00    +0.146 C 
ATOM     21  C   UNL     1      -1.794  -0.743  24.804  0.00  0.00    +0.013 A 
ATOM     22  C   UNL     1      -3.521  -2.897  24.342  0.00  0.00    +0.004 A 
ATOM     23  C   UNL     1      -1.327  -2.054  24.909  0.00  0.00    -0.050 A 
ATOM     24  C   UNL     1      -2.186  -3.127  24.676  0.00  0.00    +0.003 A 
ATOM     26  C   UNL     1       0.099  -2.308  25.268  0.00  0.00    +0.044 C 
ENDBRANCH  11  14
ENDBRANCH   7  11
BRANCH   8  13
ATOM     13  C   UNL     1      -3.643   4.616  25.442  0.00  0.00    +0.124 C 
BRANCH  13  17
ATOM      3  O   UNL     1      -4.658   3.355  27.265  0.00  0.00    -0.251 OA
ATOM     17  C   UNL     1      -4.724   3.843  26.147  0.00  0.00    +0.305 C 
BRANCH  17   1
ATOM      1  O   UNL     1      -5.819   3.756  25.349  0.00  0.00    -0.481 OA
ATOM     30  H   UNL     1      -5.670   3.153  24.589  0.00  0.00    +0.295 HD
ENDBRANCH  17   1
ENDBRANCH  13  17
ENDBRANCH   8  13
BRANCH   6  25
ATOM     25  C   UNL     1       1.702   0.005  22.768  0.00  0.00    +0.132 C 
BRANCH  25  27
ATOM     27  C   UNL     1       3.093  -0.132  23.291  0.00  0.00    -0.016 C 
ATOM     28  C   UNL     1       4.156   0.472  22.748  0.00  0.00    +0.005 C 
ENDBRANCH  25  27
ENDBRANCH   6  25
TORSDOF 7
ENDMDL
