MODEL 1
REMARK VINA RESULT:       0.1      0.000      0.000
REMARK  Name = 45783457
REMARK  15 active torsions:
REMARK  status: ('A' for Active; 'I' for Inactive)
REMARK    1  A    between atoms: O_2  and  C_21
REMARK    2  A    between atoms: O_2  and  C_27
REMARK    3  A    between atoms: O_3  and  C_22
REMARK    4  A    between atoms: O_3  and  C_28
REMARK    5  A    between atoms: O_4  and  C_23
REMARK    6  A    between atoms: O_4  and  C_29
REMARK    7  A    between atoms: O_5  and  C_26
REMARK    8  A    between atoms: O_5  and  C_32
REMARK    9  A    between atoms: O_6  and  C_33
REMARK   10  A    between atoms: O_6  and  C_34
REMARK   11  A    between atoms: N_7  and  C_15
REMARK   12  A    between atoms: C_11  and  C_16
REMARK   13  A    between atoms: C_15  and  C_17
REMARK   14  A    between atoms: C_20  and  C_24
REMARK   15  A    between atoms: C_32  and  C_33
REMARK                            x       y       z     vdW  Elec       q    Type
REMARK                         _______ _______ _______ _____ _____    ______ ____
ROOT
ATOM      7  N   UNL     1      -4.973   2.313  25.217  0.00  0.00    -0.287 NA
ATOM     11  C   UNL     1      -4.298   3.173  24.224  0.00  0.00    +0.146 C 
ATOM     12  C   UNL     1      -4.621   4.611  24.669  0.00  0.00    +0.030 C 
ATOM     13  C   UNL     1      -5.530   4.458  25.881  0.00  0.00    +0.017 C 
ATOM     14  C   UNL     1      -6.122   3.074  25.710  0.00  0.00    +0.085 C 
ENDROOT
BRANCH  11  16
ATOM      1  O   UNL     1      -2.000   3.792  24.778  0.00  0.00    -0.336 OA
ATOM      8  N   UNL     1      -2.174   1.937  23.534  0.00  0.00    -0.189 NA
ATOM      9  N   UNL     1      -0.690   3.344  24.561  0.00  0.00    -0.054 NA
ATOM     16  C   UNL     1      -2.810   2.907  24.140  0.00  0.00    +0.245 A 
ATOM     20  C   UNL     1      -0.876   2.246  23.821  0.00  0.00    +0.221 A 
BRANCH  20  24
ATOM     10  N   UNL     1      -0.130   0.243  22.823  0.00  0.00    -0.252 NA
ATOM     24  C   UNL     1       0.214   1.439  23.352  0.00  0.00    +0.115 A 
ATOM     25  C   UNL     1       1.517   1.896  23.455  0.00  0.00    +0.077 A 
ATOM     26  C   UNL     1       2.535   1.073  22.986  0.00  0.00    +0.124 A 
ATOM     30  C   UNL     1       0.886  -0.530  22.377  0.00  0.00    +0.115 A 
ATOM     31  C   UNL     1       2.221  -0.164  22.435  0.00  0.00    +0.065 A 
BRANCH  26   5
ATOM      5  O   UNL     1       3.832   1.477  23.064  0.00  0.00    -0.490 OA
BRANCH   5  32
ATOM     32  C   UNL     1       4.834   0.479  22.880  0.00  0.00    +0.257 C 
BRANCH  32  33
ATOM     33  C   UNL     1       5.696   0.409  24.126  0.00  0.00    +0.200 C 
BRANCH  33   6
ATOM      6  O   UNL     1       5.572  -0.885  24.704  0.00  0.00    -0.380 OA
ATOM     34  C   UNL     1       4.717  -1.719  23.933  0.00  0.00    +0.194 C 
ENDBRANCH  33   6
ENDBRANCH  32  33
ENDBRANCH   5  32
ENDBRANCH  26   5
ENDBRANCH  20  24
ENDBRANCH  11  16
BRANCH   7  15
ATOM     15  C   UNL     1      -5.365   1.015  24.680  0.00  0.00    +0.120 C 
BRANCH  15  17
ATOM     17  C   UNL     1      -4.278  -0.013  24.851  0.00  0.00    -0.026 A 
ATOM     18  C   UNL     1      -4.335  -1.212  24.142  0.00  0.00    +0.054 A 
ATOM     19  C   UNL     1      -3.214   0.235  25.719  0.00  0.00    +0.054 A 
ATOM     21  C   UNL     1      -2.207  -0.718  25.877  0.00  0.00    +0.165 A 
ATOM     22  C   UNL     1      -3.328  -2.165  24.300  0.00  0.00    +0.165 A 
ATOM     23  C   UNL     1      -2.264  -1.917  25.168  0.00  0.00    +0.204 A 
BRANCH  21   2
ATOM      2  O   UNL     1      -1.174  -0.463  26.727  0.00  0.00    -0.491 OA
ATOM     27  C   UNL     1      -0.553   0.818  26.627  0.00  0.00    +0.277 C 
ENDBRANCH  21   2
BRANCH  22   3
ATOM      3  O   UNL     1      -3.397  -3.333  23.603  0.00  0.00    -0.491 OA
ATOM     28  C   UNL     1      -4.675  -3.713  23.100  0.00  0.00    +0.277 C 
ENDBRANCH  22   3
BRANCH  23   4
ATOM      4  O   UNL     1      -1.281  -2.848  25.324  0.00  0.00    -0.488 OA
ATOM     29  C   UNL     1       0.064  -2.398  25.181  0.00  0.00    +0.277 C 
ENDBRANCH  23   4
ENDBRANCH  15  17
ENDBRANCH   7  15
TORSDOF 11
ENDMDL
MODEL 2
REMARK VINA RESULT:       0.2      0.091      2.233
REMARK  Name = 45783457
REMARK  15 active torsions:
REMARK  status: ('A' for Active; 'I' for Inactive)
REMARK    1  A    between atoms: O_2  and  C_21
REMARK    2  A    between atoms: O_2  and  C_27
REMARK    3  A    between atoms: O_3  and  C_22
REMARK    4  A    between atoms: O_3  and  C_28
REMARK    5  A    between atoms: O_4  and  C_23
REMARK    6  A    between atoms: O_4  and  C_29
REMARK    7  A    between atoms: O_5  and  C_26
REMARK    8  A    between atoms: O_5  and  C_32
REMARK    9  A    between atoms: O_6  and  C_33
REMARK   10  A    between atoms: O_6  and  C_34
REMARK   11  A    between atoms: N_7  and  C_15
REMARK   12  A    between atoms: C_11  and  C_16
REMARK   13  A    between atoms: C_15  and  C_17
REMARK   14  A    between atoms: C_20  and  C_24
REMARK   15  A    between atoms: C_32  and  C_33
REMARK                            x       y       z     vdW  Elec       q    Type
REMARK                         _______ _______ _______ _____ _____    ______ ____
ROOT
ATOM      7  N   UNL     1      -4.992   2.254  25.206  0.00  0.00    -0.287 NA
ATOM     11  C   UNL     1      -4.343   3.121  24.203  0.00  0.00    +0.146 C 
ATOM     12  C   UNL     1      -4.682   4.556  24.647  0.00  0.00    +0.030 C 
ATOM     13  C   UNL     1      -5.574   4.393  25.870  0.00  0.00    +0.017 C 
ATOM     14  C   UNL     1      -6.146   2.999  25.712  0.00  0.00    +0.085 C 
ENDROOT
BRANCH  11  16
ATOM      1  O   UNL     1      -2.046   3.804  24.682  0.00  0.00    -0.336 OA
ATOM      8  N   UNL     1      -2.210   1.893  23.524  0.00  0.00    -0.189 NA
ATOM      9  N   UNL     1      -0.733   3.370  24.459  0.00  0.00    -0.054 NA
ATOM     16  C   UNL     1      -2.852   2.878  24.100  0.00  0.00    +0.245 A 
ATOM     20  C   UNL     1      -0.913   2.238  23.771  0.00  0.00    +0.221 A 
BRANCH  20  24
ATOM     10  N   UNL     1      -0.157   0.242  22.767  0.00  0.00    -0.252 NA
ATOM     24  C   UNL     1       0.182   1.429  23.316  0.00  0.00    +0.115 A 
ATOM     25  C   UNL     1       1.486   1.878  23.452  0.00  0.00    +0.077 A 
ATOM     26  C   UNL     1       2.508   1.055  22.995  0.00  0.00    +0.124 A 
ATOM     30  C   UNL     1       0.864  -0.531  22.333  0.00  0.00    +0.115 A 
ATOM     31  C   UNL     1       2.200  -0.174  22.423  0.00  0.00    +0.065 A 
BRANCH  26   5
ATOM      5  O   UNL     1       3.805   1.451  23.105  0.00  0.00    -0.490 OA
BRANCH   5  32
ATOM     32  C   UNL     1       4.807   0.500  22.745  0.00  0.00    +0.257 C 
BRANCH  32  33
ATOM     33  C   UNL     1       5.788   0.357  23.893  0.00  0.00    +0.200 C 
BRANCH  33   6
ATOM      6  O   UNL     1       5.386  -0.733  24.713  0.00  0.00    -0.380 OA
ATOM     34  C   UNL     1       4.783  -1.766  23.947  0.00  0.00    +0.194 C 
ENDBRANCH  33   6
ENDBRANCH  32  33
ENDBRANCH   5  32
ENDBRANCH  26   5
ENDBRANCH  20  24
ENDBRANCH  11  16
BRANCH   7  15
ATOM     15  C   UNL     1      -5.371   0.949  24.679  0.00  0.00    +0.120 C 
BRANCH  15  17
ATOM     17  C   UNL     1      -4.269  -0.064  24.848  0.00  0.00    -0.026 A 
ATOM     18  C   UNL     1      -3.201   0.203  25.704  0.00  0.00    +0.054 A 
ATOM     19  C   UNL     1      -4.316  -1.269  24.146  0.00  0.00    +0.054 A 
ATOM     21  C   UNL     1      -3.295  -2.207  24.302  0.00  0.00    +0.165 A 
ATOM     22  C   UNL     1      -2.180  -0.735  25.860  0.00  0.00    +0.165 A 
ATOM     23  C   UNL     1      -2.227  -1.940  25.158  0.00  0.00    +0.204 A 
BRANCH  21   2
ATOM      2  O   UNL     1      -3.354  -3.380  23.611  0.00  0.00    -0.491 OA
ATOM     27  C   UNL     1      -4.646  -3.826  23.200  0.00  0.00    +0.277 C 
ENDBRANCH  21   2
BRANCH  22   3
ATOM      3  O   UNL     1      -1.142  -0.461  26.697  0.00  0.00    -0.491 OA
ATOM     28  C   UNL     1      -0.557   0.836  26.602  0.00  0.00    +0.277 C 
ENDBRANCH  22   3
BRANCH  23   4
ATOM      4  O   UNL     1      -1.230  -2.856  25.308  0.00  0.00    -0.488 OA
ATOM     29  C   UNL     1       0.109  -2.382  25.177  0.00  0.00    +0.277 C 
ENDBRANCH  23   4
ENDBRANCH  15  17
ENDBRANCH   7  15
TORSDOF 11
ENDMDL
MODEL 3
REMARK VINA RESULT:       1.2      1.830      4.237
REMARK  Name = 45783457
REMARK  15 active torsions:
REMARK  status: ('A' for Active; 'I' for Inactive)
REMARK    1  A    between atoms: O_2  and  C_21
REMARK    2  A    between atoms: O_2  and  C_27
REMARK    3  A    between atoms: O_3  and  C_22
REMARK    4  A    between atoms: O_3  and  C_28
REMARK    5  A    between atoms: O_4  and  C_23
REMARK    6  A    between atoms: O_4  and  C_29
REMARK    7  A    between atoms: O_5  and  C_26
REMARK    8  A    between atoms: O_5  and  C_32
REMARK    9  A    between atoms: O_6  and  C_33
REMARK   10  A    between atoms: O_6  and  C_34
REMARK   11  A    between atoms: N_7  and  C_15
REMARK   12  A    between atoms: C_11  and  C_16
REMARK   13  A    between atoms: C_15  and  C_17
REMARK   14  A    between atoms: C_20  and  C_24
REMARK   15  A    between atoms: C_32  and  C_33
REMARK                            x       y       z     vdW  Elec       q    Type
REMARK                         _______ _______ _______ _____ _____    ______ ____
ROOT
ATOM      7  N   UNL     1      -4.400  -1.155  24.255  0.00  0.00    -0.287 NA
ATOM     11  C   UNL     1      -3.270  -1.701  25.032  0.00  0.00    +0.146 C 
ATOM     12  C   UNL     1      -3.212  -3.190  24.646  0.00  0.00    +0.030 C 
ATOM     13  C   UNL     1      -4.384  -3.400  23.697  0.00  0.00    +0.017 C 
ATOM     14  C   UNL     1      -5.328  -2.266  24.038  0.00  0.00    +0.085 C 
ENDROOT
BRANCH  11  16
ATOM      1  O   UNL     1      -1.611  -0.018  25.654  0.00  0.00    -0.336 OA
ATOM      8  N   UNL     1      -1.126  -1.129  23.770  0.00  0.00    -0.189 NA
ATOM      9  N   UNL     1      -0.395   0.506  25.195  0.00  0.00    -0.054 NA
ATOM     16  C   UNL     1      -1.970  -0.974  24.758  0.00  0.00    +0.245 A 
ATOM     20  C   UNL     1      -0.175  -0.200  24.081  0.00  0.00    +0.221 A 
BRANCH  20  24
ATOM     10  N   UNL     1       0.919  -0.538  22.019  0.00  0.00    -0.252 NA
ATOM     24  C   UNL     1       0.983  -0.002  23.259  0.00  0.00    +0.115 A 
ATOM     25  C   UNL     1       2.074   0.700  23.745  0.00  0.00    +0.077 A 
ATOM     26  C   UNL     1       3.171   0.863  22.906  0.00  0.00    +0.124 A 
ATOM     30  C   UNL     1       2.004  -0.360  21.232  0.00  0.00    +0.115 A 
ATOM     31  C   UNL     1       3.142   0.326  21.624  0.00  0.00    +0.065 A 
BRANCH  26   5
ATOM      5  O   UNL     1       4.266   1.545  23.337  0.00  0.00    -0.490 OA
BRANCH   5  32
ATOM     32  C   UNL     1       5.501   0.832  23.375  0.00  0.00    +0.257 C 
BRANCH  32  33
ATOM     33  C   UNL     1       5.530  -0.039  24.616  0.00  0.00    +0.200 C 
BRANCH  33   6
ATOM      6  O   UNL     1       5.681  -1.399  24.225  0.00  0.00    -0.380 OA
ATOM     34  C   UNL     1       4.426  -1.995  23.926  0.00  0.00    +0.194 C 
ENDBRANCH  33   6
ENDBRANCH  32  33
ENDBRANCH   5  32
ENDBRANCH  26   5
ENDBRANCH  20  24
ENDBRANCH  11  16
BRANCH   7  15
ATOM     15  C   UNL     1      -5.047  -0.019  24.900  0.00  0.00    +0.120 C 
BRANCH  15  17
ATOM     17  C   UNL     1      -4.264   1.253  24.711  0.00  0.00    -0.026 A 
ATOM     18  C   UNL     1      -3.447   1.409  23.591  0.00  0.00    +0.054 A 
ATOM     19  C   UNL     1      -4.354   2.275  25.657  0.00  0.00    +0.054 A 
ATOM     21  C   UNL     1      -3.627   3.453  25.482  0.00  0.00    +0.165 A 
ATOM     22  C   UNL     1      -2.721   2.587  23.416  0.00  0.00    +0.165 A 
ATOM     23  C   UNL     1      -2.811   3.609  24.362  0.00  0.00    +0.204 A 
BRANCH  21   2
ATOM      2  O   UNL     1      -3.725   4.443  26.413  0.00  0.00    -0.491 OA
ATOM     27  C   UNL     1      -3.143   4.190  27.691  0.00  0.00    +0.277 C 
ENDBRANCH  21   2
BRANCH  22   3
ATOM      3  O   UNL     1      -1.926   2.726  22.320  0.00  0.00    -0.491 OA
ATOM     28  C   UNL     1      -2.368   2.104  21.115  0.00  0.00    +0.277 C 
ENDBRANCH  22   3
BRANCH  23   4
ATOM      4  O   UNL     1      -2.100   4.760  24.192  0.00  0.00    -0.488 OA
ATOM     29  C   UNL     1      -0.849   4.854  24.869  0.00  0.00    +0.277 C 
ENDBRANCH  23   4
ENDBRANCH  15  17
ENDBRANCH   7  15
TORSDOF 11
ENDMDL
MODEL 4
REMARK VINA RESULT:       1.3      1.899      4.276
REMARK  Name = 45783457
REMARK  15 active torsions:
REMARK  status: ('A' for Active; 'I' for Inactive)
REMARK    1  A    between atoms: O_2  and  C_21
REMARK    2  A    between atoms: O_2  and  C_27
REMARK    3  A    between atoms: O_3  and  C_22
REMARK    4  A    between atoms: O_3  and  C_28
REMARK    5  A    between atoms: O_4  and  C_23
REMARK    6  A    between atoms: O_4  and  C_29
REMARK    7  A    between atoms: O_5  and  C_26
REMARK    8  A    between atoms: O_5  and  C_32
REMARK    9  A    between atoms: O_6  and  C_33
REMARK   10  A    between atoms: O_6  and  C_34
REMARK   11  A    between atoms: N_7  and  C_15
REMARK   12  A    between atoms: C_11  and  C_16
REMARK   13  A    between atoms: C_15  and  C_17
REMARK   14  A    between atoms: C_20  and  C_24
REMARK   15  A    between atoms: C_32  and  C_33
REMARK                            x       y       z     vdW  Elec       q    Type
REMARK                         _______ _______ _______ _____ _____    ______ ____
ROOT
ATOM      7  N   UNL     1      -3.642  -1.314  23.744  0.00  0.00    -0.287 NA
ATOM     11  C   UNL     1      -2.926  -0.891  24.964  0.00  0.00    +0.146 C 
ATOM     12  C   UNL     1      -2.840  -2.163  25.828  0.00  0.00    +0.030 C 
ATOM     13  C   UNL     1      -3.587  -3.230  25.039  0.00  0.00    +0.017 C 
ATOM     14  C   UNL     1      -4.503  -2.430  24.135  0.00  0.00    +0.085 C 
ENDROOT
BRANCH  11  16
ATOM      1  O   UNL     1      -1.135   0.680  25.506  0.00  0.00    -0.336 OA
ATOM      8  N   UNL     1      -0.730  -0.580  23.699  0.00  0.00    -0.189 NA
ATOM      9  N   UNL     1       0.125   1.071  25.034  0.00  0.00    -0.054 NA
ATOM     16  C   UNL     1      -1.567  -0.295  24.664  0.00  0.00    +0.245 A 
ATOM     20  C   UNL     1       0.294   0.282  23.967  0.00  0.00    +0.221 A 
BRANCH  20  24
ATOM     10  N   UNL     1       1.374  -0.275  21.946  0.00  0.00    -0.252 NA
ATOM     24  C   UNL     1       1.472   0.331  23.150  0.00  0.00    +0.115 A 
ATOM     25  C   UNL     1       2.613   0.971  23.607  0.00  0.00    +0.077 A 
ATOM     26  C   UNL     1       3.726   0.989  22.775  0.00  0.00    +0.124 A 
ATOM     30  C   UNL     1       2.476  -0.237  21.164  0.00  0.00    +0.115 A 
ATOM     31  C   UNL     1       3.665   0.376  21.529  0.00  0.00    +0.065 A 
BRANCH  26   5
ATOM      5  O   UNL     1       4.871   1.604  23.178  0.00  0.00    -0.490 OA
BRANCH   5  32
ATOM     32  C   UNL     1       5.714   0.882  24.074  0.00  0.00    +0.257 C 
BRANCH  32  33
ATOM     33  C   UNL     1       6.027  -0.475  23.472  0.00  0.00    +0.200 C 
BRANCH  33   6
ATOM      6  O   UNL     1       5.594  -1.491  24.369  0.00  0.00    -0.380 OA
ATOM     34  C   UNL     1       4.335  -2.023  23.983  0.00  0.00    +0.194 C 
ENDBRANCH  33   6
ENDBRANCH  32  33
ENDBRANCH   5  32
ENDBRANCH  26   5
ENDBRANCH  20  24
ENDBRANCH  11  16
BRANCH   7  15
ATOM     15  C   UNL     1      -4.395  -0.234  23.117  0.00  0.00    +0.120 C 
BRANCH  15  17
ATOM     17  C   UNL     1      -4.320   1.039  23.916  0.00  0.00    -0.026 A 
ATOM     18  C   UNL     1      -5.211   1.257  24.967  0.00  0.00    +0.054 A 
ATOM     19  C   UNL     1      -3.359   2.002  23.605  0.00  0.00    +0.054 A 
ATOM     21  C   UNL     1      -3.290   3.182  24.346  0.00  0.00    +0.165 A 
ATOM     22  C   UNL     1      -5.141   2.437  25.708  0.00  0.00    +0.165 A 
ATOM     23  C   UNL     1      -4.181   3.400  25.397  0.00  0.00    +0.204 A 
BRANCH  21   2
ATOM      2  O   UNL     1      -2.347   4.114  24.032  0.00  0.00    -0.491 OA
ATOM     27  C   UNL     1      -1.106   4.043  24.735  0.00  0.00    +0.277 C 
ENDBRANCH  21   2
BRANCH  22   3
ATOM      3  O   UNL     1      -6.019   2.638  26.730  0.00  0.00    -0.491 OA
ATOM     28  C   UNL     1      -6.772   1.510  27.169  0.00  0.00    +0.277 C 
ENDBRANCH  22   3
BRANCH  23   4
ATOM      4  O   UNL     1      -4.113   4.553  26.119  0.00  0.00    -0.488 OA
ATOM     29  C   UNL     1      -3.309   4.534  27.296  0.00  0.00    +0.277 C 
ENDBRANCH  23   4
ENDBRANCH  15  17
ENDBRANCH   7  15
TORSDOF 11
ENDMDL
MODEL 5
REMARK VINA RESULT:       1.3      1.838      4.577
REMARK  Name = 45783457
REMARK  15 active torsions:
REMARK  status: ('A' for Active; 'I' for Inactive)
REMARK    1  A    between atoms: O_2  and  C_21
REMARK    2  A    between atoms: O_2  and  C_27
REMARK    3  A    between atoms: O_3  and  C_22
REMARK    4  A    between atoms: O_3  and  C_28
REMARK    5  A    between atoms: O_4  and  C_23
REMARK    6  A    between atoms: O_4  and  C_29
REMARK    7  A    between atoms: O_5  and  C_26
REMARK    8  A    between atoms: O_5  and  C_32
REMARK    9  A    between atoms: O_6  and  C_33
REMARK   10  A    between atoms: O_6  and  C_34
REMARK   11  A    between atoms: N_7  and  C_15
REMARK   12  A    between atoms: C_11  and  C_16
REMARK   13  A    between atoms: C_15  and  C_17
REMARK   14  A    between atoms: C_20  and  C_24
REMARK   15  A    between atoms: C_32  and  C_33
REMARK                            x       y       z     vdW  Elec       q    Type
REMARK                         _______ _______ _______ _____ _____    ______ ____
ROOT
ATOM      7  N   UNL     1      -4.384  -1.258  24.201  0.00  0.00    -0.287 NA
ATOM     11  C   UNL     1      -3.251  -1.792  24.983  0.00  0.00    +0.146 C 
ATOM     12  C   UNL     1      -3.170  -3.278  24.589  0.00  0.00    +0.030 C 
ATOM     13  C   UNL     1      -4.332  -3.499  23.631  0.00  0.00    +0.017 C 
ATOM     14  C   UNL     1      -5.295  -2.381  23.973  0.00  0.00    +0.085 C 
ENDROOT
BRANCH  11  16
ATOM      1  O   UNL     1      -1.621  -0.088  25.624  0.00  0.00    -0.336 OA
ATOM      8  N   UNL     1      -1.107  -1.183  23.739  0.00  0.00    -0.189 NA
ATOM      9  N   UNL     1      -0.410   0.456  25.176  0.00  0.00    -0.054 NA
ATOM     16  C   UNL     1      -1.960  -1.045  24.721  0.00  0.00    +0.245 A 
ATOM     20  C   UNL     1      -0.172  -0.243  24.061  0.00  0.00    +0.221 A 
BRANCH  20  24
ATOM     10  N   UNL     1       0.939  -0.549  22.003  0.00  0.00    -0.252 NA
ATOM     24  C   UNL     1       0.989  -0.024  23.247  0.00  0.00    +0.115 A 
ATOM     25  C   UNL     1       2.069   0.686  23.747  0.00  0.00    +0.077 A 
ATOM     26  C   UNL     1       3.169   0.869  22.916  0.00  0.00    +0.124 A 
ATOM     30  C   UNL     1       2.026  -0.352  21.224  0.00  0.00    +0.115 A 
ATOM     31  C   UNL     1       3.155   0.344  21.630  0.00  0.00    +0.065 A 
BRANCH  26   5
ATOM      5  O   UNL     1       4.253   1.560  23.361  0.00  0.00    -0.490 OA
BRANCH   5  32
ATOM     32  C   UNL     1       5.493   0.856  23.415  0.00  0.00    +0.257 C 
BRANCH  32  33
ATOM     33  C   UNL     1       5.501  -0.039  24.639  0.00  0.00    +0.200 C 
BRANCH  33   6
ATOM      6  O   UNL     1       5.677  -1.389  24.227  0.00  0.00    -0.380 OA
ATOM     34  C   UNL     1       4.435  -2.004  23.915  0.00  0.00    +0.194 C 
ENDBRANCH  33   6
ENDBRANCH  32  33
ENDBRANCH   5  32
ENDBRANCH  26   5
ENDBRANCH  20  24
ENDBRANCH  11  16
BRANCH   7  15
ATOM     15  C   UNL     1      -5.052  -0.135  24.849  0.00  0.00    +0.120 C 
BRANCH  15  17
ATOM     17  C   UNL     1      -4.295   1.153  24.656  0.00  0.00    -0.026 A 
ATOM     18  C   UNL     1      -4.355   2.150  25.629  0.00  0.00    +0.054 A 
ATOM     19  C   UNL     1      -3.535   1.349  23.503  0.00  0.00    +0.054 A 
ATOM     21  C   UNL     1      -2.834   2.542  23.323  0.00  0.00    +0.165 A 
ATOM     22  C   UNL     1      -3.655   3.343  25.450  0.00  0.00    +0.165 A 
ATOM     23  C   UNL     1      -2.895   3.539  24.297  0.00  0.00    +0.204 A 
BRANCH  21   2
ATOM      2  O   UNL     1      -2.095   2.720  22.193  0.00  0.00    -0.491 OA
ATOM     27  C   UNL     1      -2.232   1.736  21.168  0.00  0.00    +0.277 C 
ENDBRANCH  21   2
BRANCH  22   3
ATOM      3  O   UNL     1      -3.724   4.309  26.407  0.00  0.00    -0.491 OA
ATOM     28  C   UNL     1      -2.999   4.080  27.613  0.00  0.00    +0.277 C 
ENDBRANCH  22   3
BRANCH  23   4
ATOM      4  O   UNL     1      -2.211   4.705  24.121  0.00  0.00    -0.488 OA
ATOM     29  C   UNL     1      -0.948   4.819  24.773  0.00  0.00    +0.277 C 
ENDBRANCH  23   4
ENDBRANCH  15  17
ENDBRANCH   7  15
TORSDOF 11
ENDMDL
MODEL 6
REMARK VINA RESULT:       2.6      2.296      7.597
REMARK  Name = 45783457
REMARK  15 active torsions:
REMARK  status: ('A' for Active; 'I' for Inactive)
REMARK    1  A    between atoms: O_2  and  C_21
REMARK    2  A    between atoms: O_2  and  C_27
REMARK    3  A    between atoms: O_3  and  C_22
REMARK    4  A    between atoms: O_3  and  C_28
REMARK    5  A    between atoms: O_4  and  C_23
REMARK    6  A    between atoms: O_4  and  C_29
REMARK    7  A    between atoms: O_5  and  C_26
REMARK    8  A    between atoms: O_5  and  C_32
REMARK    9  A    between atoms: O_6  and  C_33
REMARK   10  A    between atoms: O_6  and  C_34
REMARK   11  A    between atoms: N_7  and  C_15
REMARK   12  A    between atoms: C_11  and  C_16
REMARK   13  A    between atoms: C_15  and  C_17
REMARK   14  A    between atoms: C_20  and  C_24
REMARK   15  A    between atoms: C_32  and  C_33
REMARK                            x       y       z     vdW  Elec       q    Type
REMARK                         _______ _______ _______ _____ _____    ______ ____
ROOT
ATOM      7  N   UNL     1       2.802   1.122  23.510  0.00  0.00    -0.287 NA
ATOM     11  C   UNL     1       2.299  -0.062  22.786  0.00  0.00    +0.146 C 
ATOM     12  C   UNL     1       3.514  -1.002  22.682  0.00  0.00    +0.030 C 
ATOM     13  C   UNL     1       4.665  -0.236  23.319  0.00  0.00    +0.017 C 
ATOM     14  C   UNL     1       4.232   1.212  23.213  0.00  0.00    +0.085 C 
ENDROOT
BRANCH  11  16
ATOM      1  O   UNL     1       1.392  -1.434  24.594  0.00  0.00    -0.336 OA
ATOM      8  N   UNL     1      -0.151  -0.676  23.158  0.00  0.00    -0.189 NA
ATOM      9  N   UNL     1       0.161  -1.926  25.049  0.00  0.00    -0.054 NA
ATOM     16  C   UNL     1       1.117  -0.709  23.478  0.00  0.00    +0.245 A 
ATOM     20  C   UNL     1      -0.699  -1.435  24.150  0.00  0.00    +0.221 A 
BRANCH  20  24
ATOM     10  N   UNL     1      -2.471  -2.988  24.252  0.00  0.00    -0.252 NA
ATOM     24  C   UNL     1      -2.110  -1.686  24.216  0.00  0.00    +0.115 A 
ATOM     25  C   UNL     1      -3.007  -0.631  24.240  0.00  0.00    +0.077 A 
ATOM     26  C   UNL     1      -4.363  -0.930  24.305  0.00  0.00    +0.124 A 
ATOM     30  C   UNL     1      -3.798  -3.241  24.314  0.00  0.00    +0.115 A 
ATOM     31  C   UNL     1      -4.774  -2.257  24.343  0.00  0.00    +0.065 A 
BRANCH  26   5
ATOM      5  O   UNL     1      -5.284   0.071  24.331  0.00  0.00    -0.490 OA
BRANCH   5  32
ATOM     32  C   UNL     1      -4.967   1.222  25.113  0.00  0.00    +0.257 C 
BRANCH  32  33
ATOM     33  C   UNL     1      -6.192   1.632  25.907  0.00  0.00    +0.200 C 
BRANCH  33   6
ATOM      6  O   UNL     1      -5.981   2.931  26.449  0.00  0.00    -0.380 OA
ATOM     34  C   UNL     1      -5.831   3.903  25.424  0.00  0.00    +0.194 C 
ENDBRANCH  33   6
ENDBRANCH  32  33
ENDBRANCH   5  32
ENDBRANCH  26   5
ENDBRANCH  20  24
ENDBRANCH  11  16
BRANCH   7  15
ATOM     15  C   UNL     1       2.093   2.350  23.168  0.00  0.00    +0.120 C 
BRANCH  15  17
ATOM     17  C   UNL     1       0.839   2.518  23.983  0.00  0.00    -0.026 A 
ATOM     18  C   UNL     1       0.899   2.465  25.375  0.00  0.00    +0.054 A 
ATOM     19  C   UNL     1      -0.385   2.725  23.345  0.00  0.00    +0.054 A 
ATOM     21  C   UNL     1      -1.548   2.880  24.101  0.00  0.00    +0.165 A 
ATOM     22  C   UNL     1      -0.263   2.620  26.131  0.00  0.00    +0.165 A 
ATOM     23  C   UNL     1      -1.487   2.827  25.493  0.00  0.00    +0.204 A 
BRANCH  21   2
ATOM      2  O   UNL     1      -2.735   3.083  23.465  0.00  0.00    -0.491 OA
ATOM     27  C   UNL     1      -2.934   2.399  22.229  0.00  0.00    +0.277 C 
ENDBRANCH  21   2
BRANCH  22   3
ATOM      3  O   UNL     1      -0.191   2.564  27.489  0.00  0.00    -0.491 OA
ATOM     28  C   UNL     1       1.112   2.543  28.069  0.00  0.00    +0.277 C 
ENDBRANCH  22   3
BRANCH  23   4
ATOM      4  O   UNL     1      -2.623   2.978  26.230  0.00  0.00    -0.488 OA
ATOM     29  C   UNL     1      -2.979   4.306  26.607  0.00  0.00    +0.277 C 
ENDBRANCH  23   4
ENDBRANCH  15  17
ENDBRANCH   7  15
TORSDOF 11
ENDMDL
MODEL 7
REMARK VINA RESULT:       2.6      2.299      7.346
REMARK  Name = 45783457
REMARK  15 active torsions:
REMARK  status: ('A' for Active; 'I' for Inactive)
REMARK    1  A    between atoms: O_2  and  C_21
REMARK    2  A    between atoms: O_2  and  C_27
REMARK    3  A    between atoms: O_3  and  C_22
REMARK    4  A    between atoms: O_3  and  C_28
REMARK    5  A    between atoms: O_4  and  C_23
REMARK    6  A    between atoms: O_4  and  C_29
REMARK    7  A    between atoms: O_5  and  C_26
REMARK    8  A    between atoms: O_5  and  C_32
REMARK    9  A    between atoms: O_6  and  C_33
REMARK   10  A    between atoms: O_6  and  C_34
REMARK   11  A    between atoms: N_7  and  C_15
REMARK   12  A    between atoms: C_11  and  C_16
REMARK   13  A    between atoms: C_15  and  C_17
REMARK   14  A    between atoms: C_20  and  C_24
REMARK   15  A    between atoms: C_32  and  C_33
REMARK                            x       y       z     vdW  Elec       q    Type
REMARK                         _______ _______ _______ _____ _____    ______ ____
ROOT
ATOM      7  N   UNL     1       2.808   1.109  23.518  0.00  0.00    -0.287 NA
ATOM     11  C   UNL     1       2.301  -0.073  22.792  0.00  0.00    +0.146 C 
ATOM     12  C   UNL     1       3.513  -1.016  22.686  0.00  0.00    +0.030 C 
ATOM     13  C   UNL     1       4.667  -0.254  23.323  0.00  0.00    +0.017 C 
ATOM     14  C   UNL     1       4.238   1.195  23.220  0.00  0.00    +0.085 C 
ENDROOT
BRANCH  11  16
ATOM      1  O   UNL     1       1.390  -1.444  24.598  0.00  0.00    -0.336 OA
ATOM      8  N   UNL     1      -0.151  -0.679  23.164  0.00  0.00    -0.189 NA
ATOM      9  N   UNL     1       0.159  -1.933  25.054  0.00  0.00    -0.054 NA
ATOM     16  C   UNL     1       1.117  -0.716  23.484  0.00  0.00    +0.245 A 
ATOM     20  C   UNL     1      -0.701  -1.439  24.156  0.00  0.00    +0.221 A 
BRANCH  20  24
ATOM     10  N   UNL     1      -2.478  -2.986  24.256  0.00  0.00    -0.252 NA
ATOM     24  C   UNL     1      -2.112  -1.685  24.223  0.00  0.00    +0.115 A 
ATOM     25  C   UNL     1      -3.006  -0.627  24.250  0.00  0.00    +0.077 A 
ATOM     26  C   UNL     1      -4.363  -0.922  24.315  0.00  0.00    +0.124 A 
ATOM     30  C   UNL     1      -3.805  -3.235  24.318  0.00  0.00    +0.115 A 
ATOM     31  C   UNL     1      -4.778  -2.248  24.350  0.00  0.00    +0.065 A 
BRANCH  26   5
ATOM      5  O   UNL     1      -5.280   0.082  24.345  0.00  0.00    -0.490 OA
BRANCH   5  32
ATOM     32  C   UNL     1      -4.962   1.228  25.134  0.00  0.00    +0.257 C 
BRANCH  32  33
ATOM     33  C   UNL     1      -6.198   1.657  25.901  0.00  0.00    +0.200 C 
BRANCH  33   6
ATOM      6  O   UNL     1      -5.986   2.962  26.429  0.00  0.00    -0.380 OA
ATOM     34  C   UNL     1      -5.829   3.922  25.393  0.00  0.00    +0.194 C 
ENDBRANCH  33   6
ENDBRANCH  32  33
ENDBRANCH   5  32
ENDBRANCH  26   5
ENDBRANCH  20  24
ENDBRANCH  11  16
BRANCH   7  15
ATOM     15  C   UNL     1       2.102   2.339  23.177  0.00  0.00    +0.120 C 
BRANCH  15  17
ATOM     17  C   UNL     1       0.840   2.502  23.982  0.00  0.00    -0.026 A 
ATOM     18  C   UNL     1      -0.383   2.673  23.333  0.00  0.00    +0.054 A 
ATOM     19  C   UNL     1       0.894   2.482  25.375  0.00  0.00    +0.054 A 
ATOM     21  C   UNL     1      -0.275   2.633  26.121  0.00  0.00    +0.165 A 
ATOM     22  C   UNL     1      -1.552   2.824  24.079  0.00  0.00    +0.165 A 
ATOM     23  C   UNL     1      -1.498   2.805  25.473  0.00  0.00    +0.204 A 
BRANCH  21   2
ATOM      2  O   UNL     1      -0.208   2.611  27.481  0.00  0.00    -0.491 OA
ATOM     27  C   UNL     1       1.092   2.543  28.065  0.00  0.00    +0.277 C 
ENDBRANCH  21   2
BRANCH  22   3
ATOM      3  O   UNL     1      -2.740   2.993  23.434  0.00  0.00    -0.491 OA
ATOM     28  C   UNL     1      -2.880   2.368  22.160  0.00  0.00    +0.277 C 
ENDBRANCH  22   3
BRANCH  23   4
ATOM      4  O   UNL     1      -2.640   2.953  26.201  0.00  0.00    -0.488 OA
ATOM     29  C   UNL     1      -2.967   4.274  26.629  0.00  0.00    +0.277 C 
ENDBRANCH  23   4
ENDBRANCH  15  17
ENDBRANCH   7  15
TORSDOF 11
ENDMDL
MODEL 8
REMARK VINA RESULT:       2.8      1.807      4.588
REMARK  Name = 45783457
REMARK  15 active torsions:
REMARK  status: ('A' for Active; 'I' for Inactive)
REMARK    1  A    between atoms: O_2  and  C_21
REMARK    2  A    between atoms: O_2  and  C_27
REMARK    3  A    between atoms: O_3  and  C_22
REMARK    4  A    between atoms: O_3  and  C_28
REMARK    5  A    between atoms: O_4  and  C_23
REMARK    6  A    between atoms: O_4  and  C_29
REMARK    7  A    between atoms: O_5  and  C_26
REMARK    8  A    between atoms: O_5  and  C_32
REMARK    9  A    between atoms: O_6  and  C_33
REMARK   10  A    between atoms: O_6  and  C_34
REMARK   11  A    between atoms: N_7  and  C_15
REMARK   12  A    between atoms: C_11  and  C_16
REMARK   13  A    between atoms: C_15  and  C_17
REMARK   14  A    between atoms: C_20  and  C_24
REMARK   15  A    between atoms: C_32  and  C_33
REMARK                            x       y       z     vdW  Elec       q    Type
REMARK                         _______ _______ _______ _____ _____    ______ ____
ROOT
ATOM      7  N   UNL     1      -4.097  -1.255  24.462  0.00  0.00    -0.287 NA
ATOM     11  C   UNL     1      -3.076  -2.220  24.914  0.00  0.00    +0.146 C 
ATOM     12  C   UNL     1      -3.362  -3.500  24.107  0.00  0.00    +0.030 C 
ATOM     13  C   UNL     1      -4.597  -3.178  23.276  0.00  0.00    +0.017 C 
ATOM     14  C   UNL     1      -5.254  -2.045  24.038  0.00  0.00    +0.085 C 
ENDROOT
BRANCH  11  16
ATOM      1  O   UNL     1      -0.895  -1.610  25.833  0.00  0.00    -0.336 OA
ATOM      8  N   UNL     1      -1.062  -1.338  23.616  0.00  0.00    -0.189 NA
ATOM      9  N   UNL     1       0.347  -1.121  25.407  0.00  0.00    -0.054 NA
ATOM     16  C   UNL     1      -1.664  -1.708  24.717  0.00  0.00    +0.245 A 
ATOM     20  C   UNL     1       0.170  -0.987  24.089  0.00  0.00    +0.221 A 
BRANCH  20  24
ATOM     10  N   UNL     1       1.092  -0.871  21.921  0.00  0.00    -0.252 NA
ATOM     24  C   UNL     1       1.203  -0.505  23.217  0.00  0.00    +0.115 A 
ATOM     25  C   UNL     1       2.227   0.283  23.717  0.00  0.00    +0.077 A 
ATOM     26  C   UNL     1       3.202   0.724  22.829  0.00  0.00    +0.124 A 
ATOM     30  C   UNL     1       2.058  -0.424  21.087  0.00  0.00    +0.115 A 
ATOM     31  C   UNL     1       3.123   0.368  21.488  0.00  0.00    +0.065 A 
BRANCH  26   5
ATOM      5  O   UNL     1       4.228   1.500  23.271  0.00  0.00    -0.490 OA
BRANCH   5  32
ATOM     32  C   UNL     1       5.516   0.892  23.345  0.00  0.00    +0.257 C 
BRANCH  32  33
ATOM     33  C   UNL     1       5.441  -0.313  24.264  0.00  0.00    +0.200 C 
BRANCH  33   6
ATOM      6  O   UNL     1       5.189  -1.476  23.485  0.00  0.00    -0.380 OA
ATOM     34  C   UNL     1       4.534  -2.480  24.247  0.00  0.00    +0.194 C 
ENDBRANCH  33   6
ENDBRANCH  32  33
ENDBRANCH   5  32
ENDBRANCH  26   5
ENDBRANCH  20  24
ENDBRANCH  11  16
BRANCH   7  15
ATOM     15  C   UNL     1      -4.449  -0.271  25.479  0.00  0.00    +0.120 C 
BRANCH  15  17
ATOM     17  C   UNL     1      -3.902   1.093  25.152  0.00  0.00    -0.026 A 
ATOM     18  C   UNL     1      -4.772   2.166  24.961  0.00  0.00    +0.054 A 
ATOM     19  C   UNL     1      -2.524   1.283  25.039  0.00  0.00    +0.054 A 
ATOM     21  C   UNL     1      -2.017   2.547  24.735  0.00  0.00    +0.165 A 
ATOM     22  C   UNL     1      -4.265   3.430  24.657  0.00  0.00    +0.165 A 
ATOM     23  C   UNL     1      -2.887   3.620  24.544  0.00  0.00    +0.204 A 
BRANCH  21   2
ATOM      2  O   UNL     1      -0.670   2.718  24.628  0.00  0.00    -0.491 OA
ATOM     27  C   UNL     1       0.120   2.366  25.763  0.00  0.00    +0.277 C 
ENDBRANCH  21   2
BRANCH  22   3
ATOM      3  O   UNL     1      -5.125   4.469  24.471  0.00  0.00    -0.491 OA
ATOM     28  C   UNL     1      -5.912   4.868  25.591  0.00  0.00    +0.277 C 
ENDBRANCH  22   3
BRANCH  23   4
ATOM      4  O   UNL     1      -2.392   4.854  24.246  0.00  0.00    -0.488 OA
ATOM     29  C   UNL     1      -1.630   5.507  25.259  0.00  0.00    +0.277 C 
ENDBRANCH  23   4
ENDBRANCH  15  17
ENDBRANCH   7  15
TORSDOF 11
ENDMDL
MODEL 9
REMARK VINA RESULT:       3.8      1.651      4.826
REMARK  Name = 45783457
REMARK  15 active torsions:
REMARK  status: ('A' for Active; 'I' for Inactive)
REMARK    1  A    between atoms: O_2  and  C_21
REMARK    2  A    between atoms: O_2  and  C_27
REMARK    3  A    between atoms: O_3  and  C_22
REMARK    4  A    between atoms: O_3  and  C_28
REMARK    5  A    between atoms: O_4  and  C_23
REMARK    6  A    between atoms: O_4  and  C_29
REMARK    7  A    between atoms: O_5  and  C_26
REMARK    8  A    between atoms: O_5  and  C_32
REMARK    9  A    between atoms: O_6  and  C_33
REMARK   10  A    between atoms: O_6  and  C_34
REMARK   11  A    between atoms: N_7  and  C_15
REMARK   12  A    between atoms: C_11  and  C_16
REMARK   13  A    between atoms: C_15  and  C_17
REMARK   14  A    between atoms: C_20  and  C_24
REMARK   15  A    between atoms: C_32  and  C_33
REMARK                            x       y       z     vdW  Elec       q    Type
REMARK                         _______ _______ _______ _____ _____    ______ ____
ROOT
ATOM      7  N   UNL     1      -4.055  -1.062  24.488  0.00  0.00    -0.287 NA
ATOM     11  C   UNL     1      -3.120  -2.167  24.782  0.00  0.00    +0.146 C 
ATOM     12  C   UNL     1      -3.509  -3.282  23.795  0.00  0.00    +0.030 C 
ATOM     13  C   UNL     1      -4.708  -2.737  23.031  0.00  0.00    +0.017 C 
ATOM     14  C   UNL     1      -5.272  -1.680  23.959  0.00  0.00    +0.085 C 
ENDROOT
BRANCH  11  16
ATOM      1  O   UNL     1      -0.768  -2.474  25.370  0.00  0.00    -0.336 OA
ATOM      8  N   UNL     1      -1.143  -0.784  23.948  0.00  0.00    -0.189 NA
ATOM      9  N   UNL     1       0.485  -1.911  25.095  0.00  0.00    -0.054 NA
ATOM     16  C   UNL     1      -1.670  -1.751  24.654  0.00  0.00    +0.245 A 
ATOM     20  C   UNL     1       0.181  -0.921  24.249  0.00  0.00    +0.221 A 
BRANCH  20  24
ATOM     10  N   UNL     1       0.967   1.271  23.870  0.00  0.00    -0.252 NA
ATOM     24  C   UNL     1       1.176  -0.052  23.689  0.00  0.00    +0.115 A 
ATOM     25  C   UNL     1       2.265  -0.581  23.014  0.00  0.00    +0.077 A 
ATOM     26  C   UNL     1       3.199   0.306  22.491  0.00  0.00    +0.124 A 
ATOM     30  C   UNL     1       1.896   2.102  23.347  0.00  0.00    +0.115 A 
ATOM     31  C   UNL     1       3.019   1.674  22.656  0.00  0.00    +0.065 A 
BRANCH  26   5
ATOM      5  O   UNL     1       4.286  -0.164  21.820  0.00  0.00    -0.490 OA
BRANCH   5  32
ATOM     32  C   UNL     1       5.537  -0.125  22.505  0.00  0.00    +0.257 C 
BRANCH  32  33
ATOM     33  C   UNL     1       5.538  -1.184  23.592  0.00  0.00    +0.200 C 
BRANCH  33   6
ATOM      6  O   UNL     1       5.283  -0.562  24.845  0.00  0.00    -0.380 OA
ATOM     34  C   UNL     1       5.777   0.770  24.876  0.00  0.00    +0.194 C 
ENDBRANCH  33   6
ENDBRANCH  32  33
ENDBRANCH   5  32
ENDBRANCH  26   5
ENDBRANCH  20  24
ENDBRANCH  11  16
BRANCH   7  15
ATOM     15  C   UNL     1      -4.328  -0.216  25.644  0.00  0.00    +0.120 C 
BRANCH  15  17
ATOM     17  C   UNL     1      -3.756   1.166  25.474  0.00  0.00    -0.026 A 
ATOM     18  C   UNL     1      -2.391   1.384  25.662  0.00  0.00    +0.054 A 
ATOM     19  C   UNL     1      -4.591   2.229  25.129  0.00  0.00    +0.054 A 
ATOM     21  C   UNL     1      -4.061   3.510  24.971  0.00  0.00    +0.165 A 
ATOM     22  C   UNL     1      -1.861   2.665  25.504  0.00  0.00    +0.165 A 
ATOM     23  C   UNL     1      -2.696   3.728  25.159  0.00  0.00    +0.204 A 
BRANCH  21   2
ATOM      2  O   UNL     1      -4.888   4.538  24.633  0.00  0.00    -0.491 OA
ATOM     27  C   UNL     1      -5.986   4.801  25.507  0.00  0.00    +0.277 C 
ENDBRANCH  21   2
BRANCH  22   3
ATOM      3  O   UNL     1      -0.527   2.865  25.693  0.00  0.00    -0.491 OA
ATOM     28  C   UNL     1       0.033   2.389  26.914  0.00  0.00    +0.277 C 
ENDBRANCH  22   3
BRANCH  23   4
ATOM      4  O   UNL     1      -2.179   4.979  25.007  0.00  0.00    -0.488 OA
ATOM     29  C   UNL     1      -0.801   5.072  24.653  0.00  0.00    +0.277 C 
ENDBRANCH  23   4
ENDBRANCH  15  17
ENDBRANCH   7  15
TORSDOF 11
ENDMDL
