MODEL 1
REMARK VINA RESULT:      -5.0      0.000      0.000
REMARK  Name = 26743712
REMARK  7 active torsions:
REMARK  status: ('A' for Active; 'I' for Inactive)
REMARK    1  A    between atoms: O_4  and  C_17
REMARK    2  A    between atoms: O_6  and  C_28
REMARK    3  A    between atoms: O_6  and  C_29
REMARK    4  A    between atoms: N_7  and  C_11
REMARK    5  A    between atoms: C_10  and  C_11
REMARK    6  A    between atoms: C_12  and  C_21
REMARK    7  A    between atoms: C_22  and  C_23
REMARK                            x       y       z     vdW  Elec       q    Type
REMARK                         _______ _______ _______ _____ _____    ______ ____
ROOT
ATOM      5  O   UNL     1      -2.081   2.624  25.679  0.00  0.00    -0.336 OA
ATOM      8  N   UNL     1      -1.769   1.792  23.623  0.00  0.00    -0.190 NA
ATOM      9  N   UNL     1      -0.726   2.279  25.600  0.00  0.00    -0.056 NA
ATOM     21  C   UNL     1      -2.622   2.305  24.473  0.00  0.00    +0.245 A 
ATOM     22  C   UNL     1      -0.619   1.797  24.358  0.00  0.00    +0.202 A 
ENDROOT
BRANCH  22  23
ATOM     23  C   UNL     1       0.619   1.310  23.823  0.00  0.00    +0.023 A 
ATOM     24  C   UNL     1       0.735  -0.025  23.433  0.00  0.00    +0.015 A 
ATOM     25  C   UNL     1       1.710   2.170  23.694  0.00  0.00    +0.015 A 
ATOM     26  C   UNL     1       1.939  -0.499  22.914  0.00  0.00    +0.046 A 
ATOM     27  C   UNL     1       2.914   1.697  23.175  0.00  0.00    +0.046 A 
ATOM     28  C   UNL     1       3.029   0.362  22.785  0.00  0.00    +0.130 A 
BRANCH  28   6
ATOM      6  O   UNL     1       4.205  -0.099  22.279  0.00  0.00    -0.406 OA
BRANCH   6  29
ATOM      1  F   UNL     1       5.107  -1.295  23.967  0.00  0.00    -0.133 F 
ATOM      2  F   UNL     1       6.458  -0.440  22.478  0.00  0.00    -0.133 F 
ATOM      3  F   UNL     1       5.442   0.864  23.945  0.00  0.00    -0.133 F 
ATOM     29  C   UNL     1       5.314  -0.229  23.161  0.00  0.00    +0.575 C 
ENDBRANCH   6  29
ENDBRANCH  28   6
ENDBRANCH  22  23
BRANCH  21  12
ATOM      7  N   UNL     1      -4.949   1.661  25.079  0.00  0.00    -0.289 NA
ATOM     12  C   UNL     1      -4.099   2.586  24.301  0.00  0.00    +0.148 C 
ATOM     15  C   UNL     1      -6.165   2.399  25.413  0.00  0.00    +0.116 C 
ATOM     16  C   UNL     1      -4.499   3.991  24.786  0.00  0.00    +0.061 C 
ATOM     17  C   UNL     1      -5.610   3.756  25.802  0.00  0.00    +0.130 C 
BRANCH  17   4
ATOM      4  O   UNL     1      -6.593   4.769  25.714  0.00  0.00    -0.390 OA
ATOM     30  H   UNL     1      -6.706   5.143  26.604  0.00  0.00    +0.210 HD
ENDBRANCH  17   4
BRANCH   7  11
ATOM     11  C   UNL     1      -5.237   0.417  24.376  0.00  0.00    +0.088 C 
BRANCH  11  10
ATOM     10  C   UNL     1      -4.022  -0.508  24.388  0.00  0.00    +0.003 C 
ATOM     13  C   UNL     1      -3.449  -0.634  25.806  0.00  0.00    +0.005 C 
ATOM     14  C   UNL     1      -4.385  -1.888  23.822  0.00  0.00    +0.005 C 
ATOM     18  C   UNL     1      -2.265  -1.596  25.854  0.00  0.00    +0.000 C 
ATOM     19  C   UNL     1      -3.199  -2.849  23.873  0.00  0.00    +0.000 C 
ATOM     20  C   UNL     1      -2.628  -2.963  25.282  0.00  0.00    +0.000 C 
ENDBRANCH  11  10
ENDBRANCH   7  11
ENDBRANCH  21  12
TORSDOF 7
ENDMDL
MODEL 2
REMARK VINA RESULT:      -5.0      0.482      1.543
REMARK  Name = 26743712
REMARK  7 active torsions:
REMARK  status: ('A' for Active; 'I' for Inactive)
REMARK    1  A    between atoms: O_4  and  C_17
REMARK    2  A    between atoms: O_6  and  C_28
REMARK    3  A    between atoms: O_6  and  C_29
REMARK    4  A    between atoms: N_7  and  C_11
REMARK    5  A    between atoms: C_10  and  C_11
REMARK    6  A    between atoms: C_12  and  C_21
REMARK    7  A    between atoms: C_22  and  C_23
REMARK                            x       y       z     vdW  Elec       q    Type
REMARK                         _______ _______ _______ _____ _____    ______ ____
ROOT
ATOM      5  O   UNL     1      -1.850   3.548  25.069  0.00  0.00    -0.336 OA
ATOM      8  N   UNL     1      -1.715   1.851  23.614  0.00  0.00    -0.190 NA
ATOM      9  N   UNL     1      -0.491   3.228  24.969  0.00  0.00    -0.056 NA
ATOM     21  C   UNL     1      -2.501   2.690  24.239  0.00  0.00    +0.245 A 
ATOM     22  C   UNL     1      -0.491   2.220  24.092  0.00  0.00    +0.202 A 
ENDROOT
BRANCH  22  23
ATOM     23  C   UNL     1       0.711   1.558  23.676  0.00  0.00    +0.023 A 
ATOM     24  C   UNL     1       1.883   2.291  23.487  0.00  0.00    +0.015 A 
ATOM     25  C   UNL     1       0.709   0.180  23.459  0.00  0.00    +0.015 A 
ATOM     26  C   UNL     1       3.051   1.647  23.081  0.00  0.00    +0.046 A 
ATOM     27  C   UNL     1       1.878  -0.464  23.053  0.00  0.00    +0.046 A 
ATOM     28  C   UNL     1       3.049   0.270  22.864  0.00  0.00    +0.130 A 
BRANCH  28   6
ATOM      6  O   UNL     1       4.189  -0.360  22.468  0.00  0.00    -0.406 OA
BRANCH   6  29
ATOM      1  F   UNL     1       6.436  -0.443  22.659  0.00  0.00    -0.133 F 
ATOM      2  F   UNL     1       5.322   0.715  24.139  0.00  0.00    -0.133 F 
ATOM      3  F   UNL     1       5.239  -1.494  24.154  0.00  0.00    -0.133 F 
ATOM     29  C   UNL     1       5.287  -0.394  23.371  0.00  0.00    +0.575 C 
ENDBRANCH   6  29
ENDBRANCH  28   6
ENDBRANCH  22  23
BRANCH  21  12
ATOM      7  N   UNL     1      -4.714   1.791  24.938  0.00  0.00    -0.289 NA
ATOM     12  C   UNL     1      -4.006   2.833  24.166  0.00  0.00    +0.148 C 
ATOM     15  C   UNL     1      -5.972   2.388  25.381  0.00  0.00    +0.116 C 
ATOM     16  C   UNL     1      -4.507   4.166  24.751  0.00  0.00    +0.061 C 
ATOM     17  C   UNL     1      -5.526   3.772  25.813  0.00  0.00    +0.130 C 
BRANCH  17   4
ATOM      4  O   UNL     1      -6.605   4.687  25.838  0.00  0.00    -0.390 OA
ATOM     30  H   UNL     1      -7.256   4.388  25.180  0.00  0.00    +0.210 HD
ENDBRANCH  17   4
BRANCH   7  11
ATOM     11  C   UNL     1      -4.925   0.561  24.184  0.00  0.00    +0.088 C 
BRANCH  11  10
ATOM     10  C   UNL     1      -4.193  -0.609  24.837  0.00  0.00    +0.003 C 
ATOM     13  C   UNL     1      -4.144  -1.815  23.889  0.00  0.00    +0.005 C 
ATOM     14  C   UNL     1      -2.778  -0.193  25.265  0.00  0.00    +0.005 C 
ATOM     18  C   UNL     1      -3.370  -2.981  24.499  0.00  0.00    +0.000 C 
ATOM     19  C   UNL     1      -2.006  -1.363  25.871  0.00  0.00    +0.000 C 
ATOM     20  C   UNL     1      -1.969  -2.562  24.930  0.00  0.00    +0.000 C 
ENDBRANCH  11  10
ENDBRANCH   7  11
ENDBRANCH  21  12
TORSDOF 7
ENDMDL
MODEL 3
REMARK VINA RESULT:      -1.6      1.933      3.681
REMARK  Name = 26743712
REMARK  7 active torsions:
REMARK  status: ('A' for Active; 'I' for Inactive)
REMARK    1  A    between atoms: O_4  and  C_17
REMARK    2  A    between atoms: O_6  and  C_28
REMARK    3  A    between atoms: O_6  and  C_29
REMARK    4  A    between atoms: N_7  and  C_11
REMARK    5  A    between atoms: C_10  and  C_11
REMARK    6  A    between atoms: C_12  and  C_21
REMARK    7  A    between atoms: C_22  and  C_23
REMARK                            x       y       z     vdW  Elec       q    Type
REMARK                         _______ _______ _______ _____ _____    ______ ____
ROOT
ATOM      5  O   UNL     1      -2.944   1.722  23.003  0.00  0.00    -0.336 OA
ATOM      8  N   UNL     1      -1.499   0.991  24.551  0.00  0.00    -0.190 NA
ATOM      9  N   UNL     1      -1.713   1.578  22.351  0.00  0.00    -0.056 NA
ATOM     21  C   UNL     1      -2.730   1.356  24.295  0.00  0.00    +0.245 A 
ATOM     22  C   UNL     1      -0.913   1.143  23.328  0.00  0.00    +0.202 A 
ENDROOT
BRANCH  22  23
ATOM     23  C   UNL     1       0.476   0.853  23.118  0.00  0.00    +0.023 A 
ATOM     24  C   UNL     1       1.447   1.784  23.487  0.00  0.00    +0.015 A 
ATOM     25  C   UNL     1       0.856  -0.359  22.541  0.00  0.00    +0.015 A 
ATOM     26  C   UNL     1       2.798   1.503  23.280  0.00  0.00    +0.046 A 
ATOM     27  C   UNL     1       2.206  -0.641  22.335  0.00  0.00    +0.046 A 
ATOM     28  C   UNL     1       3.177   0.290  22.705  0.00  0.00    +0.130 A 
BRANCH  28   6
ATOM      6  O   UNL     1       4.495   0.015  22.503  0.00  0.00    -0.406 OA
BRANCH   6  29
ATOM      1  F   UNL     1       6.589  -0.395  23.237  0.00  0.00    -0.133 F 
ATOM      2  F   UNL     1       5.240   0.714  24.549  0.00  0.00    -0.133 F 
ATOM      3  F   UNL     1       4.938  -1.448  24.205  0.00  0.00    -0.133 F 
ATOM     29  C   UNL     1       5.303  -0.278  23.637  0.00  0.00    +0.575 C 
ENDBRANCH   6  29
ENDBRANCH  28   6
ENDBRANCH  22  23
BRANCH  21  12
ATOM      7  N   UNL     1      -4.266   2.810  25.608  0.00  0.00    -0.289 NA
ATOM     12  C   UNL     1      -3.924   1.425  25.222  0.00  0.00    +0.148 C 
ATOM     15  C   UNL     1      -5.707   2.827  25.850  0.00  0.00    +0.116 C 
ATOM     16  C   UNL     1      -5.208   0.865  24.583  0.00  0.00    +0.061 C 
ATOM     17  C   UNL     1      -6.228   1.992  24.696  0.00  0.00    +0.130 C 
BRANCH  17   4
ATOM      4  O   UNL     1      -7.518   1.476  24.962  0.00  0.00    -0.390 OA
ATOM     30  H   UNL     1      -7.764   1.755  25.860  0.00  0.00    +0.210 HD
ENDBRANCH  17   4
BRANCH   7  11
ATOM     11  C   UNL     1      -3.510   3.288  26.759  0.00  0.00    +0.088 C 
BRANCH  11  10
ATOM     10  C   UNL     1      -2.295   4.098  26.312  0.00  0.00    +0.003 C 
ATOM     13  C   UNL     1      -1.079   3.184  26.110  0.00  0.00    +0.005 C 
ATOM     14  C   UNL     1      -2.607   4.882  25.030  0.00  0.00    +0.005 C 
ATOM     18  C   UNL     1       0.136   3.963  25.612  0.00  0.00    +0.000 C 
ATOM     19  C   UNL     1      -1.390   5.658  24.533  0.00  0.00    +0.000 C 
ATOM     20  C   UNL     1      -0.181   4.748  24.343  0.00  0.00    +0.000 C 
ENDBRANCH  11  10
ENDBRANCH   7  11
ENDBRANCH  21  12
TORSDOF 7
ENDMDL
