MODEL 1
REMARK VINA RESULT:       6.5      0.000      0.000
REMARK  Name = 11882060
REMARK  9 active torsions:
REMARK  status: ('A' for Active; 'I' for Inactive)
REMARK    1  A    between atoms: N_9  and  C_14
REMARK    2  A    between atoms: N_10  and  C_21
REMARK    3  A    between atoms: N_11  and  C_29
REMARK    4  A    between atoms: N_12  and  C_30
REMARK    5  A    between atoms: C_15  and  C_18
REMARK    6  A    between atoms: C_19  and  C_20
REMARK    7  A    between atoms: C_21  and  C_23
REMARK    8  A    between atoms: C_21  and  C_25
REMARK    9  A    between atoms: C_23  and  C_28
REMARK                            x       y       z     vdW  Elec       q    Type
REMARK                         _______ _______ _______ _____ _____    ______ ____
ROOT
ATOM      5  O   UNL     1      -2.214  -0.683  26.266  0.00  0.00    -0.268 OA
ATOM      8  N   UNL     1      -2.386   0.497  24.292  0.00  0.00    -0.283 N 
ATOM     14  C   UNL     1      -1.317   2.456  23.489  0.00  0.00    +0.105 C 
ATOM     15  C   UNL     1      -1.625   1.654  24.754  0.00  0.00    +0.182 C 
ATOM     16  C   UNL     1      -2.482   2.108  22.558  0.00  0.00    +0.043 C 
ATOM     17  C   UNL     1      -2.787   0.654  22.893  0.00  0.00    +0.111 C 
ATOM     19  C   UNL     1      -2.584  -0.631  25.093  0.00  0.00    +0.264 C 
ENDROOT
BRANCH  14   9
ATOM      6  O   UNL     1       0.852   1.164  24.841  0.00  0.00    -0.252 OA
ATOM      9  N   UNL     1      -0.055   2.059  22.912  0.00  0.00    -0.294 N 
ATOM     12  N   UNL     1       2.057   1.165  22.826  0.00  0.00    -0.267 N 
ATOM     22  C   UNL     1       0.957   1.430  23.646  0.00  0.00    +0.304 C 
ATOM     39  H   UNL     1       0.083   2.182  21.913  0.00  0.00    +0.151 HD
ATOM     41  H   UNL     1       1.985   1.451  21.853  0.00  0.00    +0.156 HD
BRANCH  12  30
ATOM      2  F   UNL     1       2.165  -1.523  23.557  0.00  0.00    -0.203 F 
ATOM      3  F   UNL     1       6.842  -1.263  24.222  0.00  0.00    -0.205 F 
ATOM     30  C   UNL     1       3.276   0.543  23.184  0.00  0.00    +0.070 A 
ATOM     32  C   UNL     1       3.297  -0.805  23.544  0.00  0.00    +0.147 A 
ATOM     33  C   UNL     1       4.460   1.280  23.174  0.00  0.00    +0.029 A 
ATOM     36  C   UNL     1       4.501  -1.415  23.896  0.00  0.00    +0.078 A 
ATOM     37  C   UNL     1       5.665   0.670  23.526  0.00  0.00    +0.040 A 
ATOM     38  C   UNL     1       5.685  -0.677  23.886  0.00  0.00    +0.126 A 
ENDBRANCH  12  30
ENDBRANCH  14   9
BRANCH  19  20
ATOM     11  N   UNL     1      -2.695  -2.937  24.124  0.00  0.00    -0.346 N 
ATOM     20  C   UNL     1      -3.284  -1.751  24.476  0.00  0.00    +0.104 A 
ATOM     24  C   UNL     1      -4.619  -1.826  24.143  0.00  0.00    +0.032 A 
ATOM     26  C   UNL     1      -3.634  -3.769  23.570  0.00  0.00    +0.086 A 
ATOM     27  C   UNL     1      -4.841  -3.103  23.570  0.00  0.00    +0.020 A 
ATOM     29  C   UNL     1      -1.300  -3.277  24.300  0.00  0.00    +0.149 C 
ENDBRANCH  19  20
BRANCH  15  18
ATOM      4  O   UNL     1      -2.078   3.064  26.627  0.00  0.00    -0.274 OA
ATOM     10  N   UNL     1      -3.859   2.291  25.341  0.00  0.00    -0.302 N 
ATOM     18  C   UNL     1      -2.523   2.422  25.679  0.00  0.00    +0.236 C 
ATOM     40  H   UNL     1      -4.113   1.667  24.581  0.00  0.00    +0.150 HD
BRANCH  10  21
ATOM     21  C   UNL     1      -4.927   2.914  26.088  0.00  0.00    +0.163 C 
BRANCH  21  25
ATOM      7  O   UNL     1      -6.550   1.716  24.731  0.00  0.00    -0.274 OA
ATOM     13  N   UNL     1      -6.843   1.763  27.009  0.00  0.00    -0.328 N 
ATOM     25  C   UNL     1      -6.184   2.091  25.843  0.00  0.00    +0.231 C 
ATOM     42  H   UNL     1      -7.689   1.202  26.988  0.00  0.00    +0.145 HD
ATOM     43  H   UNL     1      -6.528   2.075  27.922  0.00  0.00    +0.145 HD
ENDBRANCH  21  25
BRANCH  21  23
ATOM     23  C   UNL     1      -5.154   4.372  25.671  0.00  0.00    +0.074 C 
BRANCH  23  28
ATOM      1  S   UNL     1      -3.729   5.358  23.490  0.00  0.00    -0.102 S 
ATOM     28  C   UNL     1      -3.893   5.028  25.163  0.00  0.00    -0.008 A 
ATOM     31  C   UNL     1      -2.785   5.426  25.879  0.00  0.00    +0.011 A 
ATOM     34  C   UNL     1      -1.789   6.009  25.043  0.00  0.00    +0.008 A 
ATOM     35  C   UNL     1      -2.173   6.035  23.720  0.00  0.00    +0.045 A 
ENDBRANCH  23  28
ENDBRANCH  21  23
ENDBRANCH  10  21
ENDBRANCH  15  18
TORSDOF 8
ENDMDL
MODEL 2
REMARK VINA RESULT:       7.7      2.082      3.247
REMARK  Name = 11882060
REMARK  9 active torsions:
REMARK  status: ('A' for Active; 'I' for Inactive)
REMARK    1  A    between atoms: N_9  and  C_14
REMARK    2  A    between atoms: N_10  and  C_21
REMARK    3  A    between atoms: N_11  and  C_29
REMARK    4  A    between atoms: N_12  and  C_30
REMARK    5  A    between atoms: C_15  and  C_18
REMARK    6  A    between atoms: C_19  and  C_20
REMARK    7  A    between atoms: C_21  and  C_23
REMARK    8  A    between atoms: C_21  and  C_25
REMARK    9  A    between atoms: C_23  and  C_28
REMARK                            x       y       z     vdW  Elec       q    Type
REMARK                         _______ _______ _______ _____ _____    ______ ____
ROOT
ATOM      5  O   UNL     1      -1.975  -0.342  26.571  0.00  0.00    -0.268 OA
ATOM      8  N   UNL     1      -1.215   0.240  24.473  0.00  0.00    -0.283 N 
ATOM     14  C   UNL     1       0.705   1.414  23.725  0.00  0.00    +0.105 C 
ATOM     15  C   UNL     1      -0.171   1.143  24.948  0.00  0.00    +0.182 C 
ATOM     16  C   UNL     1      -0.265   1.248  22.552  0.00  0.00    +0.043 C 
ATOM     17  C   UNL     1      -1.200   0.138  23.013  0.00  0.00    +0.111 C 
ATOM     19  C   UNL     1      -2.024  -0.487  25.349  0.00  0.00    +0.264 C 
ENDROOT
BRANCH  14   9
ATOM      6  O   UNL     1       3.479   2.014  23.337  0.00  0.00    -0.252 OA
ATOM      9  N   UNL     1       1.790   0.465  23.639  0.00  0.00    -0.294 N 
ATOM     12  N   UNL     1       3.946  -0.286  23.405  0.00  0.00    -0.267 N 
ATOM     22  C   UNL     1       3.123   0.842  23.447  0.00  0.00    +0.304 C 
ATOM     39  H   UNL     1       1.586  -0.520  23.788  0.00  0.00    +0.151 HD
ATOM     41  H   UNL     1       3.492  -1.190  23.512  0.00  0.00    +0.156 HD
BRANCH  12  30
ATOM      2  F   UNL     1       5.671   1.164  25.045  0.00  0.00    -0.203 F 
ATOM      3  F   UNL     1       9.443  -0.476  22.708  0.00  0.00    -0.205 F 
ATOM     30  C   UNL     1       5.349  -0.332  23.229  0.00  0.00    +0.070 A 
ATOM     32  C   UNL     1       6.186   0.405  24.068  0.00  0.00    +0.147 A 
ATOM     33  C   UNL     1       5.895  -1.118  22.215  0.00  0.00    +0.029 A 
ATOM     36  C   UNL     1       7.568   0.357  23.891  0.00  0.00    +0.078 A 
ATOM     37  C   UNL     1       7.279  -1.166  22.038  0.00  0.00    +0.040 A 
ATOM     38  C   UNL     1       8.115  -0.429  22.876  0.00  0.00    +0.126 A 
ENDBRANCH  12  30
ENDBRANCH  14   9
BRANCH  19  20
ATOM     11  N   UNL     1      -2.650  -2.692  24.340  0.00  0.00    -0.346 N 
ATOM     20  C   UNL     1      -2.966  -1.421  24.742  0.00  0.00    +0.104 A 
ATOM     24  C   UNL     1      -4.299  -1.209  24.468  0.00  0.00    +0.032 A 
ATOM     26  C   UNL     1      -3.763  -3.295  23.812  0.00  0.00    +0.086 A 
ATOM     27  C   UNL     1      -4.804  -2.395  23.880  0.00  0.00    +0.020 A 
ATOM     29  C   UNL     1      -1.350  -3.317  24.447  0.00  0.00    +0.149 C 
ENDBRANCH  19  20
BRANCH  15  18
ATOM      4  O   UNL     1      -0.698   2.839  26.545  0.00  0.00    -0.274 OA
ATOM     10  N   UNL     1      -1.676   2.936  24.434  0.00  0.00    -0.302 N 
ATOM     18  C   UNL     1      -0.859   2.394  25.411  0.00  0.00    +0.236 C 
ATOM     40  H   UNL     1      -1.791   2.434  23.558  0.00  0.00    +0.150 HD
BRANCH  10  21
ATOM     21  C   UNL     1      -2.465   4.128  24.636  0.00  0.00    +0.163 C 
BRANCH  21  25
ATOM      7  O   UNL     1      -1.765   6.353  25.322  0.00  0.00    -0.274 OA
ATOM     13  N   UNL     1      -0.251   5.011  24.234  0.00  0.00    -0.328 N 
ATOM     25  C   UNL     1      -1.493   5.292  24.765  0.00  0.00    +0.231 C 
ATOM     42  H   UNL     1       0.497   5.697  24.269  0.00  0.00    +0.145 HD
ATOM     43  H   UNL     1      -0.037   4.129  23.781  0.00  0.00    +0.145 HD
ENDBRANCH  21  25
BRANCH  21  23
ATOM     23  C   UNL     1      -3.353   4.034  25.883  0.00  0.00    +0.074 C 
BRANCH  23  28
ATOM      1  S   UNL     1      -4.753   2.347  24.164  0.00  0.00    -0.102 S 
ATOM     28  C   UNL     1      -4.546   3.132  25.672  0.00  0.00    -0.008 A 
ATOM     31  C   UNL     1      -5.555   2.824  26.558  0.00  0.00    +0.011 A 
ATOM     34  C   UNL     1      -6.511   1.931  25.991  0.00  0.00    +0.008 A 
ATOM     35  C   UNL     1      -6.196   1.592  24.693  0.00  0.00    +0.045 A 
ENDBRANCH  23  28
ENDBRANCH  21  23
ENDBRANCH  10  21
ENDBRANCH  15  18
TORSDOF 8
ENDMDL
MODEL 3
REMARK VINA RESULT:       7.8      2.851      4.999
REMARK  Name = 11882060
REMARK  9 active torsions:
REMARK  status: ('A' for Active; 'I' for Inactive)
REMARK    1  A    between atoms: N_9  and  C_14
REMARK    2  A    between atoms: N_10  and  C_21
REMARK    3  A    between atoms: N_11  and  C_29
REMARK    4  A    between atoms: N_12  and  C_30
REMARK    5  A    between atoms: C_15  and  C_18
REMARK    6  A    between atoms: C_19  and  C_20
REMARK    7  A    between atoms: C_21  and  C_23
REMARK    8  A    between atoms: C_21  and  C_25
REMARK    9  A    between atoms: C_23  and  C_28
REMARK                            x       y       z     vdW  Elec       q    Type
REMARK                         _______ _______ _______ _____ _____    ______ ____
ROOT
ATOM      5  O   UNL     1       0.606   3.767  25.874  0.00  0.00    -0.268 OA
ATOM      8  N   UNL     1      -0.230   1.619  25.931  0.00  0.00    -0.283 N 
ATOM     14  C   UNL     1      -0.726   0.037  24.235  0.00  0.00    +0.105 C 
ATOM     15  C   UNL     1      -0.467   1.522  24.494  0.00  0.00    +0.182 C 
ATOM     16  C   UNL     1      -1.310  -0.457  25.560  0.00  0.00    +0.043 C 
ATOM     17  C   UNL     1      -0.571   0.366  26.608  0.00  0.00    +0.111 C 
ATOM     19  C   UNL     1       0.349   2.748  26.515  0.00  0.00    +0.264 C 
ENDROOT
BRANCH  14   9
ATOM      6  O   UNL     1       1.900   1.172  24.091  0.00  0.00    -0.252 OA
ATOM      9  N   UNL     1       0.499  -0.658  23.916  0.00  0.00    -0.294 N 
ATOM     12  N   UNL     1       2.744  -0.947  23.534  0.00  0.00    -0.267 N 
ATOM     22  C   UNL     1       1.746  -0.026  23.867  0.00  0.00    +0.304 C 
ATOM     39  H   UNL     1       0.465  -1.665  23.784  0.00  0.00    +0.151 HD
ATOM     41  H   UNL     1       2.448  -1.908  23.377  0.00  0.00    +0.156 HD
BRANCH  12  30
ATOM      2  F   UNL     1       3.717   0.888  21.677  0.00  0.00    -0.203 F 
ATOM      3  F   UNL     1       8.179  -0.019  22.960  0.00  0.00    -0.205 F 
ATOM     30  C   UNL     1       4.130  -0.709  23.385  0.00  0.00    +0.070 A 
ATOM     32  C   UNL     1       4.585   0.217  22.446  0.00  0.00    +0.147 A 
ATOM     33  C   UNL     1       5.043  -1.402  24.180  0.00  0.00    +0.029 A 
ATOM     36  C   UNL     1       5.953   0.449  22.302  0.00  0.00    +0.078 A 
ATOM     37  C   UNL     1       6.411  -1.169  24.036  0.00  0.00    +0.040 A 
ATOM     38  C   UNL     1       6.866  -0.244  23.097  0.00  0.00    +0.126 A 
ENDBRANCH  12  30
ENDBRANCH  14   9
BRANCH  19  20
ATOM     11  N   UNL     1       1.864   2.640  28.506  0.00  0.00    -0.346 N 
ATOM     20  C   UNL     1       0.613   2.677  27.947  0.00  0.00    +0.104 A 
ATOM     24  C   UNL     1      -0.309   2.634  28.970  0.00  0.00    +0.032 A 
ATOM     26  C   UNL     1       1.754   2.574  29.872  0.00  0.00    +0.086 A 
ATOM     27  C   UNL     1       0.413   2.569  30.188  0.00  0.00    +0.020 A 
ATOM     29  C   UNL     1       3.116   2.666  27.784  0.00  0.00    +0.149 C 
ENDBRANCH  19  20
BRANCH  15  18
ATOM      4  O   UNL     1      -1.621   3.402  23.578  0.00  0.00    -0.274 OA
ATOM     10  N   UNL     1      -2.838   1.782  24.726  0.00  0.00    -0.302 N 
ATOM     18  C   UNL     1      -1.687   2.345  24.201  0.00  0.00    +0.236 C 
ATOM     40  H   UNL     1      -2.758   0.943  25.293  0.00  0.00    +0.150 HD
BRANCH  10  21
ATOM     21  C   UNL     1      -4.143   2.390  24.601  0.00  0.00    +0.163 C 
BRANCH  21  25
ATOM      7  O   UNL     1      -3.378   3.946  26.305  0.00  0.00    -0.274 OA
ATOM     13  N   UNL     1      -5.625   3.488  26.163  0.00  0.00    -0.328 N 
ATOM     25  C   UNL     1      -4.308   3.339  25.779  0.00  0.00    +0.231 C 
ATOM     42  H   UNL     1      -5.876   4.106  26.928  0.00  0.00    +0.145 HD
ATOM     43  H   UNL     1      -6.385   2.985  25.718  0.00  0.00    +0.145 HD
ENDBRANCH  21  25
BRANCH  21  23
ATOM     23  C   UNL     1      -5.270   1.351  24.589  0.00  0.00    +0.074 C 
BRANCH  23  28
ATOM      1  S   UNL     1      -4.175  -0.780  26.011  0.00  0.00    -0.102 S 
ATOM     28  C   UNL     1      -4.746  -0.065  24.563  0.00  0.00    -0.008 A 
ATOM     31  C   UNL     1      -4.649  -0.924  23.490  0.00  0.00    +0.011 A 
ATOM     34  C   UNL     1      -4.099  -2.185  23.862  0.00  0.00    +0.008 A 
ATOM     35  C   UNL     1      -3.796  -2.242  25.205  0.00  0.00    +0.045 A 
ENDBRANCH  23  28
ENDBRANCH  21  23
ENDBRANCH  10  21
ENDBRANCH  15  18
TORSDOF 8
ENDMDL
MODEL 4
REMARK VINA RESULT:       8.5      2.457      4.807
REMARK  Name = 11882060
REMARK  9 active torsions:
REMARK  status: ('A' for Active; 'I' for Inactive)
REMARK    1  A    between atoms: N_9  and  C_14
REMARK    2  A    between atoms: N_10  and  C_21
REMARK    3  A    between atoms: N_11  and  C_29
REMARK    4  A    between atoms: N_12  and  C_30
REMARK    5  A    between atoms: C_15  and  C_18
REMARK    6  A    between atoms: C_19  and  C_20
REMARK    7  A    between atoms: C_21  and  C_23
REMARK    8  A    between atoms: C_21  and  C_25
REMARK    9  A    between atoms: C_23  and  C_28
REMARK                            x       y       z     vdW  Elec       q    Type
REMARK                         _______ _______ _______ _____ _____    ______ ____
ROOT
ATOM      5  O   UNL     1      -0.608   3.930  24.617  0.00  0.00    -0.268 OA
ATOM      8  N   UNL     1      -0.815   1.633  24.637  0.00  0.00    -0.283 N 
ATOM     14  C   UNL     1      -0.995   0.017  22.910  0.00  0.00    +0.105 C 
ATOM     15  C   UNL     1      -1.133   1.509  23.218  0.00  0.00    +0.182 C 
ATOM     16  C   UNL     1      -1.311  -0.651  24.251  0.00  0.00    +0.043 C 
ATOM     17  C   UNL     1      -0.743   0.319  25.278  0.00  0.00    +0.111 C 
ATOM     19  C   UNL     1      -0.522   2.865  25.228  0.00  0.00    +0.264 C 
ENDROOT
BRANCH  14   9
ATOM      6  O   UNL     1       1.435   0.474  24.355  0.00  0.00    -0.252 OA
ATOM      9  N   UNL     1       0.343  -0.304  22.473  0.00  0.00    -0.294 N 
ATOM     12  N   UNL     1       2.631  -0.464  22.566  0.00  0.00    -0.267 N 
ATOM     22  C   UNL     1       1.482  -0.047  23.243  0.00  0.00    +0.304 C 
ATOM     39  H   UNL     1       0.460  -0.799  21.593  0.00  0.00    +0.151 HD
ATOM     41  H   UNL     1       2.497  -0.877  21.646  0.00  0.00    +0.156 HD
BRANCH  12  30
ATOM      2  F   UNL     1       4.046   1.936  22.479  0.00  0.00    -0.203 F 
ATOM      3  F   UNL     1       7.893  -0.148  24.280  0.00  0.00    -0.205 F 
ATOM     30  C   UNL     1       3.974  -0.380  23.001  0.00  0.00    +0.070 A 
ATOM     32  C   UNL     1       4.655   0.836  22.946  0.00  0.00    +0.147 A 
ATOM     33  C   UNL     1       4.617  -1.518  23.488  0.00  0.00    +0.029 A 
ATOM     36  C   UNL     1       5.979   0.914  23.377  0.00  0.00    +0.078 A 
ATOM     37  C   UNL     1       5.942  -1.440  23.920  0.00  0.00    +0.040 A 
ATOM     38  C   UNL     1       6.622  -0.224  23.864  0.00  0.00    +0.126 A 
ENDBRANCH  12  30
ENDBRANCH  14   9
BRANCH  19  20
ATOM     11  N   UNL     1      -0.966   3.133  27.678  0.00  0.00    -0.346 N 
ATOM     20  C   UNL     1      -0.132   2.836  26.633  0.00  0.00    +0.104 A 
ATOM     24  C   UNL     1       1.103   2.517  27.154  0.00  0.00    +0.032 A 
ATOM     26  C   UNL     1      -0.283   3.009  28.861  0.00  0.00    +0.086 A 
ATOM     27  C   UNL     1       1.007   2.627  28.564  0.00  0.00    +0.020 A 
ATOM     29  C   UNL     1      -2.356   3.520  27.571  0.00  0.00    +0.149 C 
ENDBRANCH  19  20
BRANCH  15  18
ATOM      4  O   UNL     1      -2.920   2.583  22.052  0.00  0.00    -0.274 OA
ATOM     10  N   UNL     1      -3.342   1.638  24.138  0.00  0.00    -0.302 N 
ATOM     18  C   UNL     1      -2.552   1.969  23.050  0.00  0.00    +0.236 C 
ATOM     40  H   UNL     1      -2.907   1.198  24.944  0.00  0.00    +0.150 HD
BRANCH  10  21
ATOM     21  C   UNL     1      -4.741   1.987  24.233  0.00  0.00    +0.163 C 
BRANCH  21  25
ATOM      7  O   UNL     1      -4.182   4.225  24.999  0.00  0.00    -0.274 OA
ATOM     13  N   UNL     1      -5.781   3.039  26.144  0.00  0.00    -0.328 N 
ATOM     25  C   UNL     1      -4.838   3.197  25.151  0.00  0.00    +0.231 C 
ATOM     42  H   UNL     1      -5.958   3.780  26.816  0.00  0.00    +0.145 HD
ATOM     43  H   UNL     1      -6.320   2.187  26.257  0.00  0.00    +0.145 HD
ENDBRANCH  21  25
BRANCH  21  23
ATOM     23  C   UNL     1      -5.592   0.834  24.778  0.00  0.00    +0.074 C 
BRANCH  23  28
ATOM      1  S   UNL     1      -3.961  -0.979  26.125  0.00  0.00    -0.102 S 
ATOM     28  C   UNL     1      -4.857  -0.485  24.752  0.00  0.00    -0.008 A 
ATOM     31  C   UNL     1      -4.792  -1.410  23.732  0.00  0.00    +0.011 A 
ATOM     34  C   UNL     1      -3.995  -2.538  24.084  0.00  0.00    +0.008 A 
ATOM     35  C   UNL     1      -3.481  -2.432  25.358  0.00  0.00    +0.045 A 
ENDBRANCH  23  28
ENDBRANCH  21  23
ENDBRANCH  10  21
ENDBRANCH  15  18
TORSDOF 8
ENDMDL
MODEL 5
REMARK VINA RESULT:       9.1      1.695      2.844
REMARK  Name = 11882060
REMARK  9 active torsions:
REMARK  status: ('A' for Active; 'I' for Inactive)
REMARK    1  A    between atoms: N_9  and  C_14
REMARK    2  A    between atoms: N_10  and  C_21
REMARK    3  A    between atoms: N_11  and  C_29
REMARK    4  A    between atoms: N_12  and  C_30
REMARK    5  A    between atoms: C_15  and  C_18
REMARK    6  A    between atoms: C_19  and  C_20
REMARK    7  A    between atoms: C_21  and  C_23
REMARK    8  A    between atoms: C_21  and  C_25
REMARK    9  A    between atoms: C_23  and  C_28
REMARK                            x       y       z     vdW  Elec       q    Type
REMARK                         _______ _______ _______ _____ _____    ______ ____
ROOT
ATOM      5  O   UNL     1      -2.249  -0.166  26.154  0.00  0.00    -0.268 OA
ATOM      8  N   UNL     1      -2.194   0.548  23.962  0.00  0.00    -0.283 N 
ATOM     14  C   UNL     1      -0.814   2.092  22.805  0.00  0.00    +0.105 C 
ATOM     15  C   UNL     1      -1.269   1.652  24.198  0.00  0.00    +0.182 C 
ATOM     16  C   UNL     1      -2.000   1.719  21.912  0.00  0.00    +0.043 C 
ATOM     17  C   UNL     1      -2.538   0.442  22.543  0.00  0.00    +0.111 C 
ATOM     19  C   UNL     1      -2.583  -0.327  24.980  0.00  0.00    +0.264 C 
ENDROOT
BRANCH  14   9
ATOM      6  O   UNL     1       1.450   1.477  24.448  0.00  0.00    -0.252 OA
ATOM      9  N   UNL     1       0.381   1.390  22.400  0.00  0.00    -0.294 N 
ATOM     12  N   UNL     1       2.459   0.437  22.600  0.00  0.00    -0.267 N 
ATOM     22  C   UNL     1       1.446   1.129  23.269  0.00  0.00    +0.304 C 
ATOM     39  H   UNL     1       0.425   1.011  21.458  0.00  0.00    +0.151 HD
ATOM     41  H   UNL     1       2.300   0.226  21.618  0.00  0.00    +0.156 HD
BRANCH  12  30
ATOM      2  F   UNL     1       4.680   2.115  22.733  0.00  0.00    -0.203 F 
ATOM      3  F   UNL     1       7.297  -1.326  24.653  0.00  0.00    -0.205 F 
ATOM     30  C   UNL     1       3.695  -0.010  23.122  0.00  0.00    +0.070 A 
ATOM     32  C   UNL     1       4.788   0.855  23.176  0.00  0.00    +0.147 A 
ATOM     33  C   UNL     1       3.819  -1.320  23.586  0.00  0.00    +0.029 A 
ATOM     36  C   UNL     1       6.005   0.410  23.692  0.00  0.00    +0.078 A 
ATOM     37  C   UNL     1       5.036  -1.765  24.103  0.00  0.00    +0.040 A 
ATOM     38  C   UNL     1       6.129  -0.900  24.156  0.00  0.00    +0.126 A 
ENDBRANCH  12  30
ENDBRANCH  14   9
BRANCH  19  20
ATOM     11  N   UNL     1      -3.032  -2.747  24.520  0.00  0.00    -0.346 N 
ATOM     20  C   UNL     1      -3.439  -1.440  24.589  0.00  0.00    +0.104 A 
ATOM     24  C   UNL     1      -4.767  -1.391  24.226  0.00  0.00    +0.032 A 
ATOM     26  C   UNL     1      -4.082  -3.534  24.120  0.00  0.00    +0.086 A 
ATOM     27  C   UNL     1      -5.174  -2.715  23.930  0.00  0.00    +0.020 A 
ATOM     29  C   UNL     1      -1.706  -3.239  24.821  0.00  0.00    +0.149 C 
ENDBRANCH  19  20
BRANCH  15  18
ATOM      4  O   UNL     1      -2.055   2.861  26.102  0.00  0.00    -0.274 OA
ATOM     10  N   UNL     1      -2.756   3.519  23.981  0.00  0.00    -0.302 N 
ATOM     18  C   UNL     1      -2.053   2.735  24.880  0.00  0.00    +0.236 C 
ATOM     40  H   UNL     1      -2.741   3.269  22.996  0.00  0.00    +0.150 HD
BRANCH  10  21
ATOM     21  C   UNL     1      -3.606   4.615  24.385  0.00  0.00    +0.163 C 
BRANCH  21  25
ATOM      7  O   UNL     1      -2.943   6.835  23.650  0.00  0.00    -0.274 OA
ATOM     13  N   UNL     1      -1.748   5.835  25.337  0.00  0.00    -0.328 N 
ATOM     25  C   UNL     1      -2.746   5.871  24.385  0.00  0.00    +0.231 C 
ATOM     42  H   UNL     1      -1.113   6.618  25.454  0.00  0.00    +0.145 HD
ATOM     43  H   UNL     1      -1.598   5.034  25.942  0.00  0.00    +0.145 HD
ENDBRANCH  21  25
BRANCH  21  23
ATOM     23  C   UNL     1      -4.225   4.392  25.770  0.00  0.00    +0.074 C 
BRANCH  23  28
ATOM      1  S   UNL     1      -5.450   2.328  24.356  0.00  0.00    -0.102 S 
ATOM     28  C   UNL     1      -5.160   3.206  25.797  0.00  0.00    -0.008 A 
ATOM     31  C   UNL     1      -5.859   2.690  26.867  0.00  0.00    +0.011 A 
ATOM     34  C   UNL     1      -6.642   1.558  26.497  0.00  0.00    +0.008 A 
ATOM     35  C   UNL     1      -6.513   1.253  25.160  0.00  0.00    +0.045 A 
ENDBRANCH  23  28
ENDBRANCH  21  23
ENDBRANCH  10  21
ENDBRANCH  15  18
TORSDOF 8
ENDMDL
MODEL 6
REMARK VINA RESULT:       9.1      1.528      1.999
REMARK  Name = 11882060
REMARK  9 active torsions:
REMARK  status: ('A' for Active; 'I' for Inactive)
REMARK    1  A    between atoms: N_9  and  C_14
REMARK    2  A    between atoms: N_10  and  C_21
REMARK    3  A    between atoms: N_11  and  C_29
REMARK    4  A    between atoms: N_12  and  C_30
REMARK    5  A    between atoms: C_15  and  C_18
REMARK    6  A    between atoms: C_19  and  C_20
REMARK    7  A    between atoms: C_21  and  C_23
REMARK    8  A    between atoms: C_21  and  C_25
REMARK    9  A    between atoms: C_23  and  C_28
REMARK                            x       y       z     vdW  Elec       q    Type
REMARK                         _______ _______ _______ _____ _____    ______ ____
ROOT
ATOM      5  O   UNL     1      -2.511  -0.314  25.932  0.00  0.00    -0.268 OA
ATOM      8  N   UNL     1      -2.610   0.198  23.685  0.00  0.00    -0.283 N 
ATOM     14  C   UNL     1      -1.627   1.919  22.381  0.00  0.00    +0.105 C 
ATOM     15  C   UNL     1      -1.976   1.507  23.813  0.00  0.00    +0.182 C 
ATOM     16  C   UNL     1      -2.683   1.199  21.539  0.00  0.00    +0.043 C 
ATOM     17  C   UNL     1      -2.907  -0.110  22.286  0.00  0.00    +0.111 C 
ATOM     19  C   UNL     1      -2.788  -0.651  24.780  0.00  0.00    +0.264 C 
ENDROOT
BRANCH  14   9
ATOM      6  O   UNL     1       0.411   0.992  24.167  0.00  0.00    -0.252 OA
ATOM      9  N   UNL     1      -0.296   1.488  22.023  0.00  0.00    -0.294 N 
ATOM     12  N   UNL     1       1.837   0.697  22.326  0.00  0.00    -0.267 N 
ATOM     22  C   UNL     1       0.643   1.048  22.962  0.00  0.00    +0.304 C 
ATOM     39  H   UNL     1      -0.050   1.441  21.038  0.00  0.00    +0.151 HD
ATOM     41  H   UNL     1       1.867   0.804  21.314  0.00  0.00    +0.156 HD
BRANCH  12  30
ATOM      2  F   UNL     1       4.106   2.295  22.579  0.00  0.00    -0.203 F 
ATOM      3  F   UNL     1       6.486  -1.229  24.651  0.00  0.00    -0.205 F 
ATOM     30  C   UNL     1       3.025   0.208  22.917  0.00  0.00    +0.070 A 
ATOM     32  C   UNL     1       4.144   1.034  23.030  0.00  0.00    +0.147 A 
ATOM     33  C   UNL     1       3.076  -1.103  23.390  0.00  0.00    +0.029 A 
ATOM     36  C   UNL     1       5.313   0.548  23.615  0.00  0.00    +0.078 A 
ATOM     37  C   UNL     1       4.246  -1.589  23.976  0.00  0.00    +0.040 A 
ATOM     38  C   UNL     1       5.364  -0.763  24.088  0.00  0.00    +0.126 A 
ENDBRANCH  12  30
ENDBRANCH  14   9
BRANCH  19  20
ATOM     11  N   UNL     1      -4.642  -2.189  24.097  0.00  0.00    -0.346 N 
ATOM     20  C   UNL     1      -3.351  -1.966  24.499  0.00  0.00    +0.104 A 
ATOM     24  C   UNL     1      -2.717  -3.186  24.582  0.00  0.00    +0.032 A 
ATOM     26  C   UNL     1      -4.842  -3.534  23.922  0.00  0.00    +0.086 A 
ATOM     27  C   UNL     1      -3.660  -4.179  24.217  0.00  0.00    +0.020 A 
ATOM     29  C   UNL     1      -5.651  -1.175  23.884  0.00  0.00    +0.149 C 
ENDBRANCH  19  20
BRANCH  15  18
ATOM      4  O   UNL     1      -3.607   3.248  23.725  0.00  0.00    -0.274 OA
ATOM     10  N   UNL     1      -3.138   2.246  25.773  0.00  0.00    -0.302 N 
ATOM     18  C   UNL     1      -3.000   2.428  24.408  0.00  0.00    +0.236 C 
ATOM     40  H   UNL     1      -2.522   1.590  26.245  0.00  0.00    +0.150 HD
BRANCH  10  21
ATOM     21  C   UNL     1      -4.044   3.024  26.586  0.00  0.00    +0.163 C 
BRANCH  21  25
ATOM      7  O   UNL     1      -5.993   1.920  25.643  0.00  0.00    -0.274 OA
ATOM     13  N   UNL     1      -5.948   4.216  25.693  0.00  0.00    -0.328 N 
ATOM     25  C   UNL     1      -5.409   2.966  25.916  0.00  0.00    +0.231 C 
ATOM     42  H   UNL     1      -6.863   4.319  25.266  0.00  0.00    +0.145 HD
ATOM     43  H   UNL     1      -5.457   5.073  25.927  0.00  0.00    +0.145 HD
ENDBRANCH  21  25
BRANCH  21  23
ATOM     23  C   UNL     1      -3.585   4.480  26.738  0.00  0.00    +0.074 C 
BRANCH  23  28
ATOM      1  S   UNL     1      -0.974   3.731  26.121  0.00  0.00    -0.102 S 
ATOM     28  C   UNL     1      -2.325   4.769  25.957  0.00  0.00    -0.008 A 
ATOM     31  C   UNL     1      -2.080   5.802  25.078  0.00  0.00    +0.011 A 
ATOM     34  C   UNL     1      -0.764   5.739  24.533  0.00  0.00    +0.008 A 
ATOM     35  C   UNL     1      -0.055   4.662  25.017  0.00  0.00    +0.045 A 
ENDBRANCH  23  28
ENDBRANCH  21  23
ENDBRANCH  10  21
ENDBRANCH  15  18
TORSDOF 8
ENDMDL
