MODEL 1
REMARK VINA RESULT:       1.9      0.000      0.000
REMARK  Name = 71693187
REMARK  13 active torsions:
REMARK  status: ('A' for Active; 'I' for Inactive)
REMARK    1  A    between atoms: O_1  and  C_32
REMARK    2  A    between atoms: O_1  and  C_33
REMARK    3  A    between atoms: N_3  and  C_12
REMARK    4  A    between atoms: N_3  and  C_16
REMARK    5  A    between atoms: N_4  and  C_25
REMARK    6  A    between atoms: C_7  and  C_11
REMARK    7  A    between atoms: C_8  and  C_12
REMARK    8  A    between atoms: C_10  and  C_15
REMARK    9  A    between atoms: C_11  and  C_17
REMARK   10  A    between atoms: C_11  and  C_18
REMARK   11  A    between atoms: C_13  and  C_21
REMARK   12  A    between atoms: C_15  and  C_24
REMARK   13  A    between atoms: C_30  and  C_32
REMARK                            x       y       z     vdW  Elec       q    Type
REMARK                         _______ _______ _______ _____ _____    ______ ____
ROOT
ATOM      7  C   UNL     1      -2.146   3.225  25.657  0.00  0.00    +0.000 C 
ATOM      8  C   UNL     1      -3.573   3.466  25.110  0.00  0.00    +0.029 C 
ATOM      9  C   UNL     1      -1.540   1.957  25.040  0.00  0.00    +0.012 C 
ATOM     10  C   UNL     1      -1.500   1.987  23.497  0.00  0.00    +0.022 C 
ATOM     13  C   UNL     1      -2.744   2.607  22.881  0.00  0.00    -0.073 C 
ATOM     14  C   UNL     1      -3.665   3.253  23.621  0.00  0.00    -0.023 C 
ATOM     21  C   UNL     1      -2.894   2.527  21.386  0.00  0.00    +0.039 C 
ENDROOT
BRANCH   7  11
ATOM     11  C   UNL     1      -1.244   4.443  25.420  0.00  0.00    -0.013 C 
ATOM     17  C   UNL     1      -0.211   4.140  24.339  0.00  0.00    +0.007 C 
ATOM     18  C   UNL     1      -2.082   5.660  25.040  0.00  0.00    +0.007 C 
ENDBRANCH   7  11
BRANCH   8  12
ATOM     12  C   UNL     1      -4.604   2.576  25.811  0.00  0.00    +0.089 C 
BRANCH  12   3
ATOM      3  N   UNL     1      -5.318   1.759  24.845  0.00  0.00    -0.313 NA
ATOM     34  H   UNL     1      -5.085   2.079  23.905  0.00  0.00    +0.122 HD
BRANCH   3  16
ATOM      4  N   UNL     1      -3.008  -1.807  24.690  0.00  0.00    -0.305 NA
ATOM     16  C   UNL     1      -4.967   0.348  24.988  0.00  0.00    +0.056 C 
ATOM     19  C   UNL     1      -4.640  -0.278  23.629  0.00  0.00    +0.034 C 
ATOM     20  C   UNL     1      -3.774   0.191  25.935  0.00  0.00    +0.034 C 
ATOM     22  C   UNL     1      -4.168  -1.725  23.789  0.00  0.00    +0.085 C 
ATOM     23  C   UNL     1      -3.330  -1.271  26.021  0.00  0.00    +0.085 C 
ATOM     25  C   UNL     1      -2.538  -3.187  24.794  0.00  0.00    +0.104 C 
ENDBRANCH   3  16
ENDBRANCH  12   3
ENDBRANCH   8  12
BRANCH  10  15
ATOM     15  C   UNL     1      -1.227   0.566  22.986  0.00  0.00    +0.082 C 
BRANCH  15  24
ATOM      5  N   UNL     1       1.220   1.090  22.951  0.00  0.00    -0.342 N 
ATOM      6  N   UNL     1       0.679  -0.988  23.527  0.00  0.00    -0.232 NA
ATOM     24  C   UNL     1       0.215   0.187  23.165  0.00  0.00    +0.109 A 
ATOM     26  C   UNL     1       2.412   0.455  23.192  0.00  0.00    +0.067 A 
ATOM     27  C   UNL     1       2.048  -0.840  23.549  0.00  0.00    +0.089 A 
ATOM     28  C   UNL     1       3.736   0.889  23.129  0.00  0.00    +0.042 A 
ATOM     29  C   UNL     1       3.051  -1.771  23.866  0.00  0.00    +0.030 A 
ATOM     30  C   UNL     1       4.722  -0.050  23.447  0.00  0.00    +0.061 A 
ATOM     31  C   UNL     1       4.388  -1.357  23.810  0.00  0.00    +0.017 A 
ATOM     35  H   UNL     1       1.108   2.054  22.668  0.00  0.00    +0.167 HD
BRANCH  30  32
ATOM      2  O   UNL     1       6.615   1.258  24.073  0.00  0.00    -0.245 OA
ATOM     32  C   UNL     1       6.122   0.344  23.399  0.00  0.00    +0.339 C 
BRANCH  32   1
ATOM      1  O   UNL     1       6.829  -0.423  22.514  0.00  0.00    -0.464 OA
ATOM     33  C   UNL     1       8.218  -0.623  22.800  0.00  0.00    +0.280 C 
ENDBRANCH  32   1
ENDBRANCH  30  32
ENDBRANCH  15  24
ENDBRANCH  10  15
TORSDOF 8
ENDMDL
MODEL 2
REMARK VINA RESULT:       2.1      1.751      3.289
REMARK  Name = 71693187
REMARK  13 active torsions:
REMARK  status: ('A' for Active; 'I' for Inactive)
REMARK    1  A    between atoms: O_1  and  C_32
REMARK    2  A    between atoms: O_1  and  C_33
REMARK    3  A    between atoms: N_3  and  C_12
REMARK    4  A    between atoms: N_3  and  C_16
REMARK    5  A    between atoms: N_4  and  C_25
REMARK    6  A    between atoms: C_7  and  C_11
REMARK    7  A    between atoms: C_8  and  C_12
REMARK    8  A    between atoms: C_10  and  C_15
REMARK    9  A    between atoms: C_11  and  C_17
REMARK   10  A    between atoms: C_11  and  C_18
REMARK   11  A    between atoms: C_13  and  C_21
REMARK   12  A    between atoms: C_15  and  C_24
REMARK   13  A    between atoms: C_30  and  C_32
REMARK                            x       y       z     vdW  Elec       q    Type
REMARK                         _______ _______ _______ _____ _____    ______ ____
ROOT
ATOM      7  C   UNL     1      -4.746   1.849  25.892  0.00  0.00    +0.000 C 
ATOM      8  C   UNL     1      -5.025   1.666  24.382  0.00  0.00    +0.029 C 
ATOM      9  C   UNL     1      -3.369   2.490  26.111  0.00  0.00    +0.012 C 
ATOM     10  C   UNL     1      -3.205   3.847  25.391  0.00  0.00    +0.022 C 
ATOM     13  C   UNL     1      -3.837   3.866  24.009  0.00  0.00    -0.073 C 
ATOM     14  C   UNL     1      -4.638   2.876  23.571  0.00  0.00    -0.023 C 
ATOM     21  C   UNL     1      -3.586   5.073  23.146  0.00  0.00    +0.039 C 
ENDROOT
BRANCH   7  11
ATOM     11  C   UNL     1      -5.854   2.665  26.570  0.00  0.00    -0.013 C 
ATOM     17  C   UNL     1      -6.452   3.669  25.590  0.00  0.00    +0.007 C 
ATOM     18  C   UNL     1      -6.934   1.741  27.123  0.00  0.00    +0.007 C 
ENDBRANCH   7  11
BRANCH   8  12
ATOM     12  C   UNL     1      -4.309   0.434  23.820  0.00  0.00    +0.089 C 
BRANCH  12   3
ATOM      3  N   UNL     1      -4.736  -0.769  24.513  0.00  0.00    -0.313 NA
ATOM     34  H   UNL     1      -5.257  -1.358  23.863  0.00  0.00    +0.122 HD
BRANCH   3  16
ATOM      4  N   UNL     1      -0.703  -1.982  25.091  0.00  0.00    -0.305 NA
ATOM     16  C   UNL     1      -3.591  -1.507  25.042  0.00  0.00    +0.056 C 
ATOM     19  C   UNL     1      -2.869  -2.271  23.928  0.00  0.00    +0.034 C 
ATOM     20  C   UNL     1      -2.617  -0.549  25.733  0.00  0.00    +0.034 C 
ATOM     22  C   UNL     1      -1.607  -2.955  24.460  0.00  0.00    +0.085 C 
ATOM     23  C   UNL     1      -1.363  -1.289  26.207  0.00  0.00    +0.085 C 
ATOM     25  C   UNL     1       0.518  -2.641  25.549  0.00  0.00    +0.104 C 
ENDBRANCH   3  16
ENDBRANCH  12   3
ENDBRANCH   8  12
BRANCH  10  15
ATOM     15  C   UNL     1      -1.716   4.214  25.372  0.00  0.00    +0.082 C 
BRANCH  15  24
ATOM      5  N   UNL     1       0.470   3.209  24.685  0.00  0.00    -0.342 N 
ATOM      6  N   UNL     1      -1.347   2.062  24.116  0.00  0.00    -0.232 NA
ATOM     24  C   UNL     1      -0.895   3.142  24.715  0.00  0.00    +0.109 A 
ATOM     26  C   UNL     1       0.930   2.098  24.023  0.00  0.00    +0.067 A 
ATOM     27  C   UNL     1      -0.223   1.399  23.679  0.00  0.00    +0.089 A 
ATOM     28  C   UNL     1       2.215   1.660  23.707  0.00  0.00    +0.042 A 
ATOM     29  C   UNL     1      -0.106   0.188  22.976  0.00  0.00    +0.030 A 
ATOM     30  C   UNL     1       2.314   0.453  23.007  0.00  0.00    +0.061 A 
ATOM     31  C   UNL     1       1.176  -0.272  22.647  0.00  0.00    +0.017 A 
ATOM     35  H   UNL     1       1.043   3.943  25.080  0.00  0.00    +0.167 HD
BRANCH  30  32
ATOM      2  O   UNL     1       4.308   0.366  21.703  0.00  0.00    -0.245 OA
ATOM     32  C   UNL     1       3.630  -0.056  22.648  0.00  0.00    +0.339 C 
BRANCH  32   1
ATOM      1  O   UNL     1       4.026  -1.060  23.488  0.00  0.00    -0.464 OA
ATOM     33  C   UNL     1       5.269  -0.876  24.173  0.00  0.00    +0.280 C 
ENDBRANCH  32   1
ENDBRANCH  30  32
ENDBRANCH  15  24
ENDBRANCH  10  15
TORSDOF 8
ENDMDL
MODEL 3
REMARK VINA RESULT:       3.1      1.288      4.100
REMARK  Name = 71693187
REMARK  13 active torsions:
REMARK  status: ('A' for Active; 'I' for Inactive)
REMARK    1  A    between atoms: O_1  and  C_32
REMARK    2  A    between atoms: O_1  and  C_33
REMARK    3  A    between atoms: N_3  and  C_12
REMARK    4  A    between atoms: N_3  and  C_16
REMARK    5  A    between atoms: N_4  and  C_25
REMARK    6  A    between atoms: C_7  and  C_11
REMARK    7  A    between atoms: C_8  and  C_12
REMARK    8  A    between atoms: C_10  and  C_15
REMARK    9  A    between atoms: C_11  and  C_17
REMARK   10  A    between atoms: C_11  and  C_18
REMARK   11  A    between atoms: C_13  and  C_21
REMARK   12  A    between atoms: C_15  and  C_24
REMARK   13  A    between atoms: C_30  and  C_32
REMARK                            x       y       z     vdW  Elec       q    Type
REMARK                         _______ _______ _______ _____ _____    ______ ____
ROOT
ATOM      7  C   UNL     1      -4.266  -0.807  23.901  0.00  0.00    +0.000 C 
ATOM      8  C   UNL     1      -4.625   0.138  25.071  0.00  0.00    +0.029 C 
ATOM      9  C   UNL     1      -3.101  -0.233  23.083  0.00  0.00    +0.012 C 
ATOM     10  C   UNL     1      -1.838   0.041  23.927  0.00  0.00    +0.022 C 
ATOM     13  C   UNL     1      -2.152   0.614  25.300  0.00  0.00    -0.073 C 
ATOM     14  C   UNL     1      -3.406   0.659  25.789  0.00  0.00    -0.023 C 
ATOM     21  C   UNL     1      -0.995   1.085  26.139  0.00  0.00    +0.039 C 
ENDROOT
BRANCH   7  11
ATOM     11  C   UNL     1      -3.948  -2.222  24.402  0.00  0.00    -0.013 C 
ATOM     17  C   UNL     1      -4.667  -3.264  23.551  0.00  0.00    +0.007 C 
ATOM     18  C   UNL     1      -2.441  -2.464  24.393  0.00  0.00    +0.007 C 
ENDBRANCH   7  11
BRANCH   8  12
ATOM     12  C   UNL     1      -5.477   1.321  24.601  0.00  0.00    +0.089 C 
BRANCH  12   3
ATOM      3  N   UNL     1      -5.607   2.311  25.656  0.00  0.00    -0.313 NA
ATOM     34  H   UNL     1      -5.388   1.872  26.550  0.00  0.00    +0.122 HD
BRANCH   3  16
ATOM      4  N   UNL     1      -2.005   4.471  24.999  0.00  0.00    -0.305 NA
ATOM     16  C   UNL     1      -4.711   3.443  25.428  0.00  0.00    +0.056 C 
ATOM     19  C   UNL     1      -3.699   3.582  26.569  0.00  0.00    +0.034 C 
ATOM     20  C   UNL     1      -3.976   3.277  24.096  0.00  0.00    +0.034 C 
ATOM     22  C   UNL     1      -2.693   4.698  26.278  0.00  0.00    +0.085 C 
ATOM     23  C   UNL     1      -2.961   4.404  23.885  0.00  0.00    +0.085 C 
ATOM     25  C   UNL     1      -1.012   5.517  24.759  0.00  0.00    +0.104 C 
ENDBRANCH   3  16
ENDBRANCH  12   3
ENDBRANCH   8  12
BRANCH  10  15
ATOM     15  C   UNL     1      -0.888   0.930  23.114  0.00  0.00    +0.082 C 
BRANCH  15  24
ATOM      5  N   UNL     1       1.581   1.336  23.110  0.00  0.00    -0.342 N 
ATOM      6  N   UNL     1       0.942  -0.766  23.450  0.00  0.00    -0.232 NA
ATOM     24  C   UNL     1       0.534   0.464  23.230  0.00  0.00    +0.109 A 
ATOM     26  C   UNL     1       2.741   0.621  23.261  0.00  0.00    +0.067 A 
ATOM     27  C   UNL     1       2.316  -0.687  23.473  0.00  0.00    +0.089 A 
ATOM     28  C   UNL     1       4.085   0.996  23.233  0.00  0.00    +0.042 A 
ATOM     29  C   UNL     1       3.275  -1.695  23.669  0.00  0.00    +0.030 A 
ATOM     30  C   UNL     1       5.026  -0.020  23.429  0.00  0.00    +0.061 A 
ATOM     31  C   UNL     1       4.631  -1.343  23.644  0.00  0.00    +0.017 A 
ATOM     35  H   UNL     1       1.515   2.331  22.940  0.00  0.00    +0.167 HD
BRANCH  30  32
ATOM      2  O   UNL     1       6.951   1.248  24.036  0.00  0.00    -0.245 OA
ATOM     32  C   UNL     1       6.444   0.309  23.410  0.00  0.00    +0.339 C 
BRANCH  32   1
ATOM      1  O   UNL     1       7.147  -0.550  22.612  0.00  0.00    -0.464 OA
ATOM     33  C   UNL     1       8.570  -0.563  22.775  0.00  0.00    +0.280 C 
ENDBRANCH  32   1
ENDBRANCH  30  32
ENDBRANCH  15  24
ENDBRANCH  10  15
TORSDOF 8
ENDMDL
