MODEL 1
REMARK VINA RESULT:      -0.1      0.000      0.000
REMARK  Name = 11879567
REMARK  7 active torsions:
REMARK  status: ('A' for Active; 'I' for Inactive)
REMARK    1  A    between atoms: O_3  and  C_20
REMARK    2  A    between atoms: O_3  and  C_25
REMARK    3  A    between atoms: N_6  and  C_15
REMARK    4  A    between atoms: N_7  and  C_16
REMARK    5  A    between atoms: N_12  and  C_28
REMARK    6  A    between atoms: N_12  and  C_31
REMARK    7  A    between atoms: N_12  and  C_32
REMARK                            x       y       z     vdW  Elec       q    Type
REMARK                         _______ _______ _______ _____ _____    ______ ____
ROOT
ATOM      1  O   UNL     1      -2.517   4.199  26.889  0.00  0.00    -0.370 OA
ATOM      2  O   UNL     1      -2.394   4.208  23.746  0.00  0.00    -0.370 OA
ATOM     13  C   UNL     1      -2.931   3.297  24.721  0.00  0.00    +0.176 C 
ATOM     14  C   UNL     1      -1.984   3.298  25.906  0.00  0.00    +0.171 C 
ATOM     15  C   UNL     1      -4.237   3.841  25.271  0.00  0.00    +0.171 C 
ATOM     16  C   UNL     1      -0.687   3.838  25.346  0.00  0.00    +0.131 C 
ATOM     17  C   UNL     1      -3.781   4.707  26.441  0.00  0.00    +0.190 C 
ATOM     18  C   UNL     1      -1.171   4.766  24.247  0.00  0.00    +0.185 C 
ENDROOT
BRANCH  16   7
ATOM      4  O   UNL     1      -1.460   2.010  23.353  0.00  0.00    -0.253 OA
ATOM      5  O   UNL     1       2.437  -0.705  22.027  0.00  0.00    -0.377 OA
ATOM      7  N   UNL     1       0.136   2.777  24.811  0.00  0.00    -0.292 N 
ATOM      9  N   UNL     1       0.591   0.929  23.410  0.00  0.00    -0.281 N 
ATOM     19  C   UNL     1      -0.322   1.913  23.824  0.00  0.00    +0.303 C 
ATOM     21  C   UNL     1       0.140  -0.127  22.501  0.00  0.00    +0.137 C 
ATOM     22  C   UNL     1       1.958   0.745  23.918  0.00  0.00    +0.137 C 
ATOM     23  C   UNL     1       1.178  -0.402  21.425  0.00  0.00    +0.179 C 
ATOM     24  C   UNL     1       2.918   0.408  22.783  0.00  0.00    +0.179 C 
ATOM     33  H   UNL     1       0.997   2.581  25.304  0.00  0.00    +0.151 HD
ENDBRANCH  16   7
BRANCH  15   6
ATOM      6  N   UNL     1      -5.186   2.780  25.617  0.00  0.00    -0.187 N 
ATOM      8  N   UNL     1      -6.118   2.972  26.556  0.00  0.00    -0.041 NA
ATOM     10  N   UNL     1      -6.280   0.918  25.704  0.00  0.00    -0.071 NA
ATOM     11  N   UNL     1      -6.787   1.826  26.606  0.00  0.00    -0.020 NA
ATOM     20  C   UNL     1      -5.287   1.532  25.103  0.00  0.00    +0.342 A 
BRANCH  20   3
ATOM      3  O   UNL     1      -4.510   1.037  24.158  0.00  0.00    -0.423 OA
BRANCH   3  25
ATOM     25  C   UNL     1      -3.871  -0.189  24.282  0.00  0.00    +0.134 A 
ATOM     26  C   UNL     1      -2.657  -0.248  24.940  0.00  0.00    +0.069 A 
ATOM     27  C   UNL     1      -4.468  -1.314  23.746  0.00  0.00    +0.046 A 
ATOM     28  C   UNL     1      -2.014  -1.480  25.064  0.00  0.00    +0.033 A 
ATOM     29  C   UNL     1      -3.825  -2.545  23.871  0.00  0.00    +0.005 A 
ATOM     30  C   UNL     1      -2.598  -2.629  24.531  0.00  0.00    +0.023 A 
BRANCH  28  12
ATOM     12  N   UNL     1      -0.774  -1.564  25.730  0.00  0.00    -0.336 N 
ATOM     31  C   UNL     1       0.213  -2.545  25.326  0.00  0.00    +0.129 C 
ATOM     32  C   UNL     1      -0.476  -0.677  26.838  0.00  0.00    +0.129 C 
ENDBRANCH  28  12
ENDBRANCH   3  25
ENDBRANCH  20   3
ENDBRANCH  15   6
TORSDOF 5
ENDMDL
MODEL 2
REMARK VINA RESULT:       0.1      2.131      4.613
REMARK  Name = 11879567
REMARK  7 active torsions:
REMARK  status: ('A' for Active; 'I' for Inactive)
REMARK    1  A    between atoms: O_3  and  C_20
REMARK    2  A    between atoms: O_3  and  C_25
REMARK    3  A    between atoms: N_6  and  C_15
REMARK    4  A    between atoms: N_7  and  C_16
REMARK    5  A    between atoms: N_12  and  C_28
REMARK    6  A    between atoms: N_12  and  C_31
REMARK    7  A    between atoms: N_12  and  C_32
REMARK                            x       y       z     vdW  Elec       q    Type
REMARK                         _______ _______ _______ _____ _____    ______ ____
ROOT
ATOM      1  O   UNL     1      -1.458   1.142  22.371  0.00  0.00    -0.370 OA
ATOM      2  O   UNL     1      -0.731  -0.201  25.121  0.00  0.00    -0.370 OA
ATOM     13  C   UNL     1      -0.485   1.096  24.548  0.00  0.00    +0.176 C 
ATOM     14  C   UNL     1      -0.227   0.890  23.067  0.00  0.00    +0.171 C 
ATOM     15  C   UNL     1      -1.750   1.933  24.605  0.00  0.00    +0.171 C 
ATOM     16  C   UNL     1       0.151  -0.570  22.954  0.00  0.00    +0.131 C 
ATOM     17  C   UNL     1      -2.458   1.574  23.304  0.00  0.00    +0.190 C 
ATOM     18  C   UNL     1      -0.632  -1.196  24.093  0.00  0.00    +0.185 C 
ENDROOT
BRANCH  16   7
ATOM      4  O   UNL     1       2.111   1.437  22.743  0.00  0.00    -0.253 OA
ATOM      5  O   UNL     1       6.474  -0.389  24.138  0.00  0.00    -0.377 OA
ATOM      7  N   UNL     1       1.573  -0.758  23.132  0.00  0.00    -0.292 N 
ATOM      9  N   UNL     1       3.828  -0.053  23.204  0.00  0.00    -0.281 N 
ATOM     19  C   UNL     1       2.479   0.288  23.010  0.00  0.00    +0.303 C 
ATOM     21  C   UNL     1       4.864   0.945  22.929  0.00  0.00    +0.137 C 
ATOM     22  C   UNL     1       4.347  -1.391  23.523  0.00  0.00    +0.137 C 
ATOM     23  C   UNL     1       5.938   0.929  24.005  0.00  0.00    +0.179 C 
ATOM     24  C   UNL     1       5.463  -1.307  24.557  0.00  0.00    +0.179 C 
ATOM     33  H   UNL     1       1.899  -1.714  23.179  0.00  0.00    +0.151 HD
ENDBRANCH  16   7
BRANCH  15   6
ATOM      6  N   UNL     1      -1.470   3.360  24.787  0.00  0.00    -0.187 N 
ATOM      8  N   UNL     1      -0.395   3.925  24.228  0.00  0.00    -0.041 NA
ATOM     10  N   UNL     1      -1.563   5.437  25.378  0.00  0.00    -0.071 NA
ATOM     11  N   UNL     1      -0.457   5.200  24.594  0.00  0.00    -0.020 NA
ATOM     20  C   UNL     1      -2.176   4.280  25.483  0.00  0.00    +0.342 A 
BRANCH  20   3
ATOM      3  O   UNL     1      -3.289   4.036  26.150  0.00  0.00    -0.423 OA
BRANCH   3  25
ATOM     25  C   UNL     1      -4.186   3.047  25.770  0.00  0.00    +0.134 A 
ATOM     26  C   UNL     1      -3.745   1.740  25.686  0.00  0.00    +0.069 A 
ATOM     27  C   UNL     1      -5.492   3.397  25.489  0.00  0.00    +0.046 A 
ATOM     28  C   UNL     1      -4.645   0.745  25.303  0.00  0.00    +0.033 A 
ATOM     29  C   UNL     1      -6.392   2.402  25.107  0.00  0.00    +0.005 A 
ATOM     30  C   UNL     1      -5.969   1.076  25.015  0.00  0.00    +0.023 A 
BRANCH  28  12
ATOM     12  N   UNL     1      -4.216  -0.595  25.210  0.00  0.00    -0.336 N 
ATOM     31  C   UNL     1      -3.558  -1.235  26.331  0.00  0.00    +0.129 C 
ATOM     32  C   UNL     1      -4.416  -1.345  23.986  0.00  0.00    +0.129 C 
ENDBRANCH  28  12
ENDBRANCH   3  25
ENDBRANCH  20   3
ENDBRANCH  15   6
TORSDOF 5
ENDMDL
MODEL 3
REMARK VINA RESULT:       2.2      2.575      5.324
REMARK  Name = 11879567
REMARK  7 active torsions:
REMARK  status: ('A' for Active; 'I' for Inactive)
REMARK    1  A    between atoms: O_3  and  C_20
REMARK    2  A    between atoms: O_3  and  C_25
REMARK    3  A    between atoms: N_6  and  C_15
REMARK    4  A    between atoms: N_7  and  C_16
REMARK    5  A    between atoms: N_12  and  C_28
REMARK    6  A    between atoms: N_12  and  C_31
REMARK    7  A    between atoms: N_12  and  C_32
REMARK                            x       y       z     vdW  Elec       q    Type
REMARK                         _______ _______ _______ _____ _____    ______ ____
ROOT
ATOM      1  O   UNL     1      -1.517   1.535  23.188  0.00  0.00    -0.370 OA
ATOM      2  O   UNL     1       1.082  -0.135  23.778  0.00  0.00    -0.370 OA
ATOM     13  C   UNL     1      -0.244  -0.121  24.338  0.00  0.00    +0.176 C 
ATOM     14  C   UNL     1      -0.708   1.323  24.356  0.00  0.00    +0.171 C 
ATOM     15  C   UNL     1      -1.207  -0.824  23.399  0.00  0.00    +0.171 C 
ATOM     16  C   UNL     1       0.570   2.126  24.262  0.00  0.00    +0.131 C 
ATOM     17  C   UNL     1      -1.665   0.300  22.475  0.00  0.00    +0.190 C 
ATOM     18  C   UNL     1       1.471   1.207  23.458  0.00  0.00    +0.185 C 
ENDROOT
BRANCH  16   7
ATOM      4  O   UNL     1      -0.877   2.169  26.674  0.00  0.00    -0.253 OA
ATOM      5  O   UNL     1       2.262   2.597  30.453  0.00  0.00    -0.377 OA
ATOM      7  N   UNL     1       1.123   2.388  25.572  0.00  0.00    -0.292 N 
ATOM      9  N   UNL     1       1.018   2.667  27.916  0.00  0.00    -0.281 N 
ATOM     19  C   UNL     1       0.338   2.390  26.718  0.00  0.00    +0.303 C 
ATOM     21  C   UNL     1       0.247   2.859  29.147  0.00  0.00    +0.137 C 
ATOM     22  C   UNL     1       2.455   2.940  28.054  0.00  0.00    +0.137 C 
ATOM     23  C   UNL     1       0.909   2.156  30.321  0.00  0.00    +0.179 C 
ATOM     24  C   UNL     1       3.021   2.254  29.292  0.00  0.00    +0.179 C 
ATOM     33  H   UNL     1       2.071   2.736  25.600  0.00  0.00    +0.151 HD
ENDBRANCH  16   7
BRANCH  15   6
ATOM      6  N   UNL     1      -2.282  -1.518  24.113  0.00  0.00    -0.187 N 
ATOM      8  N   UNL     1      -2.040  -2.649  24.783  0.00  0.00    -0.041 NA
ATOM     10  N   UNL     1      -4.190  -2.084  24.952  0.00  0.00    -0.071 NA
ATOM     11  N   UNL     1      -3.216  -2.993  25.296  0.00  0.00    -0.020 NA
ATOM     20  C   UNL     1      -3.587  -1.178  24.218  0.00  0.00    +0.342 A 
BRANCH  20   3
ATOM      3  O   UNL     1      -4.140  -0.113  23.667  0.00  0.00    -0.423 OA
BRANCH   3  25
ATOM     25  C   UNL     1      -4.596   0.964  24.414  0.00  0.00    +0.134 A 
ATOM     26  C   UNL     1      -3.708   1.966  24.754  0.00  0.00    +0.069 A 
ATOM     27  C   UNL     1      -5.923   1.002  24.796  0.00  0.00    +0.046 A 
ATOM     28  C   UNL     1      -4.165   3.049  25.507  0.00  0.00    +0.033 A 
ATOM     29  C   UNL     1      -6.379   2.084  25.548  0.00  0.00    +0.005 A 
ATOM     30  C   UNL     1      -5.501   3.108  25.903  0.00  0.00    +0.023 A 
BRANCH  28  12
ATOM     12  N   UNL     1      -3.276   4.083  25.865  0.00  0.00    -0.336 N 
ATOM     31  C   UNL     1      -2.326   4.602  24.902  0.00  0.00    +0.129 C 
ATOM     32  C   UNL     1      -3.292   4.631  27.207  0.00  0.00    +0.129 C 
ENDBRANCH  28  12
ENDBRANCH   3  25
ENDBRANCH  20   3
ENDBRANCH  15   6
TORSDOF 5
ENDMDL
MODEL 4
REMARK VINA RESULT:       3.0      1.201      2.050
REMARK  Name = 11879567
REMARK  7 active torsions:
REMARK  status: ('A' for Active; 'I' for Inactive)
REMARK    1  A    between atoms: O_3  and  C_20
REMARK    2  A    between atoms: O_3  and  C_25
REMARK    3  A    between atoms: N_6  and  C_15
REMARK    4  A    between atoms: N_7  and  C_16
REMARK    5  A    between atoms: N_12  and  C_28
REMARK    6  A    between atoms: N_12  and  C_31
REMARK    7  A    between atoms: N_12  and  C_32
REMARK                            x       y       z     vdW  Elec       q    Type
REMARK                         _______ _______ _______ _____ _____    ______ ____
ROOT
ATOM      1  O   UNL     1      -2.304   3.772  26.881  0.00  0.00    -0.370 OA
ATOM      2  O   UNL     1      -1.826   4.445  23.846  0.00  0.00    -0.370 OA
ATOM     13  C   UNL     1      -2.442   3.344  24.539  0.00  0.00    +0.176 C 
ATOM     14  C   UNL     1      -1.635   3.102  25.801  0.00  0.00    +0.171 C 
ATOM     15  C   UNL     1      -3.817   3.751  25.033  0.00  0.00    +0.171 C 
ATOM     16  C   UNL     1      -0.301   3.757  25.523  0.00  0.00    +0.131 C 
ATOM     17  C   UNL     1      -3.525   4.354  26.403  0.00  0.00    +0.190 C 
ATOM     18  C   UNL     1      -0.686   4.893  24.592  0.00  0.00    +0.185 C 
ENDROOT
BRANCH  16   7
ATOM      4  O   UNL     1      -1.037   1.634  23.830  0.00  0.00    -0.253 OA
ATOM      5  O   UNL     1       3.017  -0.350  21.844  0.00  0.00    -0.377 OA
ATOM      7  N   UNL     1       0.610   2.838  24.878  0.00  0.00    -0.292 N 
ATOM      9  N   UNL     1       1.170   0.998  23.505  0.00  0.00    -0.281 N 
ATOM     19  C   UNL     1       0.165   1.813  24.054  0.00  0.00    +0.303 C 
ATOM     21  C   UNL     1       0.788  -0.207  22.765  0.00  0.00    +0.137 C 
ATOM     22  C   UNL     1       2.617   1.142  23.720  0.00  0.00    +0.137 C 
ATOM     23  C   UNL     1       1.629  -0.365  21.508  0.00  0.00    +0.179 C 
ATOM     24  C   UNL     1       3.385   0.901  22.426  0.00  0.00    +0.179 C 
ATOM     33  H   UNL     1       1.573   2.866  25.186  0.00  0.00    +0.151 HD
ENDBRANCH  16   7
BRANCH  15   6
ATOM      6  N   UNL     1      -4.766   2.634  25.036  0.00  0.00    -0.187 N 
ATOM      8  N   UNL     1      -5.992   2.775  24.522  0.00  0.00    -0.041 NA
ATOM     10  N   UNL     1      -5.706   0.707  25.305  0.00  0.00    -0.071 NA
ATOM     11  N   UNL     1      -6.565   1.589  24.690  0.00  0.00    -0.020 NA
ATOM     20  C   UNL     1      -4.596   1.379  25.510  0.00  0.00    +0.342 A 
BRANCH  20   3
ATOM      3  O   UNL     1      -3.494   0.926  26.079  0.00  0.00    -0.423 OA
BRANCH   3  25
ATOM     25  C   UNL     1      -2.845  -0.221  25.644  0.00  0.00    +0.134 A 
ATOM     26  C   UNL     1      -3.533  -1.119  24.851  0.00  0.00    +0.069 A 
ATOM     27  C   UNL     1      -1.532  -0.432  26.018  0.00  0.00    +0.046 A 
ATOM     28  C   UNL     1      -2.882  -2.274  24.415  0.00  0.00    +0.033 A 
ATOM     29  C   UNL     1      -0.881  -1.586  25.581  0.00  0.00    +0.005 A 
ATOM     30  C   UNL     1      -1.556  -2.507  24.779  0.00  0.00    +0.023 A 
BRANCH  28  12
ATOM     12  N   UNL     1      -3.565  -3.205  23.605  0.00  0.00    -0.336 N 
ATOM     31  C   UNL     1      -4.974  -3.030  23.314  0.00  0.00    +0.129 C 
ATOM     32  C   UNL     1      -2.869  -4.355  23.064  0.00  0.00    +0.129 C 
ENDBRANCH  28  12
ENDBRANCH   3  25
ENDBRANCH  20   3
ENDBRANCH  15   6
TORSDOF 5
ENDMDL
MODEL 5
REMARK VINA RESULT:       3.6      2.052      4.935
REMARK  Name = 11879567
REMARK  7 active torsions:
REMARK  status: ('A' for Active; 'I' for Inactive)
REMARK    1  A    between atoms: O_3  and  C_20
REMARK    2  A    between atoms: O_3  and  C_25
REMARK    3  A    between atoms: N_6  and  C_15
REMARK    4  A    between atoms: N_7  and  C_16
REMARK    5  A    between atoms: N_12  and  C_28
REMARK    6  A    between atoms: N_12  and  C_31
REMARK    7  A    between atoms: N_12  and  C_32
REMARK                            x       y       z     vdW  Elec       q    Type
REMARK                         _______ _______ _______ _____ _____    ______ ____
ROOT
ATOM      1  O   UNL     1      -4.392   3.890  23.504  0.00  0.00    -0.370 OA
ATOM      2  O   UNL     1      -4.535   3.144  26.556  0.00  0.00    -0.370 OA
ATOM     13  C   UNL     1      -3.463   3.238  25.601  0.00  0.00    +0.176 C 
ATOM     14  C   UNL     1      -4.001   2.741  24.273  0.00  0.00    +0.171 C 
ATOM     15  C   UNL     1      -3.117   4.695  25.356  0.00  0.00    +0.171 C 
ATOM     16  C   UNL     1      -5.215   1.921  24.646  0.00  0.00    +0.131 C 
ATOM     17  C   UNL     1      -4.061   5.085  24.223  0.00  0.00    +0.190 C 
ATOM     18  C   UNL     1      -5.698   2.613  25.907  0.00  0.00    +0.185 C 
ENDROOT
BRANCH  16   7
ATOM      4  O   UNL     1      -3.983   0.170  22.821  0.00  0.00    -0.253 OA
ATOM      5  O   UNL     1      -2.789  -4.020  25.131  0.00  0.00    -0.377 OA
ATOM      7  N   UNL     1      -4.858   0.545  24.908  0.00  0.00    -0.292 N 
ATOM      9  N   UNL     1      -3.970  -1.573  24.351  0.00  0.00    -0.281 N 
ATOM     19  C   UNL     1      -4.250  -0.256  23.949  0.00  0.00    +0.303 C 
ATOM     21  C   UNL     1      -3.488  -2.536  23.357  0.00  0.00    +0.137 C 
ATOM     22  C   UNL     1      -4.255  -2.157  25.669  0.00  0.00    +0.137 C 
ATOM     23  C   UNL     1      -2.363  -3.387  23.923  0.00  0.00    +0.179 C 
ATOM     24  C   UNL     1      -3.105  -3.047  26.128  0.00  0.00    +0.179 C 
ATOM     33  H   UNL     1      -5.223   0.138  25.758  0.00  0.00    +0.151 HD
ENDBRANCH  16   7
BRANCH  15   6
ATOM      6  N   UNL     1      -1.693   4.895  25.074  0.00  0.00    -0.187 N 
ATOM      8  N   UNL     1      -1.267   5.989  24.436  0.00  0.00    -0.041 NA
ATOM     10  N   UNL     1       0.451   4.659  24.937  0.00  0.00    -0.071 NA
ATOM     11  N   UNL     1       0.050   5.840  24.354  0.00  0.00    -0.020 NA
ATOM     20  C   UNL     1      -0.648   4.090  25.376  0.00  0.00    +0.342 A 
BRANCH  20   3
ATOM      3  O   UNL     1      -0.740   2.933  26.005  0.00  0.00    -0.423 OA
BRANCH   3  25
ATOM     25  C   UNL     1      -0.455   1.722  25.389  0.00  0.00    +0.134 A 
ATOM     26  C   UNL     1       0.512   1.685  24.403  0.00  0.00    +0.069 A 
ATOM     27  C   UNL     1      -1.145   0.591  25.780  0.00  0.00    +0.046 A 
ATOM     28  C   UNL     1       0.799   0.468  23.782  0.00  0.00    +0.033 A 
ATOM     29  C   UNL     1      -0.858  -0.624  25.160  0.00  0.00    +0.005 A 
ATOM     30  C   UNL     1       0.115  -0.687  24.161  0.00  0.00    +0.023 A 
BRANCH  28  12
ATOM     12  N   UNL     1       1.781   0.407  22.772  0.00  0.00    -0.336 N 
ATOM     31  C   UNL     1       1.545  -0.357  21.564  0.00  0.00    +0.129 C 
ATOM     32  C   UNL     1       3.045   1.097  22.936  0.00  0.00    +0.129 C 
ENDBRANCH  28  12
ENDBRANCH   3  25
ENDBRANCH  20   3
ENDBRANCH  15   6
TORSDOF 5
ENDMDL
