MODEL 1
REMARK VINA RESULT:      11.7      0.000      0.000
REMARK  Name = 40587810
REMARK  4 active torsions:
REMARK  status: ('A' for Active; 'I' for Inactive)
REMARK    1  A    between atoms: O_3  and  C_25
REMARK    2  A    between atoms: O_3  and  C_31
REMARK    3  A    between atoms: N_6  and  C_22
REMARK    4  A    between atoms: C_14  and  C_19
REMARK                            x       y       z     vdW  Elec       q    Type
REMARK                         _______ _______ _______ _____ _____    ______ ____
ROOT
ATOM      1  O   UNL     1       1.043   2.159  27.581  0.00  0.00    -0.268 OA
ATOM      2  O   UNL     1       0.853   0.191  22.158  0.00  0.00    -0.252 OA
ATOM      4  N   UNL     1      -0.614   1.343  26.140  0.00  0.00    -0.311 N 
ATOM      5  N   UNL     1      -0.347  -0.849  23.841  0.00  0.00    -0.284 N 
ATOM      6  N   UNL     1       1.972  -1.218  23.621  0.00  0.00    -0.269 N 
ATOM      7  C   UNL     1      -1.291  -1.128  26.140  0.00  0.00    +0.027 C 
ATOM      8  C   UNL     1      -2.354   0.433  24.571  0.00  0.00    +0.054 C 
ATOM      9  C   UNL     1      -2.634  -0.617  25.644  0.00  0.00    +0.018 C 
ATOM     10  C   UNL     1      -0.550   0.034  26.804  0.00  0.00    +0.130 C 
ATOM     11  C   UNL     1      -0.468  -1.751  24.995  0.00  0.00    +0.114 C 
ATOM     12  C   UNL     1      -1.605  -0.236  23.403  0.00  0.00    +0.119 C 
ATOM     13  C   UNL     1      -1.544   1.612  25.117  0.00  0.00    +0.034 A 
ATOM     14  C   UNL     1      -1.671   2.875  24.634  0.00  0.00    +0.002 A 
ATOM     15  C   UNL     1       0.226   2.335  26.678  0.00  0.00    +0.252 A 
ATOM     16  C   UNL     1       0.841  -0.563  23.134  0.00  0.00    +0.306 C 
ATOM     17  C   UNL     1      -0.818   3.924  25.160  0.00  0.00    +0.015 A 
ATOM     18  C   UNL     1       0.091   3.695  26.108  0.00  0.00    +0.071 A 
ATOM     32  H   UNL     1       1.847  -2.130  24.050  0.00  0.00    +0.156 HD
ENDROOT
BRANCH  14  19
ATOM     19  C   UNL     1      -2.643   3.209  23.570  0.00  0.00    -0.016 A 
ATOM     20  C   UNL     1      -3.701   4.077  23.839  0.00  0.00    +0.012 A 
ATOM     21  C   UNL     1      -2.501   2.656  22.298  0.00  0.00    +0.012 A 
ATOM     23  C   UNL     1      -4.617   4.393  22.836  0.00  0.00    +0.046 A 
ATOM     24  C   UNL     1      -3.417   2.972  21.293  0.00  0.00    +0.046 A 
ATOM     25  C   UNL     1      -4.475   3.840  21.563  0.00  0.00    +0.120 A 
BRANCH  25   3
ATOM      3  O   UNL     1      -5.370   4.147  20.584  0.00  0.00    -0.495 OA
ATOM     31  C   UNL     1      -5.028   3.768  19.251  0.00  0.00    +0.277 C 
ENDBRANCH  25   3
ENDBRANCH  14  19
BRANCH   6  22
ATOM     22  C   UNL     1       3.313  -0.763  23.577  0.00  0.00    +0.035 A 
ATOM     26  C   UNL     1       4.344  -1.584  24.032  0.00  0.00    +0.023 A 
ATOM     27  C   UNL     1       3.602   0.507  23.077  0.00  0.00    +0.023 A 
ATOM     28  C   UNL     1       5.664  -1.135  23.989  0.00  0.00    +0.002 A 
ATOM     29  C   UNL     1       4.921   0.955  23.033  0.00  0.00    +0.002 A 
ATOM     30  C   UNL     1       5.953   0.134  23.490  0.00  0.00    +0.000 A 
ENDBRANCH   6  22
TORSDOF 3
ENDMDL
MODEL 2
REMARK VINA RESULT:      14.2      3.002      4.995
REMARK  Name = 40587810
REMARK  4 active torsions:
REMARK  status: ('A' for Active; 'I' for Inactive)
REMARK    1  A    between atoms: O_3  and  C_25
REMARK    2  A    between atoms: O_3  and  C_31
REMARK    3  A    between atoms: N_6  and  C_22
REMARK    4  A    between atoms: C_14  and  C_19
REMARK                            x       y       z     vdW  Elec       q    Type
REMARK                         _______ _______ _______ _____ _____    ______ ____
ROOT
ATOM      1  O   UNL     1       0.265  -2.282  26.013  0.00  0.00    -0.268 OA
ATOM      2  O   UNL     1      -1.204   3.239  26.840  0.00  0.00    -0.252 OA
ATOM      4  N   UNL     1      -0.849  -0.630  24.781  0.00  0.00    -0.311 N 
ATOM      5  N   UNL     1      -0.380   2.523  24.800  0.00  0.00    -0.284 N 
ATOM      6  N   UNL     1       1.079   2.907  26.613  0.00  0.00    -0.269 N 
ATOM      7  C   UNL     1       0.392   0.856  23.104  0.00  0.00    +0.027 C 
ATOM      8  C   UNL     1      -2.012   1.181  23.482  0.00  0.00    +0.054 C 
ATOM      9  C   UNL     1      -0.953   0.953  22.405  0.00  0.00    +0.018 C 
ATOM     10  C   UNL     1       0.375  -0.377  24.010  0.00  0.00    +0.130 C 
ATOM     11  C   UNL     1       0.712   2.140  23.893  0.00  0.00    +0.114 C 
ATOM     12  C   UNL     1      -1.716   2.512  24.197  0.00  0.00    +0.119 C 
ATOM     13  C   UNL     1      -2.058   0.032  24.493  0.00  0.00    +0.034 A 
ATOM     14  C   UNL     1      -3.200  -0.339  25.129  0.00  0.00    +0.002 A 
ATOM     15  C   UNL     1      -0.760  -1.660  25.735  0.00  0.00    +0.252 A 
ATOM     16  C   UNL     1      -0.236   2.910  26.151  0.00  0.00    +0.306 C 
ATOM     17  C   UNL     1      -3.147  -1.393  26.124  0.00  0.00    +0.015 A 
ATOM     18  C   UNL     1      -2.013  -2.019  26.438  0.00  0.00    +0.071 A 
ATOM     32  H   UNL     1       1.819   3.112  25.948  0.00  0.00    +0.156 HD
ENDROOT
BRANCH  14  19
ATOM     19  C   UNL     1      -4.497   0.318  24.851  0.00  0.00    -0.016 A 
ATOM     20  C   UNL     1      -5.482  -0.360  24.134  0.00  0.00    +0.012 A 
ATOM     21  C   UNL     1      -4.733   1.615  25.306  0.00  0.00    +0.012 A 
ATOM     23  C   UNL     1      -6.705   0.258  23.872  0.00  0.00    +0.046 A 
ATOM     24  C   UNL     1      -5.956   2.234  25.044  0.00  0.00    +0.046 A 
ATOM     25  C   UNL     1      -6.941   1.555  24.327  0.00  0.00    +0.120 A 
BRANCH  25   3
ATOM      3  O   UNL     1      -8.134   2.160  24.071  0.00  0.00    -0.495 OA
ATOM     31  C   UNL     1      -8.857   1.709  22.926  0.00  0.00    +0.277 C 
ENDBRANCH  25   3
ENDBRANCH  14  19
BRANCH   6  22
ATOM     22  C   UNL     1       1.523   2.662  27.937  0.00  0.00    +0.035 A 
ATOM     26  C   UNL     1       2.881   2.742  28.243  0.00  0.00    +0.023 A 
ATOM     27  C   UNL     1       0.601   2.342  28.933  0.00  0.00    +0.023 A 
ATOM     28  C   UNL     1       3.317   2.500  29.546  0.00  0.00    +0.002 A 
ATOM     29  C   UNL     1       1.037   2.101  30.235  0.00  0.00    +0.002 A 
ATOM     30  C   UNL     1       2.395   2.179  30.542  0.00  0.00    +0.000 A 
ENDBRANCH   6  22
TORSDOF 3
ENDMDL
