MODEL 1
REMARK VINA RESULT:       1.0      0.000      0.000
REMARK  Name = 45783404
REMARK  10 active torsions:
REMARK  status: ('A' for Active; 'I' for Inactive)
REMARK    1  A    between atoms: S_1  and  C_23
REMARK    2  A    between atoms: S_1  and  C_27
REMARK    3  A    between atoms: O_5  and  C_31
REMARK    4  A    between atoms: O_5  and  C_32
REMARK    5  A    between atoms: N_6  and  C_15
REMARK    6  A    between atoms: N_9  and  C_29
REMARK    7  A    between atoms: C_11  and  C_16
REMARK    8  A    between atoms: C_15  and  C_17
REMARK    9  A    between atoms: C_20  and  C_24
REMARK   10  A    between atoms: C_29  and  C_31
REMARK                            x       y       z     vdW  Elec       q    Type
REMARK                         _______ _______ _______ _____ _____    ______ ____
ROOT
ATOM      2  O   UNL     1      -4.953  -8.928  14.021  0.00  0.00    -0.336 OA
ATOM      7  N   UNL     1      -5.807 -10.763  13.060  0.00  0.00    -0.190 NA
ATOM      8  N   UNL     1      -5.092  -8.626  12.661  0.00  0.00    -0.056 NA
ATOM     16  C   UNL     1      -5.395 -10.204  14.171  0.00  0.00    +0.245 A 
ATOM     20  C   UNL     1      -5.602  -9.757  12.162  0.00  0.00    +0.205 A 
ENDROOT
BRANCH  20  24
ATOM      9  N   UNL     1      -8.269 -10.118  11.253  0.00  0.00    -0.326 N 
ATOM     10  N   UNL     1      -7.536 -10.241   9.007  0.00  0.00    -0.240 NA
ATOM     24  C   UNL     1      -5.916  -9.914  10.771  0.00  0.00    +0.062 A 
ATOM     25  C   UNL     1      -7.210 -10.091  10.311  0.00  0.00    +0.130 A 
ATOM     26  C   UNL     1      -4.889  -9.890   9.833  0.00  0.00    +0.016 A 
ATOM     28  C   UNL     1      -5.185 -10.042   8.483  0.00  0.00    +0.020 A 
ATOM     30  C   UNL     1      -6.512 -10.212   8.125  0.00  0.00    +0.113 A 
ATOM     33  H   UNL     1      -8.089  -9.658  12.140  0.00  0.00    +0.148 HD
BRANCH   9  29
ATOM     29  C   UNL     1      -9.632 -10.294  10.875  0.00  0.00    +0.131 C 
BRANCH  29  31
ATOM     31  C   UNL     1     -10.547  -9.696  11.931  0.00  0.00    +0.178 C 
BRANCH  31   5
ATOM      5  O   UNL     1      -9.797  -9.420  13.107  0.00  0.00    -0.381 OA
ATOM     32  C   UNL     1     -10.599  -9.533  14.274  0.00  0.00    +0.194 C 
ENDBRANCH  31   5
ENDBRANCH  29  31
ENDBRANCH   9  29
ENDBRANCH  20  24
BRANCH  16  11
ATOM      6  N   UNL     1      -4.298 -10.153  16.404  0.00  0.00    -0.287 NA
ATOM     11  C   UNL     1      -5.348 -10.775  15.573  0.00  0.00    +0.146 C 
ATOM     12  C   UNL     1      -6.655 -10.542  16.354  0.00  0.00    +0.030 C 
ATOM     13  C   UNL     1      -6.232  -9.837  17.635  0.00  0.00    +0.017 C 
ATOM     14  C   UNL     1      -4.774 -10.218  17.786  0.00  0.00    +0.085 C 
BRANCH   6  15
ATOM     15  C   UNL     1      -2.992 -10.779  16.243  0.00  0.00    +0.120 C 
BRANCH  15  17
ATOM     17  C   UNL     1      -2.280 -10.282  15.013  0.00  0.00    -0.033 A 
ATOM     18  C   UNL     1      -1.267  -9.332  15.129  0.00  0.00    +0.007 A 
ATOM     19  C   UNL     1      -2.634 -10.774  13.756  0.00  0.00    +0.007 A 
ATOM     21  C   UNL     1      -0.608  -8.871  13.989  0.00  0.00    +0.027 A 
ATOM     22  C   UNL     1      -1.975 -10.314  12.616  0.00  0.00    +0.027 A 
ATOM     23  C   UNL     1      -0.962  -9.363  12.733  0.00  0.00    +0.088 A 
BRANCH  23   1
ATOM      1  S   UNL     1      -0.134  -8.789  11.306  0.00  0.00    -0.006 S 
ATOM      3  O   UNL     1       0.778  -9.825  10.842  0.00  0.00    -0.170 OA
ATOM      4  O   UNL     1      -1.133  -8.244  10.398  0.00  0.00    -0.170 OA
ATOM     27  C   UNL     1       0.868  -7.440  11.889  0.00  0.00    +0.200 C 
ENDBRANCH  23   1
ENDBRANCH  15  17
ENDBRANCH   6  15
ENDBRANCH  16  11
TORSDOF 8
ENDMDL
MODEL 2
REMARK VINA RESULT:       2.4      2.531      3.854
REMARK  Name = 45783404
REMARK  10 active torsions:
REMARK  status: ('A' for Active; 'I' for Inactive)
REMARK    1  A    between atoms: S_1  and  C_23
REMARK    2  A    between atoms: S_1  and  C_27
REMARK    3  A    between atoms: O_5  and  C_31
REMARK    4  A    between atoms: O_5  and  C_32
REMARK    5  A    between atoms: N_6  and  C_15
REMARK    6  A    between atoms: N_9  and  C_29
REMARK    7  A    between atoms: C_11  and  C_16
REMARK    8  A    between atoms: C_15  and  C_17
REMARK    9  A    between atoms: C_20  and  C_24
REMARK   10  A    between atoms: C_29  and  C_31
REMARK                            x       y       z     vdW  Elec       q    Type
REMARK                         _______ _______ _______ _____ _____    ______ ____
ROOT
ATOM      2  O   UNL     1      -4.157  -8.401  10.557  0.00  0.00    -0.336 OA
ATOM      7  N   UNL     1      -5.846  -9.801  11.010  0.00  0.00    -0.190 NA
ATOM      8  N   UNL     1      -5.290  -7.856   9.940  0.00  0.00    -0.056 NA
ATOM     16  C   UNL     1      -4.571  -9.544  11.164  0.00  0.00    +0.245 A 
ATOM     20  C   UNL     1      -6.245  -8.739  10.253  0.00  0.00    +0.205 A 
ENDROOT
BRANCH  20  24
ATOM      9  N   UNL     1      -8.426  -9.678  11.811  0.00  0.00    -0.326 N 
ATOM     10  N   UNL     1      -9.973  -8.913  10.193  0.00  0.00    -0.240 NA
ATOM     24  C   UNL     1      -7.605  -8.588   9.824  0.00  0.00    +0.062 A 
ATOM     25  C   UNL     1      -8.680  -9.040  10.571  0.00  0.00    +0.130 A 
ATOM     26  C   UNL     1      -7.873  -7.965   8.609  0.00  0.00    +0.016 A 
ATOM     28  C   UNL     1      -9.189  -7.815   8.187  0.00  0.00    +0.020 A 
ATOM     30  C   UNL     1     -10.193  -8.302   9.007  0.00  0.00    +0.113 A 
ATOM     33  H   UNL     1      -7.540  -9.456  12.254  0.00  0.00    +0.148 HD
BRANCH   9  29
ATOM     29  C   UNL     1      -9.466 -10.175  12.649  0.00  0.00    +0.131 C 
BRANCH  29  31
ATOM     31  C   UNL     1      -8.878 -10.742  13.931  0.00  0.00    +0.178 C 
BRANCH  31   5
ATOM      5  O   UNL     1      -8.308  -9.688  14.696  0.00  0.00    -0.381 OA
ATOM     32  C   UNL     1      -8.385  -9.957  16.089  0.00  0.00    +0.194 C 
ENDBRANCH  31   5
ENDBRANCH  29  31
ENDBRANCH   9  29
ENDBRANCH  20  24
BRANCH  16  11
ATOM      6  N   UNL     1      -2.294  -9.544  12.167  0.00  0.00    -0.287 NA
ATOM     11  C   UNL     1      -3.516 -10.331  11.913  0.00  0.00    +0.146 C 
ATOM     12  C   UNL     1      -3.989 -10.781  13.308  0.00  0.00    +0.030 C 
ATOM     13  C   UNL     1      -2.939 -10.251  14.273  0.00  0.00    +0.017 C 
ATOM     14  C   UNL     1      -1.713 -10.070  13.403  0.00  0.00    +0.085 C 
BRANCH   6  15
ATOM     15  C   UNL     1      -1.348  -9.576  11.058  0.00  0.00    +0.120 C 
BRANCH  15  17
ATOM     17  C   UNL     1      -0.104  -8.783  11.359  0.00  0.00    -0.033 A 
ATOM     18  C   UNL     1      -0.120  -7.812  12.359  0.00  0.00    +0.007 A 
ATOM     19  C   UNL     1       1.065  -9.022  10.637  0.00  0.00    +0.007 A 
ATOM     21  C   UNL     1       1.033  -7.078  12.637  0.00  0.00    +0.027 A 
ATOM     22  C   UNL     1       2.219  -8.288  10.915  0.00  0.00    +0.027 A 
ATOM     23  C   UNL     1       2.202  -7.316  11.916  0.00  0.00    +0.088 A 
BRANCH  23   1
ATOM      1  S   UNL     1       3.646  -6.399  12.267  0.00  0.00    -0.006 S 
ATOM      3  O   UNL     1       4.656  -6.708  11.263  0.00  0.00    -0.170 OA
ATOM      4  O   UNL     1       3.254  -5.016  12.496  0.00  0.00    -0.170 OA
ATOM     27  C   UNL     1       4.229  -7.065  13.809  0.00  0.00    +0.200 C 
ENDBRANCH  23   1
ENDBRANCH  15  17
ENDBRANCH   6  15
ENDBRANCH  16  11
TORSDOF 8
ENDMDL
MODEL 3
REMARK VINA RESULT:       2.6     14.140     17.510
REMARK  Name = 45783404
REMARK  10 active torsions:
REMARK  status: ('A' for Active; 'I' for Inactive)
REMARK    1  A    between atoms: S_1  and  C_23
REMARK    2  A    between atoms: S_1  and  C_27
REMARK    3  A    between atoms: O_5  and  C_31
REMARK    4  A    between atoms: O_5  and  C_32
REMARK    5  A    between atoms: N_6  and  C_15
REMARK    6  A    between atoms: N_9  and  C_29
REMARK    7  A    between atoms: C_11  and  C_16
REMARK    8  A    between atoms: C_15  and  C_17
REMARK    9  A    between atoms: C_20  and  C_24
REMARK   10  A    between atoms: C_29  and  C_31
REMARK                            x       y       z     vdW  Elec       q    Type
REMARK                         _______ _______ _______ _____ _____    ______ ____
ROOT
ATOM      2  O   UNL     1      -0.219   3.626  24.282  0.00  0.00    -0.336 OA
ATOM      7  N   UNL     1      -1.608   1.942  24.784  0.00  0.00    -0.190 NA
ATOM      8  N   UNL     1       0.571   2.470  24.329  0.00  0.00    -0.056 NA
ATOM     16  C   UNL     1      -1.487   3.226  24.562  0.00  0.00    +0.245 A 
ATOM     20  C   UNL     1      -0.320   1.520  24.630  0.00  0.00    +0.205 A 
ENDROOT
BRANCH  20  24
ATOM      9  N   UNL     1       1.798   0.349  23.144  0.00  0.00    -0.326 N 
ATOM     10  N   UNL     1       1.443  -1.741  24.194  0.00  0.00    -0.240 NA
ATOM     24  C   UNL     1       0.045   0.142  24.786  0.00  0.00    +0.062 A 
ATOM     25  C   UNL     1       1.075  -0.445  24.069  0.00  0.00    +0.130 A 
ATOM     26  C   UNL     1      -0.653  -0.652  25.690  0.00  0.00    +0.016 A 
ATOM     28  C   UNL     1      -0.305  -1.988  25.846  0.00  0.00    +0.020 A 
ATOM     30  C   UNL     1       0.741  -2.480  25.082  0.00  0.00    +0.113 A 
ATOM     33  H   UNL     1       1.781   1.351  23.305  0.00  0.00    +0.148 HD
BRANCH   9  29
ATOM     29  C   UNL     1       2.873  -0.166  22.361  0.00  0.00    +0.131 C 
BRANCH  29  31
ATOM     31  C   UNL     1       4.045   0.802  22.384  0.00  0.00    +0.178 C 
BRANCH  31   5
ATOM      5  O   UNL     1       4.656   0.774  23.668  0.00  0.00    -0.381 OA
ATOM     32  C   UNL     1       5.353  -0.444  23.885  0.00  0.00    +0.194 C 
ENDBRANCH  31   5
ENDBRANCH  29  31
ENDBRANCH   9  29
ENDBRANCH  20  24
BRANCH  16  11
ATOM      6  N   UNL     1      -3.794   3.874  25.236  0.00  0.00    -0.287 NA
ATOM     11  C   UNL     1      -2.549   4.307  24.572  0.00  0.00    +0.146 C 
ATOM     12  C   UNL     1      -2.109   5.564  25.346  0.00  0.00    +0.030 C 
ATOM     13  C   UNL     1      -3.199   5.793  26.384  0.00  0.00    +0.017 C 
ATOM     14  C   UNL     1      -4.401   5.079  25.802  0.00  0.00    +0.085 C 
BRANCH   6  15
ATOM     15  C   UNL     1      -4.704   3.166  24.345  0.00  0.00    +0.120 C 
BRANCH  15  17
ATOM     17  C   UNL     1      -4.450   1.682  24.346  0.00  0.00    -0.033 A 
ATOM     18  C   UNL     1      -3.864   1.074  23.238  0.00  0.00    +0.007 A 
ATOM     19  C   UNL     1      -4.803   0.916  25.458  0.00  0.00    +0.007 A 
ATOM     21  C   UNL     1      -3.629  -0.301  23.239  0.00  0.00    +0.027 A 
ATOM     22  C   UNL     1      -4.568  -0.459  25.459  0.00  0.00    +0.027 A 
ATOM     23  C   UNL     1      -3.981  -1.067  24.350  0.00  0.00    +0.088 A 
BRANCH  23   1
ATOM      1  S   UNL     1      -3.684  -2.788  24.353  0.00  0.00    -0.006 S 
ATOM      3  O   UNL     1      -3.463  -3.226  25.724  0.00  0.00    -0.170 OA
ATOM      4  O   UNL     1      -4.718  -3.422  23.548  0.00  0.00    -0.170 OA
ATOM     27  C   UNL     1      -2.136  -2.971  23.496  0.00  0.00    +0.200 C 
ENDBRANCH  23   1
ENDBRANCH  15  17
ENDBRANCH   6  15
ENDBRANCH  16  11
TORSDOF 8
ENDMDL
MODEL 4
REMARK VINA RESULT:       2.7     14.374     17.731
REMARK  Name = 45783404
REMARK  10 active torsions:
REMARK  status: ('A' for Active; 'I' for Inactive)
REMARK    1  A    between atoms: S_1  and  C_23
REMARK    2  A    between atoms: S_1  and  C_27
REMARK    3  A    between atoms: O_5  and  C_31
REMARK    4  A    between atoms: O_5  and  C_32
REMARK    5  A    between atoms: N_6  and  C_15
REMARK    6  A    between atoms: N_9  and  C_29
REMARK    7  A    between atoms: C_11  and  C_16
REMARK    8  A    between atoms: C_15  and  C_17
REMARK    9  A    between atoms: C_20  and  C_24
REMARK   10  A    between atoms: C_29  and  C_31
REMARK                            x       y       z     vdW  Elec       q    Type
REMARK                         _______ _______ _______ _____ _____    ______ ____
ROOT
ATOM      2  O   UNL     1      -1.279  -0.620  26.652  0.00  0.00    -0.336 OA
ATOM      7  N   UNL     1      -1.600   0.217  24.599  0.00  0.00    -0.190 NA
ATOM      8  N   UNL     1      -0.730   0.668  26.667  0.00  0.00    -0.056 NA
ATOM     16  C   UNL     1      -1.769  -0.806  25.399  0.00  0.00    +0.245 A 
ATOM     20  C   UNL     1      -0.959   1.097  25.421  0.00  0.00    +0.205 A 
ENDROOT
BRANCH  20  24
ATOM      9  N   UNL     1       1.304   1.472  23.748  0.00  0.00    -0.326 N 
ATOM     10  N   UNL     1       0.944   3.810  23.706  0.00  0.00    -0.240 NA
ATOM     24  C   UNL     1      -0.559   2.397  24.967  0.00  0.00    +0.062 A 
ATOM     25  C   UNL     1       0.543   2.598  24.150  0.00  0.00    +0.130 A 
ATOM     26  C   UNL     1      -1.295   3.512  25.352  0.00  0.00    +0.016 A 
ATOM     28  C   UNL     1      -0.913   4.775  24.915  0.00  0.00    +0.020 A 
ATOM     30  C   UNL     1       0.204   4.870  24.101  0.00  0.00    +0.113 A 
ATOM     33  H   UNL     1       0.824   0.579  23.764  0.00  0.00    +0.148 HD
BRANCH   9  29
ATOM     29  C   UNL     1       2.452   1.579  22.910  0.00  0.00    +0.131 C 
BRANCH  29  31
ATOM     31  C   UNL     1       3.209   0.261  22.890  0.00  0.00    +0.178 C 
BRANCH  31   5
ATOM      5  O   UNL     1       4.587   0.510  22.644  0.00  0.00    -0.381 OA
ATOM     32  C   UNL     1       5.405  -0.049  23.662  0.00  0.00    +0.194 C 
ENDBRANCH  31   5
ENDBRANCH  29  31
ENDBRANCH   9  29
ENDBRANCH  20  24
BRANCH  16  11
ATOM      6  N   UNL     1      -3.312  -2.107  23.943  0.00  0.00    -0.287 NA
ATOM     11  C   UNL     1      -2.426  -2.143  25.122  0.00  0.00    +0.146 C 
ATOM     12  C   UNL     1      -1.405  -3.253  24.811  0.00  0.00    +0.030 C 
ATOM     13  C   UNL     1      -1.834  -3.822  23.466  0.00  0.00    +0.017 C 
ATOM     14  C   UNL     1      -3.301  -3.456  23.376  0.00  0.00    +0.085 C 
BRANCH   6  15
ATOM     15  C   UNL     1      -4.662  -1.652  24.252  0.00  0.00    +0.120 C 
BRANCH  15  17
ATOM     17  C   UNL     1      -4.712  -0.168  24.498  0.00  0.00    -0.033 A 
ATOM     18  C   UNL     1      -5.343   0.329  25.637  0.00  0.00    +0.007 A 
ATOM     19  C   UNL     1      -4.125   0.709  23.586  0.00  0.00    +0.007 A 
ATOM     21  C   UNL     1      -5.389   1.705  25.865  0.00  0.00    +0.027 A 
ATOM     22  C   UNL     1      -4.170   2.085  23.814  0.00  0.00    +0.027 A 
ATOM     23  C   UNL     1      -4.802   2.582  24.954  0.00  0.00    +0.088 A 
BRANCH  23   1
ATOM      1  S   UNL     1      -4.857   4.304  25.241  0.00  0.00    -0.006 S 
ATOM      3  O   UNL     1      -4.202   4.988  24.133  0.00  0.00    -0.170 OA
ATOM      4  O   UNL     1      -6.223   4.654  25.602  0.00  0.00    -0.170 OA
ATOM     27  C   UNL     1      -3.834   4.545  26.676  0.00  0.00    +0.200 C 
ENDBRANCH  23   1
ENDBRANCH  15  17
ENDBRANCH   6  15
ENDBRANCH  16  11
TORSDOF 8
ENDMDL
MODEL 5
REMARK VINA RESULT:       2.7     21.671     25.576
REMARK  Name = 45783404
REMARK  10 active torsions:
REMARK  status: ('A' for Active; 'I' for Inactive)
REMARK    1  A    between atoms: S_1  and  C_23
REMARK    2  A    between atoms: S_1  and  C_27
REMARK    3  A    between atoms: O_5  and  C_31
REMARK    4  A    between atoms: O_5  and  C_32
REMARK    5  A    between atoms: N_6  and  C_15
REMARK    6  A    between atoms: N_9  and  C_29
REMARK    7  A    between atoms: C_11  and  C_16
REMARK    8  A    between atoms: C_15  and  C_17
REMARK    9  A    between atoms: C_20  and  C_24
REMARK   10  A    between atoms: C_29  and  C_31
REMARK                            x       y       z     vdW  Elec       q    Type
REMARK                         _______ _______ _______ _____ _____    ______ ____
ROOT
ATOM      2  O   UNL     1      15.505  -5.904  26.265  0.00  0.00    -0.336 OA
ATOM      7  N   UNL     1      17.356  -5.004  25.380  0.00  0.00    -0.190 NA
ATOM      8  N   UNL     1      15.193  -4.567  25.986  0.00  0.00    -0.056 NA
ATOM     16  C   UNL     1      16.796  -6.078  25.879  0.00  0.00    +0.245 A 
ATOM     20  C   UNL     1      16.335  -4.104  25.466  0.00  0.00    +0.205 A 
ENDROOT
BRANCH  20  24
ATOM      9  N   UNL     1      15.138  -3.158  23.071  0.00  0.00    -0.326 N 
ATOM     10  N   UNL     1      16.037  -0.997  23.421  0.00  0.00    -0.240 NA
ATOM     24  C   UNL     1      16.487  -2.748  25.026  0.00  0.00    +0.062 A 
ATOM     25  C   UNL     1      15.911  -2.269  23.861  0.00  0.00    +0.130 A 
ATOM     26  C   UNL     1      17.242  -1.863  25.790  0.00  0.00    +0.016 A 
ATOM     28  C   UNL     1      17.394  -0.546  25.369  0.00  0.00    +0.020 A 
ATOM     30  C   UNL     1      16.777  -0.167  24.189  0.00  0.00    +0.113 A 
ATOM     33  H   UNL     1      14.749  -3.961  23.553  0.00  0.00    +0.148 HD
BRANCH   9  29
ATOM     29  C   UNL     1      14.507  -2.758  21.857  0.00  0.00    +0.131 C 
BRANCH  29  31
ATOM     31  C   UNL     1      13.037  -3.141  21.883  0.00  0.00    +0.178 C 
BRANCH  31   5
ATOM      5  O   UNL     1      12.507  -3.075  20.565  0.00  0.00    -0.381 OA
ATOM     32  C   UNL     1      12.426  -4.364  19.972  0.00  0.00    +0.194 C 
ENDBRANCH  31   5
ENDBRANCH  29  31
ENDBRANCH   9  29
ENDBRANCH  20  24
BRANCH  16  11
ATOM      6  N   UNL     1      16.678  -8.228  27.126  0.00  0.00    -0.287 NA
ATOM     11  C   UNL     1      17.379  -7.462  26.078  0.00  0.00    +0.146 C 
ATOM     12  C   UNL     1      17.274  -8.338  24.816  0.00  0.00    +0.030 C 
ATOM     13  C   UNL     1      16.552  -9.599  25.268  0.00  0.00    +0.017 C 
ATOM     14  C   UNL     1      16.804  -9.639  26.761  0.00  0.00    +0.085 C 
BRANCH   6  15
ATOM     15  C   UNL     1      17.182  -7.961  28.468  0.00  0.00    +0.120 C 
BRANCH  15  17
ATOM     17  C   UNL     1      16.102  -7.444  29.381  0.00  0.00    -0.033 A 
ATOM     18  C   UNL     1      16.360  -6.367  30.226  0.00  0.00    +0.007 A 
ATOM     19  C   UNL     1      14.843  -8.044  29.380  0.00  0.00    +0.007 A 
ATOM     21  C   UNL     1      15.359  -5.888  31.072  0.00  0.00    +0.027 A 
ATOM     22  C   UNL     1      13.841  -7.566  30.225  0.00  0.00    +0.027 A 
ATOM     23  C   UNL     1      14.100  -6.487  31.071  0.00  0.00    +0.088 A 
BRANCH  23   1
ATOM      1  S   UNL     1      12.846  -5.886  32.128  0.00  0.00    -0.006 S 
ATOM      3  O   UNL     1      12.254  -7.008  32.843  0.00  0.00    -0.170 OA
ATOM      4  O   UNL     1      13.391  -4.759  32.872  0.00  0.00    -0.170 OA
ATOM     27  C   UNL     1      11.601  -5.260  31.023  0.00  0.00    +0.200 C 
ENDBRANCH  23   1
ENDBRANCH  15  17
ENDBRANCH   6  15
ENDBRANCH  16  11
TORSDOF 8
ENDMDL
MODEL 6
REMARK VINA RESULT:       3.8      1.784      2.560
REMARK  Name = 45783404
REMARK  10 active torsions:
REMARK  status: ('A' for Active; 'I' for Inactive)
REMARK    1  A    between atoms: S_1  and  C_23
REMARK    2  A    between atoms: S_1  and  C_27
REMARK    3  A    between atoms: O_5  and  C_31
REMARK    4  A    between atoms: O_5  and  C_32
REMARK    5  A    between atoms: N_6  and  C_15
REMARK    6  A    between atoms: N_9  and  C_29
REMARK    7  A    between atoms: C_11  and  C_16
REMARK    8  A    between atoms: C_15  and  C_17
REMARK    9  A    between atoms: C_20  and  C_24
REMARK   10  A    between atoms: C_29  and  C_31
REMARK                            x       y       z     vdW  Elec       q    Type
REMARK                         _______ _______ _______ _____ _____    ______ ____
ROOT
ATOM      2  O   UNL     1      -4.933  -8.934  12.580  0.00  0.00    -0.336 OA
ATOM      7  N   UNL     1      -6.516 -10.512  12.437  0.00  0.00    -0.190 NA
ATOM      8  N   UNL     1      -5.806  -8.518  11.567  0.00  0.00    -0.056 NA
ATOM     16  C   UNL     1      -5.423 -10.116  13.038  0.00  0.00    +0.245 A 
ATOM     20  C   UNL     1      -6.713  -9.500  11.543  0.00  0.00    +0.205 A 
ENDROOT
BRANCH  20  24
ATOM      9  N   UNL     1      -9.399  -9.568  12.461  0.00  0.00    -0.326 N 
ATOM     10  N   UNL     1     -10.209  -9.536  10.238  0.00  0.00    -0.240 NA
ATOM     24  C   UNL     1      -7.825  -9.502  10.637  0.00  0.00    +0.062 A 
ATOM     25  C   UNL     1      -9.141  -9.534  11.068  0.00  0.00    +0.130 A 
ATOM     26  C   UNL     1      -7.589  -9.468   9.267  0.00  0.00    +0.016 A 
ATOM     28  C   UNL     1      -8.662  -9.469   8.382  0.00  0.00    +0.020 A 
ATOM     30  C   UNL     1      -9.941  -9.503   8.914  0.00  0.00    +0.113 A 
ATOM     33  H   UNL     1      -8.664  -9.209  13.061  0.00  0.00    +0.148 HD
BRANCH   9  29
ATOM     29  C   UNL     1     -10.719  -9.603  12.999  0.00  0.00    +0.131 C 
BRANCH  29  31
ATOM     31  C   UNL     1     -10.675 -10.004  14.464  0.00  0.00    +0.178 C 
BRANCH  31   5
ATOM      5  O   UNL     1     -10.150  -8.929  15.233  0.00  0.00    -0.381 OA
ATOM     32  C   UNL     1      -9.227  -9.391  16.209  0.00  0.00    +0.194 C 
ENDBRANCH  31   5
ENDBRANCH  29  31
ENDBRANCH   9  29
ENDBRANCH  20  24
BRANCH  16  11
ATOM      6  N   UNL     1      -3.303 -10.196  14.339  0.00  0.00    -0.287 NA
ATOM     11  C   UNL     1      -4.645 -10.781  14.155  0.00  0.00    +0.146 C 
ATOM     12  C   UNL     1      -5.329 -10.630  15.527  0.00  0.00    +0.030 C 
ATOM     13  C   UNL     1      -4.275 -10.007  16.430  0.00  0.00    +0.017 C 
ATOM     14  C   UNL     1      -2.968 -10.367  15.753  0.00  0.00    +0.085 C 
BRANCH   6  15
ATOM     15  C   UNL     1      -2.296 -10.781  13.462  0.00  0.00    +0.120 C 
BRANCH  15  17
ATOM     17  C   UNL     1      -1.230  -9.785  13.089  0.00  0.00    -0.033 A 
ATOM     18  C   UNL     1      -0.668  -9.809  11.814  0.00  0.00    +0.007 A 
ATOM     19  C   UNL     1      -0.805  -8.837  14.021  0.00  0.00    +0.007 A 
ATOM     21  C   UNL     1       0.320  -8.887  11.469  0.00  0.00    +0.027 A 
ATOM     22  C   UNL     1       0.182  -7.914  13.676  0.00  0.00    +0.027 A 
ATOM     23  C   UNL     1       0.744  -7.939  12.399  0.00  0.00    +0.088 A 
BRANCH  23   1
ATOM      1  S   UNL     1       1.978  -6.782  11.966  0.00  0.00    -0.006 S 
ATOM      3  O   UNL     1       2.302  -6.944  10.555  0.00  0.00    -0.170 OA
ATOM      4  O   UNL     1       1.566  -5.479  12.469  0.00  0.00    -0.170 OA
ATOM     27  C   UNL     1       3.410  -7.296  12.888  0.00  0.00    +0.200 C 
ENDBRANCH  23   1
ENDBRANCH  15  17
ENDBRANCH   6  15
ENDBRANCH  16  11
TORSDOF 8
ENDMDL
MODEL 7
REMARK VINA RESULT:       4.0     14.904     18.117
REMARK  Name = 45783404
REMARK  10 active torsions:
REMARK  status: ('A' for Active; 'I' for Inactive)
REMARK    1  A    between atoms: S_1  and  C_23
REMARK    2  A    between atoms: S_1  and  C_27
REMARK    3  A    between atoms: O_5  and  C_31
REMARK    4  A    between atoms: O_5  and  C_32
REMARK    5  A    between atoms: N_6  and  C_15
REMARK    6  A    between atoms: N_9  and  C_29
REMARK    7  A    between atoms: C_11  and  C_16
REMARK    8  A    between atoms: C_15  and  C_17
REMARK    9  A    between atoms: C_20  and  C_24
REMARK   10  A    between atoms: C_29  and  C_31
REMARK                            x       y       z     vdW  Elec       q    Type
REMARK                         _______ _______ _______ _____ _____    ______ ____
ROOT
ATOM      2  O   UNL     1       0.136  -0.991  23.761  0.00  0.00    -0.336 OA
ATOM      7  N   UNL     1      -1.424   0.210  24.829  0.00  0.00    -0.190 NA
ATOM      8  N   UNL     1       0.561   0.342  23.699  0.00  0.00    -0.056 NA
ATOM     16  C   UNL     1      -1.040  -0.980  24.442  0.00  0.00    +0.245 A 
ATOM     20  C   UNL     1      -0.410   0.988  24.351  0.00  0.00    +0.205 A 
ENDROOT
BRANCH  20  24
ATOM      9  N   UNL     1       0.264   2.169  26.844  0.00  0.00    -0.326 N 
ATOM     10  N   UNL     1      -0.053   4.339  25.955  0.00  0.00    -0.240 NA
ATOM     24  C   UNL     1      -0.399   2.410  24.539  0.00  0.00    +0.062 A 
ATOM     25  C   UNL     1      -0.073   3.003  25.748  0.00  0.00    +0.130 A 
ATOM     26  C   UNL     1      -0.727   3.243  23.474  0.00  0.00    +0.016 A 
ATOM     28  C   UNL     1      -0.718   4.622  23.649  0.00  0.00    +0.020 A 
ATOM     30  C   UNL     1      -0.377   5.115  24.897  0.00  0.00    +0.113 A 
ATOM     33  H   UNL     1       0.599   1.239  26.612  0.00  0.00    +0.148 HD
BRANCH   9  29
ATOM     29  C   UNL     1       0.614   2.686  28.126  0.00  0.00    +0.131 C 
BRANCH  29  31
ATOM     31  C   UNL     1       2.125   2.707  28.285  0.00  0.00    +0.178 C 
BRANCH  31   5
ATOM      5  O   UNL     1       2.465   2.347  29.618  0.00  0.00    -0.381 OA
ATOM     32  C   UNL     1       1.312   2.266  30.444  0.00  0.00    +0.194 C 
ENDBRANCH  31   5
ENDBRANCH  29  31
ENDBRANCH   9  29
ENDBRANCH  20  24
BRANCH  16  11
ATOM      6  N   UNL     1      -3.101  -2.342  24.146  0.00  0.00    -0.287 NA
ATOM     11  C   UNL     1      -1.713  -2.321  24.648  0.00  0.00    +0.146 C 
ATOM     12  C   UNL     1      -1.007  -3.463  23.893  0.00  0.00    +0.030 C 
ATOM     13  C   UNL     1      -2.091  -4.104  23.038  0.00  0.00    +0.017 C 
ATOM     14  C   UNL     1      -3.375  -3.722  23.745  0.00  0.00    +0.085 C 
BRANCH   6  15
ATOM     15  C   UNL     1      -4.071  -1.850  25.117  0.00  0.00    +0.120 C 
BRANCH  15  17
ATOM     17  C   UNL     1      -4.221  -0.353  25.051  0.00  0.00    -0.033 A 
ATOM     18  C   UNL     1      -4.715   0.347  26.150  0.00  0.00    +0.007 A 
ATOM     19  C   UNL     1      -3.865   0.332  23.889  0.00  0.00    +0.007 A 
ATOM     21  C   UNL     1      -4.855   1.734  26.088  0.00  0.00    +0.027 A 
ATOM     22  C   UNL     1      -4.003   1.719  23.827  0.00  0.00    +0.027 A 
ATOM     23  C   UNL     1      -4.498   2.419  24.927  0.00  0.00    +0.088 A 
BRANCH  23   1
ATOM      1  S   UNL     1      -4.669   4.156  24.851  0.00  0.00    -0.006 S 
ATOM      3  O   UNL     1      -4.242   4.614  23.536  0.00  0.00    -0.170 OA
ATOM      4  O   UNL     1      -5.998   4.496  25.340  0.00  0.00    -0.170 OA
ATOM     27  C   UNL     1      -3.482   4.769  26.025  0.00  0.00    +0.200 C 
ENDBRANCH  23   1
ENDBRANCH  15  17
ENDBRANCH   6  15
ENDBRANCH  16  11
TORSDOF 8
ENDMDL
MODEL 8
REMARK VINA RESULT:       4.3     14.475     17.207
REMARK  Name = 45783404
REMARK  10 active torsions:
REMARK  status: ('A' for Active; 'I' for Inactive)
REMARK    1  A    between atoms: S_1  and  C_23
REMARK    2  A    between atoms: S_1  and  C_27
REMARK    3  A    between atoms: O_5  and  C_31
REMARK    4  A    between atoms: O_5  and  C_32
REMARK    5  A    between atoms: N_6  and  C_15
REMARK    6  A    between atoms: N_9  and  C_29
REMARK    7  A    between atoms: C_11  and  C_16
REMARK    8  A    between atoms: C_15  and  C_17
REMARK    9  A    between atoms: C_20  and  C_24
REMARK   10  A    between atoms: C_29  and  C_31
REMARK                            x       y       z     vdW  Elec       q    Type
REMARK                         _______ _______ _______ _____ _____    ______ ____
ROOT
ATOM      2  O   UNL     1      -4.851   0.734  24.646  0.00  0.00    -0.336 OA
ATOM      7  N   UNL     1      -2.770   1.398  24.149  0.00  0.00    -0.190 NA
ATOM      8  N   UNL     1      -4.836   2.125  24.810  0.00  0.00    -0.056 NA
ATOM     16  C   UNL     1      -3.596   0.388  24.257  0.00  0.00    +0.245 A 
ATOM     20  C   UNL     1      -3.576   2.442  24.497  0.00  0.00    +0.205 A 
ENDROOT
BRANCH  20  24
ATOM      9  N   UNL     1      -1.101   3.123  25.714  0.00  0.00    -0.326 N 
ATOM     10  N   UNL     1      -1.401   5.403  25.157  0.00  0.00    -0.240 NA
ATOM     24  C   UNL     1      -3.090   3.791  24.526  0.00  0.00    +0.062 A 
ATOM     25  C   UNL     1      -1.885   4.141  25.115  0.00  0.00    +0.130 A 
ATOM     26  C   UNL     1      -3.846   4.802  23.942  0.00  0.00    +0.016 A 
ATOM     28  C   UNL     1      -3.381   6.112  23.966  0.00  0.00    +0.020 A 
ATOM     30  C   UNL     1      -2.164   6.358  24.579  0.00  0.00    +0.113 A 
ATOM     33  H   UNL     1      -1.263   2.179  25.378  0.00  0.00    +0.148 HD
BRANCH   9  29
ATOM     29  C   UNL     1       0.151   3.385  26.343  0.00  0.00    +0.131 C 
BRANCH  29  31
ATOM     31  C   UNL     1       0.362   2.427  27.504  0.00  0.00    +0.178 C 
BRANCH  31   5
ATOM      5  O   UNL     1       1.603   2.715  28.135  0.00  0.00    -0.381 OA
ATOM     32  C   UNL     1       1.559   2.423  29.525  0.00  0.00    +0.194 C 
ENDBRANCH  31   5
ENDBRANCH  29  31
ENDBRANCH   9  29
ENDBRANCH  20  24
BRANCH  16  11
ATOM      6  N   UNL     1      -3.419  -1.889  25.248  0.00  0.00    -0.287 NA
ATOM     11  C   UNL     1      -3.349  -1.086  24.011  0.00  0.00    +0.146 C 
ATOM     12  C   UNL     1      -4.398  -1.716  23.075  0.00  0.00    +0.030 C 
ATOM     13  C   UNL     1      -4.960  -2.900  23.850  0.00  0.00    +0.017 C 
ATOM     14  C   UNL     1      -3.870  -3.223  24.850  0.00  0.00    +0.085 C 
BRANCH   6  15
ATOM     15  C   UNL     1      -2.158  -1.930  25.978  0.00  0.00    +0.120 C 
BRANCH  15  17
ATOM     17  C   UNL     1      -1.016  -1.391  25.158  0.00  0.00    -0.033 A 
ATOM     18  C   UNL     1      -0.573  -0.085  25.354  0.00  0.00    +0.007 A 
ATOM     19  C   UNL     1      -0.403  -2.201  24.202  0.00  0.00    +0.007 A 
ATOM     21  C   UNL     1       0.485   0.414  24.593  0.00  0.00    +0.027 A 
ATOM     22  C   UNL     1       0.655  -1.702  23.442  0.00  0.00    +0.027 A 
ATOM     23  C   UNL     1       1.099  -0.395  23.638  0.00  0.00    +0.088 A 
BRANCH  23   1
ATOM      1  S   UNL     1       2.426   0.229  22.689  0.00  0.00    -0.006 S 
ATOM      3  O   UNL     1       2.214  -0.127  21.292  0.00  0.00    -0.170 OA
ATOM      4  O   UNL     1       2.623   1.624  23.058  0.00  0.00    -0.170 OA
ATOM     27  C   UNL     1       3.841  -0.691  23.249  0.00  0.00    +0.200 C 
ENDBRANCH  23   1
ENDBRANCH  15  17
ENDBRANCH   6  15
ENDBRANCH  16  11
TORSDOF 8
ENDMDL
MODEL 9
REMARK VINA RESULT:       4.6     14.821     17.014
REMARK  Name = 45783404
REMARK  10 active torsions:
REMARK  status: ('A' for Active; 'I' for Inactive)
REMARK    1  A    between atoms: S_1  and  C_23
REMARK    2  A    between atoms: S_1  and  C_27
REMARK    3  A    between atoms: O_5  and  C_31
REMARK    4  A    between atoms: O_5  and  C_32
REMARK    5  A    between atoms: N_6  and  C_15
REMARK    6  A    between atoms: N_9  and  C_29
REMARK    7  A    between atoms: C_11  and  C_16
REMARK    8  A    between atoms: C_15  and  C_17
REMARK    9  A    between atoms: C_20  and  C_24
REMARK   10  A    between atoms: C_29  and  C_31
REMARK                            x       y       z     vdW  Elec       q    Type
REMARK                         _______ _______ _______ _____ _____    ______ ____
ROOT
ATOM      2  O   UNL     1      -4.664  -0.759  24.236  0.00  0.00    -0.336 OA
ATOM      7  N   UNL     1      -3.225   0.918  24.603  0.00  0.00    -0.190 NA
ATOM      8  N   UNL     1      -5.444   0.360  24.552  0.00  0.00    -0.056 NA
ATOM     16  C   UNL     1      -3.371  -0.345  24.290  0.00  0.00    +0.245 A 
ATOM     20  C   UNL     1      -4.524   1.309  24.754  0.00  0.00    +0.205 A 
ENDROOT
BRANCH  20  24
ATOM      9  N   UNL     1      -2.569   3.360  24.947  0.00  0.00    -0.326 N 
ATOM     10  N   UNL     1      -4.222   4.945  25.541  0.00  0.00    -0.240 NA
ATOM     24  C   UNL     1      -4.868   2.655  25.109  0.00  0.00    +0.062 A 
ATOM     25  C   UNL     1      -3.928   3.667  25.209  0.00  0.00    +0.130 A 
ATOM     26  C   UNL     1      -6.197   2.974  25.368  0.00  0.00    +0.016 A 
ATOM     28  C   UNL     1      -6.539   4.276  25.714  0.00  0.00    +0.020 A 
ATOM     30  C   UNL     1      -5.524   5.216  25.785  0.00  0.00    +0.113 A 
ATOM     33  H   UNL     1      -2.399   2.545  24.366  0.00  0.00    +0.148 HD
BRANCH   9  29
ATOM     29  C   UNL     1      -1.531   4.334  25.024  0.00  0.00    +0.131 C 
BRANCH  29  31
ATOM     31  C   UNL     1      -0.204   3.715  24.618  0.00  0.00    +0.178 C 
BRANCH  31   5
ATOM      5  O   UNL     1      -0.071   2.438  25.229  0.00  0.00    -0.381 OA
ATOM     32  C   UNL     1       0.196   2.552  26.620  0.00  0.00    +0.194 C 
ENDBRANCH  31   5
ENDBRANCH  29  31
ENDBRANCH   9  29
ENDBRANCH  20  24
BRANCH  16  11
ATOM      6  N   UNL     1      -0.945  -0.898  24.234  0.00  0.00    -0.287 NA
ATOM     11  C   UNL     1      -2.315  -1.387  23.982  0.00  0.00    +0.146 C 
ATOM     12  C   UNL     1      -2.449  -2.645  24.860  0.00  0.00    +0.030 C 
ATOM     13  C   UNL     1      -1.088  -2.817  25.518  0.00  0.00    +0.017 C 
ATOM     14  C   UNL     1      -0.148  -2.071  24.594  0.00  0.00    +0.085 C 
BRANCH   6  15
ATOM     15  C   UNL     1      -0.377  -0.173  23.104  0.00  0.00    +0.120 C 
BRANCH  15  17
ATOM     17  C   UNL     1       1.124  -0.094  23.186  0.00  0.00    -0.033 A 
ATOM     18  C   UNL     1       1.876  -1.256  23.355  0.00  0.00    +0.007 A 
ATOM     19  C   UNL     1       1.763   1.143  23.093  0.00  0.00    +0.007 A 
ATOM     21  C   UNL     1       3.267  -1.182  23.432  0.00  0.00    +0.027 A 
ATOM     22  C   UNL     1       3.154   1.217  23.169  0.00  0.00    +0.027 A 
ATOM     23  C   UNL     1       3.905   0.054  23.338  0.00  0.00    +0.088 A 
BRANCH  23   1
ATOM      1  S   UNL     1       5.647   0.146  23.431  0.00  0.00    -0.006 S 
ATOM      3  O   UNL     1       6.207  -0.190  22.128  0.00  0.00    -0.170 OA
ATOM      4  O   UNL     1       5.995   1.410  24.064  0.00  0.00    -0.170 OA
ATOM     27  C   UNL     1       6.100  -1.165  24.543  0.00  0.00    +0.200 C 
ENDBRANCH  23   1
ENDBRANCH  15  17
ENDBRANCH   6  15
ENDBRANCH  16  11
TORSDOF 8
ENDMDL
