MODEL 1
REMARK VINA RESULT:      -6.6      0.000      0.000
REMARK  Name = 56775555
REMARK  9 active torsions:
REMARK  status: ('A' for Active; 'I' for Inactive)
REMARK    1  A    between atoms: O_3  and  C_16
REMARK    2  A    between atoms: O_4  and  C_18
REMARK    3  A    between atoms: O_4  and  C_22
REMARK    4  A    between atoms: N_5  and  C_7
REMARK    5  A    between atoms: N_5  and  C_11
REMARK    6  A    between atoms: C_7  and  C_10
REMARK    7  A    between atoms: C_10  and  C_12
REMARK    8  A    between atoms: C_11  and  C_13
REMARK    9  A    between atoms: C_15  and  C_18
REMARK                            x       y       z     vdW  Elec       q    Type
REMARK                         _______ _______ _______ _____ _____    ______ ____
ROOT
ATOM      1  O   UNL     1      -3.420  -3.048  25.243  0.00  0.00    -0.376 OA
ATOM      7  C   UNL     1      -2.496  -1.148  24.935  0.00  0.00    +0.072 C 
ATOM      8  C   UNL     1      -3.702  -1.700  25.686  0.00  0.00    +0.184 C 
ATOM      9  C   UNL     1      -2.210  -2.605  24.588  0.00  0.00    +0.184 C 
ENDROOT
BRANCH   7   5
ATOM      5  N   UNL     1      -2.965  -0.459  23.730  0.00  0.00    -0.302 NA
ATOM     23  H   UNL     1      -2.388   0.322  23.424  0.00  0.00    +0.123 HD
BRANCH   5  11
ATOM     11  C   UNL     1      -4.344  -0.018  23.935  0.00  0.00    +0.120 C 
BRANCH  11  13
ATOM     13  C   UNL     1      -4.422   1.388  24.430  0.00  0.00    +0.008 A 
ATOM     16  C   UNL     1      -3.606   2.382  23.888  0.00  0.00    +0.121 A 
ATOM     17  C   UNL     1      -5.326   1.705  25.445  0.00  0.00    +0.008 A 
ATOM     19  C   UNL     1      -3.693   3.691  24.362  0.00  0.00    +0.046 A 
ATOM     20  C   UNL     1      -5.412   3.014  25.919  0.00  0.00    +0.001 A 
ATOM     21  C   UNL     1      -4.596   4.006  25.378  0.00  0.00    +0.004 A 
BRANCH  16   3
ATOM      3  O   UNL     1      -2.719   2.090  22.896  0.00  0.00    -0.506 OA
ATOM     24  H   UNL     1      -1.827   2.018  23.279  0.00  0.00    +0.292 HD
ENDBRANCH  16   3
ENDBRANCH  11  13
ENDBRANCH   5  11
ENDBRANCH   7   5
BRANCH   7  10
ATOM     10  C   UNL     1      -1.465  -0.366  25.691  0.00  0.00    +0.085 C 
BRANCH  10  12
ATOM      2  O   UNL     1       0.891   1.536  23.719  0.00  0.00    -0.357 OA
ATOM      6  N   UNL     1      -0.158   1.436  24.626  0.00  0.00    -0.083 NA
ATOM     12  C   UNL     1      -0.375   0.125  24.762  0.00  0.00    +0.086 A 
ATOM     14  C   UNL     1       0.498  -0.644  23.973  0.00  0.00    +0.073 A 
ATOM     15  C   UNL     1       1.273   0.290  23.338  0.00  0.00    +0.163 A 
BRANCH  15  18
ATOM     18  C   UNL     1       2.378   0.209  22.375  0.00  0.00    +0.236 C 
BRANCH  18   4
ATOM      4  O   UNL     1       3.435   1.093  22.758  0.00  0.00    -0.375 OA
ATOM     22  C   UNL     1       4.602   0.371  23.114  0.00  0.00    +0.194 C 
ENDBRANCH  18   4
ENDBRANCH  15  18
ENDBRANCH  10  12
ENDBRANCH   7  10
TORSDOF 8
ENDMDL
MODEL 2
REMARK VINA RESULT:      -6.5      1.868      2.704
REMARK  Name = 56775555
REMARK  9 active torsions:
REMARK  status: ('A' for Active; 'I' for Inactive)
REMARK    1  A    between atoms: O_3  and  C_16
REMARK    2  A    between atoms: O_4  and  C_18
REMARK    3  A    between atoms: O_4  and  C_22
REMARK    4  A    between atoms: N_5  and  C_7
REMARK    5  A    between atoms: N_5  and  C_11
REMARK    6  A    between atoms: C_7  and  C_10
REMARK    7  A    between atoms: C_10  and  C_12
REMARK    8  A    between atoms: C_11  and  C_13
REMARK    9  A    between atoms: C_15  and  C_18
REMARK                            x       y       z     vdW  Elec       q    Type
REMARK                         _______ _______ _______ _____ _____    ______ ____
ROOT
ATOM      1  O   UNL     1      -3.401  -3.419  24.882  0.00  0.00    -0.376 OA
ATOM      7  C   UNL     1      -2.325  -1.576  24.861  0.00  0.00    +0.072 C 
ATOM      8  C   UNL     1      -3.507  -2.176  25.613  0.00  0.00    +0.184 C 
ATOM      9  C   UNL     1      -2.216  -2.946  24.202  0.00  0.00    +0.184 C 
ENDROOT
BRANCH   7   5
ATOM      5  N   UNL     1      -2.828  -0.616  23.876  0.00  0.00    -0.302 NA
ATOM     23  H   UNL     1      -2.287   0.242  23.789  0.00  0.00    +0.123 HD
BRANCH   5  11
ATOM     11  C   UNL     1      -4.224  -0.303  24.182  0.00  0.00    +0.120 C 
BRANCH  11  13
ATOM     13  C   UNL     1      -4.424   1.141  24.505  0.00  0.00    +0.008 A 
ATOM     16  C   UNL     1      -3.753   2.132  23.788  0.00  0.00    +0.121 A 
ATOM     17  C   UNL     1      -5.295   1.495  25.535  0.00  0.00    +0.008 A 
ATOM     19  C   UNL     1      -3.952   3.476  24.103  0.00  0.00    +0.046 A 
ATOM     20  C   UNL     1      -5.494   2.839  25.850  0.00  0.00    +0.001 A 
ATOM     21  C   UNL     1      -4.822   3.829  25.135  0.00  0.00    +0.004 A 
BRANCH  16   3
ATOM      3  O   UNL     1      -2.899   1.804  22.779  0.00  0.00    -0.506 OA
ATOM     24  H   UNL     1      -2.834   2.553  22.161  0.00  0.00    +0.292 HD
ENDBRANCH  16   3
ENDBRANCH  11  13
ENDBRANCH   5  11
ENDBRANCH   7   5
BRANCH   7  10
ATOM     10  C   UNL     1      -1.157  -1.053  25.642  0.00  0.00    +0.085 C 
BRANCH  10  12
ATOM      2  O   UNL     1       0.129   1.750  23.760  0.00  0.00    -0.357 OA
ATOM      6  N   UNL     1      -0.130   0.396  23.927  0.00  0.00    -0.083 NA
ATOM     12  C   UNL     1      -0.724   0.301  25.120  0.00  0.00    +0.086 A 
ATOM     14  C   UNL     1      -0.866   1.552  25.745  0.00  0.00    +0.073 A 
ATOM     15  C   UNL     1      -0.314   2.429  24.849  0.00  0.00    +0.163 A 
BRANCH  15  18
ATOM     18  C   UNL     1      -0.120   3.884  24.839  0.00  0.00    +0.236 C 
BRANCH  18   4
ATOM      4  O   UNL     1      -1.164   4.529  25.571  0.00  0.00    -0.375 OA
ATOM     22  C   UNL     1      -1.517   5.767  24.977  0.00  0.00    +0.194 C 
ENDBRANCH  18   4
ENDBRANCH  15  18
ENDBRANCH  10  12
ENDBRANCH   7  10
TORSDOF 8
ENDMDL
MODEL 3
REMARK VINA RESULT:      -6.3      2.010      4.320
REMARK  Name = 56775555
REMARK  9 active torsions:
REMARK  status: ('A' for Active; 'I' for Inactive)
REMARK    1  A    between atoms: O_3  and  C_16
REMARK    2  A    between atoms: O_4  and  C_18
REMARK    3  A    between atoms: O_4  and  C_22
REMARK    4  A    between atoms: N_5  and  C_7
REMARK    5  A    between atoms: N_5  and  C_11
REMARK    6  A    between atoms: C_7  and  C_10
REMARK    7  A    between atoms: C_10  and  C_12
REMARK    8  A    between atoms: C_11  and  C_13
REMARK    9  A    between atoms: C_15  and  C_18
REMARK                            x       y       z     vdW  Elec       q    Type
REMARK                         _______ _______ _______ _____ _____    ______ ____
ROOT
ATOM      1  O   UNL     1      -5.653   3.811  25.378  0.00  0.00    -0.376 OA
ATOM      7  C   UNL     1      -3.570   3.341  25.346  0.00  0.00    +0.072 C 
ATOM      8  C   UNL     1      -4.700   3.498  24.335  0.00  0.00    +0.184 C 
ATOM      9  C   UNL     1      -4.609   3.772  26.377  0.00  0.00    +0.184 C 
ENDROOT
BRANCH   7   5
ATOM      5  N   UNL     1      -3.291   1.915  25.526  0.00  0.00    -0.302 NA
ATOM     23  H   UNL     1      -2.403   1.699  25.975  0.00  0.00    +0.123 HD
BRANCH   5  11
ATOM     11  C   UNL     1      -3.376   1.242  24.229  0.00  0.00    +0.120 C 
BRANCH  11  13
ATOM     13  C   UNL     1      -3.333  -0.244  24.357  0.00  0.00    +0.008 A 
ATOM     16  C   UNL     1      -2.297  -0.871  25.051  0.00  0.00    +0.121 A 
ATOM     17  C   UNL     1      -4.344  -1.008  23.775  0.00  0.00    +0.008 A 
ATOM     19  C   UNL     1      -2.273  -2.262  25.161  0.00  0.00    +0.046 A 
ATOM     20  C   UNL     1      -4.319  -2.399  23.885  0.00  0.00    +0.001 A 
ATOM     21  C   UNL     1      -3.284  -3.025  24.577  0.00  0.00    +0.004 A 
BRANCH  16   3
ATOM      3  O   UNL     1      -1.301  -0.140  25.626  0.00  0.00    -0.506 OA
ATOM     24  H   UNL     1      -1.030   0.565  25.013  0.00  0.00    +0.292 HD
ENDBRANCH  16   3
ENDBRANCH  11  13
ENDBRANCH   5  11
ENDBRANCH   7   5
BRANCH   7  10
ATOM     10  C   UNL     1      -2.328   4.164  25.182  0.00  0.00    +0.085 C 
BRANCH  10  12
ATOM      2  O   UNL     1       0.561   2.041  25.627  0.00  0.00    -0.357 OA
ATOM      6  N   UNL     1      -0.492   2.805  26.116  0.00  0.00    -0.083 NA
ATOM     12  C   UNL     1      -1.111   3.276  25.030  0.00  0.00    +0.086 A 
ATOM     14  C   UNL     1      -0.500   2.846  23.840  0.00  0.00    +0.073 A 
ATOM     15  C   UNL     1       0.545   2.073  24.271  0.00  0.00    +0.163 A 
BRANCH  15  18
ATOM     18  C   UNL     1       1.597   1.312  23.585  0.00  0.00    +0.236 C 
BRANCH  18   4
ATOM      4  O   UNL     1       1.087   0.054  23.136  0.00  0.00    -0.375 OA
ATOM     22  C   UNL     1       1.684  -0.333  21.910  0.00  0.00    +0.194 C 
ENDBRANCH  18   4
ENDBRANCH  15  18
ENDBRANCH  10  12
ENDBRANCH   7  10
TORSDOF 8
ENDMDL
MODEL 4
REMARK VINA RESULT:      -6.2      2.314      4.655
REMARK  Name = 56775555
REMARK  9 active torsions:
REMARK  status: ('A' for Active; 'I' for Inactive)
REMARK    1  A    between atoms: O_3  and  C_16
REMARK    2  A    between atoms: O_4  and  C_18
REMARK    3  A    between atoms: O_4  and  C_22
REMARK    4  A    between atoms: N_5  and  C_7
REMARK    5  A    between atoms: N_5  and  C_11
REMARK    6  A    between atoms: C_7  and  C_10
REMARK    7  A    between atoms: C_10  and  C_12
REMARK    8  A    between atoms: C_11  and  C_13
REMARK    9  A    between atoms: C_15  and  C_18
REMARK                            x       y       z     vdW  Elec       q    Type
REMARK                         _______ _______ _______ _____ _____    ______ ____
ROOT
ATOM      1  O   UNL     1      -0.614   5.444  24.731  0.00  0.00    -0.376 OA
ATOM      7  C   UNL     1      -1.023   3.357  24.908  0.00  0.00    +0.072 C 
ATOM      8  C   UNL     1       0.068   4.239  24.313  0.00  0.00    +0.184 C 
ATOM      9  C   UNL     1      -1.632   4.666  25.399  0.00  0.00    +0.184 C 
ENDROOT
BRANCH   7   5
ATOM      5  N   UNL     1      -1.850   2.829  23.821  0.00  0.00    -0.302 NA
ATOM     23  H   UNL     1      -1.435   2.884  22.893  0.00  0.00    +0.123 HD
BRANCH   5  11
ATOM     11  C   UNL     1      -3.147   3.507  23.832  0.00  0.00    +0.120 C 
BRANCH  11  13
ATOM     13  C   UNL     1      -4.189   2.725  24.561  0.00  0.00    +0.008 A 
ATOM     16  C   UNL     1      -4.384   1.370  24.291  0.00  0.00    +0.121 A 
ATOM     17  C   UNL     1      -4.971   3.362  25.524  0.00  0.00    +0.008 A 
ATOM     19  C   UNL     1      -5.361   0.654  24.982  0.00  0.00    +0.046 A 
ATOM     20  C   UNL     1      -5.950   2.647  26.215  0.00  0.00    +0.001 A 
ATOM     21  C   UNL     1      -6.145   1.293  25.944  0.00  0.00    +0.004 A 
BRANCH  16   3
ATOM      3  O   UNL     1      -3.628   0.731  23.354  0.00  0.00    -0.506 OA
ATOM     24  H   UNL     1      -2.703   1.020  23.441  0.00  0.00    +0.292 HD
ENDBRANCH  16   3
ENDBRANCH  11  13
ENDBRANCH   5  11
ENDBRANCH   7   5
BRANCH   7  10
ATOM     10  C   UNL     1      -0.645   2.312  25.914  0.00  0.00    +0.085 C 
BRANCH  10  12
ATOM      2  O   UNL     1      -0.370  -0.714  23.960  0.00  0.00    -0.357 OA
ATOM      6  N   UNL     1      -0.037   0.605  24.238  0.00  0.00    -0.083 NA
ATOM     12  C   UNL     1      -0.756   0.925  25.317  0.00  0.00    +0.086 A 
ATOM     14  C   UNL     1      -1.555  -0.143  25.760  0.00  0.00    +0.073 A 
ATOM     15  C   UNL     1      -1.275  -1.149  24.873  0.00  0.00    +0.163 A 
BRANCH  15  18
ATOM     18  C   UNL     1      -1.740  -2.534  24.728  0.00  0.00    +0.236 C 
BRANCH  18   4
ATOM      4  O   UNL     1      -3.114  -2.638  25.110  0.00  0.00    -0.375 OA
ATOM     22  C   UNL     1      -3.965  -2.596  23.977  0.00  0.00    +0.194 C 
ENDBRANCH  18   4
ENDBRANCH  15  18
ENDBRANCH  10  12
ENDBRANCH   7  10
TORSDOF 8
ENDMDL
MODEL 5
REMARK VINA RESULT:      -6.1      1.809      4.077
REMARK  Name = 56775555
REMARK  9 active torsions:
REMARK  status: ('A' for Active; 'I' for Inactive)
REMARK    1  A    between atoms: O_3  and  C_16
REMARK    2  A    between atoms: O_4  and  C_18
REMARK    3  A    between atoms: O_4  and  C_22
REMARK    4  A    between atoms: N_5  and  C_7
REMARK    5  A    between atoms: N_5  and  C_11
REMARK    6  A    between atoms: C_7  and  C_10
REMARK    7  A    between atoms: C_10  and  C_12
REMARK    8  A    between atoms: C_11  and  C_13
REMARK    9  A    between atoms: C_15  and  C_18
REMARK                            x       y       z     vdW  Elec       q    Type
REMARK                         _______ _______ _______ _____ _____    ______ ____
ROOT
ATOM      1  O   UNL     1      -2.002   4.839  25.058  0.00  0.00    -0.376 OA
ATOM      7  C   UNL     1      -1.594   2.744  25.051  0.00  0.00    +0.072 C 
ATOM      8  C   UNL     1      -1.198   3.966  24.231  0.00  0.00    +0.184 C 
ATOM      9  C   UNL     1      -2.340   3.739  25.933  0.00  0.00    +0.184 C 
ENDROOT
BRANCH   7   5
ATOM      5  N   UNL     1      -2.571   1.961  24.291  0.00  0.00    -0.302 NA
ATOM     23  H   UNL     1      -3.126   2.490  23.621  0.00  0.00    +0.123 HD
BRANCH   5  11
ATOM     11  C   UNL     1      -3.448   1.253  25.224  0.00  0.00    +0.120 C 
BRANCH  11  13
ATOM     13  C   UNL     1      -3.540  -0.206  24.922  0.00  0.00    +0.008 A 
ATOM     16  C   UNL     1      -2.792  -1.133  25.648  0.00  0.00    +0.121 A 
ATOM     17  C   UNL     1      -4.387  -0.639  23.902  0.00  0.00    +0.008 A 
ATOM     19  C   UNL     1      -2.890  -2.493  25.353  0.00  0.00    +0.046 A 
ATOM     20  C   UNL     1      -4.484  -1.999  23.606  0.00  0.00    +0.001 A 
ATOM     21  C   UNL     1      -3.736  -2.925  24.331  0.00  0.00    +0.004 A 
BRANCH  16   3
ATOM      3  O   UNL     1      -1.960  -0.727  26.648  0.00  0.00    -0.506 OA
ATOM     24  H   UNL     1      -2.422  -0.813  27.500  0.00  0.00    +0.292 HD
ENDBRANCH  16   3
ENDBRANCH  11  13
ENDBRANCH   5  11
ENDBRANCH   7   5
BRANCH   7  10
ATOM     10  C   UNL     1      -0.517   1.899  25.662  0.00  0.00    +0.085 C 
BRANCH  10  12
ATOM      2  O   UNL     1       0.620  -0.520  23.232  0.00  0.00    -0.357 OA
ATOM      6  N   UNL     1      -0.274  -0.072  24.196  0.00  0.00    -0.083 NA
ATOM     12  C   UNL     1       0.213   1.105  24.599  0.00  0.00    +0.086 A 
ATOM     14  C   UNL     1       1.401   1.447  23.931  0.00  0.00    +0.073 A 
ATOM     15  C   UNL     1       1.613   0.393  23.083  0.00  0.00    +0.163 A 
BRANCH  15  18
ATOM     18  C   UNL     1       2.653   0.076  22.096  0.00  0.00    +0.236 C 
BRANCH  18   4
ATOM      4  O   UNL     1       3.800   0.903  22.301  0.00  0.00    -0.375 OA
ATOM     22  C   UNL     1       4.755   0.259  23.128  0.00  0.00    +0.194 C 
ENDBRANCH  18   4
ENDBRANCH  15  18
ENDBRANCH  10  12
ENDBRANCH   7  10
TORSDOF 8
ENDMDL
MODEL 6
REMARK VINA RESULT:      -6.0      1.464      2.095
REMARK  Name = 56775555
REMARK  9 active torsions:
REMARK  status: ('A' for Active; 'I' for Inactive)
REMARK    1  A    between atoms: O_3  and  C_16
REMARK    2  A    between atoms: O_4  and  C_18
REMARK    3  A    between atoms: O_4  and  C_22
REMARK    4  A    between atoms: N_5  and  C_7
REMARK    5  A    between atoms: N_5  and  C_11
REMARK    6  A    between atoms: C_7  and  C_10
REMARK    7  A    between atoms: C_10  and  C_12
REMARK    8  A    between atoms: C_11  and  C_13
REMARK    9  A    between atoms: C_15  and  C_18
REMARK                            x       y       z     vdW  Elec       q    Type
REMARK                         _______ _______ _______ _____ _____    ______ ____
ROOT
ATOM      1  O   UNL     1      -1.365  -2.505  25.286  0.00  0.00    -0.376 OA
ATOM      7  C   UNL     1      -1.162  -0.554  24.444  0.00  0.00    +0.072 C 
ATOM      8  C   UNL     1      -0.277  -1.560  25.171  0.00  0.00    +0.184 C 
ATOM      9  C   UNL     1      -2.231  -1.639  24.519  0.00  0.00    +0.184 C 
ENDROOT
BRANCH   7   5
ATOM      5  N   UNL     1      -1.516   0.522  25.373  0.00  0.00    -0.302 NA
ATOM     23  H   UNL     1      -2.228   0.286  26.061  0.00  0.00    +0.123 HD
BRANCH   5  11
ATOM     11  C   UNL     1      -1.924   1.701  24.608  0.00  0.00    +0.120 C 
BRANCH  11  13
ATOM     13  C   UNL     1      -3.309   2.143  24.945  0.00  0.00    +0.008 A 
ATOM     16  C   UNL     1      -3.548   3.428  25.433  0.00  0.00    +0.121 A 
ATOM     17  C   UNL     1      -4.372   1.258  24.765  0.00  0.00    +0.008 A 
ATOM     19  C   UNL     1      -4.850   3.826  25.742  0.00  0.00    +0.046 A 
ATOM     20  C   UNL     1      -5.672   1.655  25.075  0.00  0.00    +0.001 A 
ATOM     21  C   UNL     1      -5.911   2.939  25.564  0.00  0.00    +0.004 A 
BRANCH  16   3
ATOM      3  O   UNL     1      -2.523   4.307  25.614  0.00  0.00    -0.506 OA
ATOM     24  H   UNL     1      -1.786   3.849  26.054  0.00  0.00    +0.292 HD
ENDBRANCH  16   3
ENDBRANCH  11  13
ENDBRANCH   5  11
ENDBRANCH   7   5
BRANCH   7  10
ATOM     10  C   UNL     1      -0.735  -0.049  23.099  0.00  0.00    +0.085 C 
BRANCH  10  12
ATOM      2  O   UNL     1       2.459   1.548  23.646  0.00  0.00    -0.357 OA
ATOM      6  N   UNL     1       1.089   1.438  23.845  0.00  0.00    -0.083 NA
ATOM     12  C   UNL     1       0.717   0.379  23.121  0.00  0.00    +0.086 A 
ATOM     14  C   UNL     1       1.800  -0.215  22.450  0.00  0.00    +0.073 A 
ATOM     15  C   UNL     1       2.871   0.558  22.814  0.00  0.00    +0.163 A 
BRANCH  15  18
ATOM     18  C   UNL     1       4.304   0.525  22.494  0.00  0.00    +0.236 C 
BRANCH  18   4
ATOM      4  O   UNL     1       5.081   0.716  23.679  0.00  0.00    -0.375 OA
ATOM     22  C   UNL     1       5.468  -0.526  24.243  0.00  0.00    +0.194 C 
ENDBRANCH  18   4
ENDBRANCH  15  18
ENDBRANCH  10  12
ENDBRANCH   7  10
TORSDOF 8
ENDMDL
MODEL 7
REMARK VINA RESULT:      -5.6      1.984      3.008
REMARK  Name = 56775555
REMARK  9 active torsions:
REMARK  status: ('A' for Active; 'I' for Inactive)
REMARK    1  A    between atoms: O_3  and  C_16
REMARK    2  A    between atoms: O_4  and  C_18
REMARK    3  A    between atoms: O_4  and  C_22
REMARK    4  A    between atoms: N_5  and  C_7
REMARK    5  A    between atoms: N_5  and  C_11
REMARK    6  A    between atoms: C_7  and  C_10
REMARK    7  A    between atoms: C_10  and  C_12
REMARK    8  A    between atoms: C_11  and  C_13
REMARK    9  A    between atoms: C_15  and  C_18
REMARK                            x       y       z     vdW  Elec       q    Type
REMARK                         _______ _______ _______ _____ _____    ______ ____
ROOT
ATOM      1  O   UNL     1      -3.960  -3.325  25.063  0.00  0.00    -0.376 OA
ATOM      7  C   UNL     1      -2.598  -1.778  24.504  0.00  0.00    +0.072 C 
ATOM      8  C   UNL     1      -3.378  -2.191  25.747  0.00  0.00    +0.184 C 
ATOM      9  C   UNL     1      -3.176  -3.044  23.881  0.00  0.00    +0.184 C 
ENDROOT
BRANCH   7   5
ATOM      5  N   UNL     1      -3.252  -0.614  23.901  0.00  0.00    -0.302 NA
ATOM     23  H   UNL     1      -2.626   0.133  23.608  0.00  0.00    +0.123 HD
BRANCH   5  11
ATOM     11  C   UNL     1      -4.258  -0.095  24.828  0.00  0.00    +0.120 C 
BRANCH  11  13
ATOM     13  C   UNL     1      -4.406   1.387  24.731  0.00  0.00    +0.008 A 
ATOM     16  C   UNL     1      -5.337   2.064  25.521  0.00  0.00    +0.121 A 
ATOM     17  C   UNL     1      -3.601   2.097  23.841  0.00  0.00    +0.008 A 
ATOM     19  C   UNL     1      -5.462   3.450  25.418  0.00  0.00    +0.046 A 
ATOM     20  C   UNL     1      -3.726   3.483  23.738  0.00  0.00    +0.001 A 
ATOM     21  C   UNL     1      -4.657   4.159  24.526  0.00  0.00    +0.004 A 
BRANCH  16   3
ATOM      3  O   UNL     1      -6.131   1.387  26.396  0.00  0.00    -0.506 OA
ATOM     24  H   UNL     1      -6.023   1.768  27.284  0.00  0.00    +0.292 HD
ENDBRANCH  16   3
ENDBRANCH  11  13
ENDBRANCH   5  11
ENDBRANCH   7   5
BRANCH   7  10
ATOM     10  C   UNL     1      -1.110  -1.629  24.596  0.00  0.00    +0.085 C 
BRANCH  10  12
ATOM      2  O   UNL     1       0.006   1.756  24.005  0.00  0.00    -0.357 OA
ATOM      6  N   UNL     1      -0.246   0.453  23.592  0.00  0.00    -0.083 NA
ATOM     12  C   UNL     1      -0.719  -0.169  24.675  0.00  0.00    +0.086 A 
ATOM     14  C   UNL     1      -0.787   0.683  25.791  0.00  0.00    +0.073 A 
ATOM     15  C   UNL     1      -0.320   1.880  25.316  0.00  0.00    +0.163 A 
BRANCH  15  18
ATOM     18  C   UNL     1      -0.115   3.203  25.920  0.00  0.00    +0.236 C 
BRANCH  18   4
ATOM      4  O   UNL     1      -1.269   4.023  25.721  0.00  0.00    -0.375 OA
ATOM     22  C   UNL     1      -0.953   5.174  24.955  0.00  0.00    +0.194 C 
ENDBRANCH  18   4
ENDBRANCH  15  18
ENDBRANCH  10  12
ENDBRANCH   7  10
TORSDOF 8
ENDMDL
MODEL 8
REMARK VINA RESULT:      -5.6      1.899      5.829
REMARK  Name = 56775555
REMARK  9 active torsions:
REMARK  status: ('A' for Active; 'I' for Inactive)
REMARK    1  A    between atoms: O_3  and  C_16
REMARK    2  A    between atoms: O_4  and  C_18
REMARK    3  A    between atoms: O_4  and  C_22
REMARK    4  A    between atoms: N_5  and  C_7
REMARK    5  A    between atoms: N_5  and  C_11
REMARK    6  A    between atoms: C_7  and  C_10
REMARK    7  A    between atoms: C_10  and  C_12
REMARK    8  A    between atoms: C_11  and  C_13
REMARK    9  A    between atoms: C_15  and  C_18
REMARK                            x       y       z     vdW  Elec       q    Type
REMARK                         _______ _______ _______ _____ _____    ______ ____
ROOT
ATOM      1  O   UNL     1       0.888   0.378  22.700  0.00  0.00    -0.376 OA
ATOM      7  C   UNL     1       0.074   1.539  24.296  0.00  0.00    +0.072 C 
ATOM      8  C   UNL     1       1.455   1.193  23.752  0.00  0.00    +0.184 C 
ATOM      9  C   UNL     1      -0.451   0.744  23.106  0.00  0.00    +0.184 C 
ENDROOT
BRANCH   7   5
ATOM      5  N   UNL     1      -0.159   0.768  25.519  0.00  0.00    -0.302 NA
ATOM     23  H   UNL     1       0.215  -0.179  25.514  0.00  0.00    +0.123 HD
BRANCH   5  11
ATOM     11  C   UNL     1      -1.594   0.741  25.803  0.00  0.00    +0.120 C 
BRANCH  11  13
ATOM     13  C   UNL     1      -2.264  -0.461  25.225  0.00  0.00    +0.008 A 
ATOM     16  C   UNL     1      -1.595  -1.683  25.146  0.00  0.00    +0.121 A 
ATOM     17  C   UNL     1      -3.575  -0.353  24.760  0.00  0.00    +0.008 A 
ATOM     19  C   UNL     1      -2.238  -2.796  24.603  0.00  0.00    +0.046 A 
ATOM     20  C   UNL     1      -4.217  -1.466  24.216  0.00  0.00    +0.001 A 
ATOM     21  C   UNL     1      -3.548  -2.686  24.137  0.00  0.00    +0.004 A 
BRANCH  16   3
ATOM      3  O   UNL     1      -0.315  -1.806  25.596  0.00  0.00    -0.506 OA
ATOM     24  H   UNL     1       0.077  -2.612  25.218  0.00  0.00    +0.292 HD
ENDBRANCH  16   3
ENDBRANCH  11  13
ENDBRANCH   5  11
ENDBRANCH   7   5
BRANCH   7  10
ATOM     10  C   UNL     1      -0.313   2.981  24.432  0.00  0.00    +0.085 C 
BRANCH  10  12
ATOM      2  O   UNL     1      -3.839   3.061  23.650  0.00  0.00    -0.357 OA
ATOM      6  N   UNL     1      -2.514   2.800  23.328  0.00  0.00    -0.083 NA
ATOM     12  C   UNL     1      -1.819   3.137  24.418  0.00  0.00    +0.086 A 
ATOM     14  C   UNL     1      -2.646   3.612  25.450  0.00  0.00    +0.073 A 
ATOM     15  C   UNL     1      -3.906   3.545  24.916  0.00  0.00    +0.163 A 
BRANCH  15  18
ATOM     18  C   UNL     1      -5.243   3.877  25.422  0.00  0.00    +0.236 C 
BRANCH  18   4
ATOM      4  O   UNL     1      -5.680   2.886  26.356  0.00  0.00    -0.375 OA
ATOM     22  C   UNL     1      -6.180   1.739  25.690  0.00  0.00    +0.194 C 
ENDBRANCH  18   4
ENDBRANCH  15  18
ENDBRANCH  10  12
ENDBRANCH   7  10
TORSDOF 8
ENDMDL
MODEL 9
REMARK VINA RESULT:      -5.2      1.793      4.401
REMARK  Name = 56775555
REMARK  9 active torsions:
REMARK  status: ('A' for Active; 'I' for Inactive)
REMARK    1  A    between atoms: O_3  and  C_16
REMARK    2  A    between atoms: O_4  and  C_18
REMARK    3  A    between atoms: O_4  and  C_22
REMARK    4  A    between atoms: N_5  and  C_7
REMARK    5  A    between atoms: N_5  and  C_11
REMARK    6  A    between atoms: C_7  and  C_10
REMARK    7  A    between atoms: C_10  and  C_12
REMARK    8  A    between atoms: C_11  and  C_13
REMARK    9  A    between atoms: C_15  and  C_18
REMARK                            x       y       z     vdW  Elec       q    Type
REMARK                         _______ _______ _______ _____ _____    ______ ____
ROOT
ATOM      1  O   UNL     1      -6.496   2.832  25.722  0.00  0.00    -0.376 OA
ATOM      7  C   UNL     1      -4.538   2.541  24.921  0.00  0.00    +0.072 C 
ATOM      8  C   UNL     1      -5.941   1.994  24.682  0.00  0.00    +0.184 C 
ATOM      9  C   UNL     1      -5.212   3.461  25.934  0.00  0.00    +0.184 C 
ENDROOT
BRANCH   7   5
ATOM      5  N   UNL     1      -3.756   1.535  25.643  0.00  0.00    -0.302 NA
ATOM     23  H   UNL     1      -2.748   1.588  25.506  0.00  0.00    +0.123 HD
BRANCH   5  11
ATOM     11  C   UNL     1      -4.244   0.202  25.288  0.00  0.00    +0.120 C 
BRANCH  11  13
ATOM     13  C   UNL     1      -3.134  -0.780  25.114  0.00  0.00    +0.008 A 
ATOM     16  C   UNL     1      -3.314  -1.931  24.346  0.00  0.00    +0.121 A 
ATOM     17  C   UNL     1      -1.905  -0.538  25.727  0.00  0.00    +0.008 A 
ATOM     19  C   UNL     1      -2.265  -2.839  24.192  0.00  0.00    +0.046 A 
ATOM     20  C   UNL     1      -0.857  -1.445  25.574  0.00  0.00    +0.001 A 
ATOM     21  C   UNL     1      -1.037  -2.596  24.808  0.00  0.00    +0.004 A 
BRANCH  16   3
ATOM      3  O   UNL     1      -4.507  -2.184  23.739  0.00  0.00    -0.506 OA
ATOM     24  H   UNL     1      -4.958  -1.341  23.561  0.00  0.00    +0.292 HD
ENDBRANCH  16   3
ENDBRANCH  11  13
ENDBRANCH   5  11
ENDBRANCH   7   5
BRANCH   7  10
ATOM     10  C   UNL     1      -3.790   3.151  23.774  0.00  0.00    +0.085 C 
BRANCH  10  12
ATOM      2  O   UNL     1      -1.040   1.054  22.729  0.00  0.00    -0.357 OA
ATOM      6  N   UNL     1      -2.366   1.464  22.670  0.00  0.00    -0.083 NA
ATOM     12  C   UNL     1      -2.464   2.451  23.565  0.00  0.00    +0.086 A 
ATOM     14  C   UNL     1      -1.243   2.705  24.213  0.00  0.00    +0.073 A 
ATOM     15  C   UNL     1      -0.381   1.800  23.652  0.00  0.00    +0.163 A 
BRANCH  15  18
ATOM     18  C   UNL     1       1.042   1.497  23.845  0.00  0.00    +0.236 C 
BRANCH  18   4
ATOM      4  O   UNL     1       1.395   0.303  23.142  0.00  0.00    -0.375 OA
ATOM     22  C   UNL     1       2.741   0.348  22.699  0.00  0.00    +0.194 C 
ENDBRANCH  18   4
ENDBRANCH  15  18
ENDBRANCH  10  12
ENDBRANCH   7  10
TORSDOF 8
ENDMDL
MODEL 10
REMARK VINA RESULT:      -5.2      2.382      6.041
REMARK  Name = 56775555
REMARK  9 active torsions:
REMARK  status: ('A' for Active; 'I' for Inactive)
REMARK    1  A    between atoms: O_3  and  C_16
REMARK    2  A    between atoms: O_4  and  C_18
REMARK    3  A    between atoms: O_4  and  C_22
REMARK    4  A    between atoms: N_5  and  C_7
REMARK    5  A    between atoms: N_5  and  C_11
REMARK    6  A    between atoms: C_7  and  C_10
REMARK    7  A    between atoms: C_10  and  C_12
REMARK    8  A    between atoms: C_11  and  C_13
REMARK    9  A    between atoms: C_15  and  C_18
REMARK                            x       y       z     vdW  Elec       q    Type
REMARK                         _______ _______ _______ _____ _____    ______ ____
ROOT
ATOM      1  O   UNL     1      -1.540   5.650  25.449  0.00  0.00    -0.376 OA
ATOM      7  C   UNL     1      -2.209   3.698  24.898  0.00  0.00    +0.072 C 
ATOM      8  C   UNL     1      -2.768   4.909  25.636  0.00  0.00    +0.184 C 
ATOM      9  C   UNL     1      -0.984   4.575  24.658  0.00  0.00    +0.184 C 
ENDROOT
BRANCH   7   5
ATOM      5  N   UNL     1      -1.865   2.665  25.879  0.00  0.00    -0.302 NA
ATOM     23  H   UNL     1      -2.152   2.861  26.836  0.00  0.00    +0.123 HD
BRANCH   5  11
ATOM     11  C   UNL     1      -0.424   2.415  25.826  0.00  0.00    +0.120 C 
BRANCH  11  13
ATOM     13  C   UNL     1      -0.079   1.277  24.924  0.00  0.00    +0.008 A 
ATOM     16  C   UNL     1      -0.542  -0.012  25.193  0.00  0.00    +0.121 A 
ATOM     17  C   UNL     1       0.715   1.512  23.802  0.00  0.00    +0.008 A 
ATOM     19  C   UNL     1      -0.211  -1.064  24.339  0.00  0.00    +0.046 A 
ATOM     20  C   UNL     1       1.047   0.459  22.948  0.00  0.00    +0.001 A 
ATOM     21  C   UNL     1       0.585  -0.828  23.217  0.00  0.00    +0.004 A 
BRANCH  16   3
ATOM      3  O   UNL     1      -1.319  -0.260  26.284  0.00  0.00    -0.506 OA
ATOM     24  H   UNL     1      -1.548  -1.205  26.303  0.00  0.00    +0.292 HD
ENDBRANCH  16   3
ENDBRANCH  11  13
ENDBRANCH   5  11
ENDBRANCH   7   5
BRANCH   7  10
ATOM     10  C   UNL     1      -2.956   3.157  23.718  0.00  0.00    +0.085 C 
BRANCH  10  12
ATOM      2  O   UNL     1      -4.760   0.337  25.077  0.00  0.00    -0.357 OA
ATOM      6  N   UNL     1      -4.398   1.678  25.070  0.00  0.00    -0.083 NA
ATOM     12  C   UNL     1      -3.561   1.806  24.037  0.00  0.00    +0.086 A 
ATOM     14  C   UNL     1      -3.358   0.590  23.362  0.00  0.00    +0.073 A 
ATOM     15  C   UNL     1      -4.134  -0.301  24.055  0.00  0.00    +0.163 A 
BRANCH  15  18
ATOM     18  C   UNL     1      -4.406  -1.737  23.914  0.00  0.00    +0.236 C 
BRANCH  18   4
ATOM      4  O   UNL     1      -3.225  -2.494  24.189  0.00  0.00    -0.375 OA
ATOM     22  C   UNL     1      -3.190  -2.917  25.542  0.00  0.00    +0.194 C 
ENDBRANCH  18   4
ENDBRANCH  15  18
ENDBRANCH  10  12
ENDBRANCH   7  10
TORSDOF 8
ENDMDL
