MODEL 1
REMARK VINA RESULT:       3.4      0.000      0.000
REMARK  Name = 45361450
REMARK  11 active torsions:
REMARK  status: ('A' for Active; 'I' for Inactive)
REMARK    1  A    between atoms: O_1  and  C_9
REMARK    2  A    between atoms: N_4  and  C_13
REMARK    3  A    between atoms: N_5  and  C_28
REMARK    4  A    between atoms: N_5  and  C_29
REMARK    5  A    between atoms: C_6  and  C_16
REMARK    6  A    between atoms: C_8  and  C_18
REMARK    7  A    between atoms: C_12  and  C_17
REMARK    8  A    between atoms: C_17  and  C_19
REMARK    9  A    between atoms: C_17  and  C_20
REMARK   10  A    between atoms: C_21  and  C_22
REMARK   11  A    between atoms: C_28  and  C_30
REMARK                            x       y       z     vdW  Elec       q    Type
REMARK                         _______ _______ _______ _____ _____    ______ ____
ROOT
ATOM      6  C   UNL     1      -2.045  -1.168  25.227  0.00  0.00    -0.027 C 
ATOM      7  C   UNL     1      -2.266  -0.012  24.195  0.00  0.00    +0.028 C 
ATOM      8  C   UNL     1      -0.902   0.440  23.561  0.00  0.00    +0.012 C 
ATOM      9  C   UNL     1      -3.131   1.130  24.804  0.00  0.00    +0.122 C 
ATOM     10  C   UNL     1      -3.415  -1.664  25.747  0.00  0.00    +0.007 C 
ATOM     11  C   UNL     1      -1.354  -2.354  24.515  0.00  0.00    +0.009 C 
ATOM     12  C   UNL     1      -4.453   0.612  25.416  0.00  0.00    +0.029 C 
ATOM     13  C   UNL     1      -0.181  -0.775  22.913  0.00  0.00    +0.076 C 
ATOM     14  C   UNL     1      -4.248  -0.556  26.379  0.00  0.00    +0.007 C 
ATOM     15  C   UNL     1      -0.036  -1.969  23.857  0.00  0.00    +0.023 C 
ATOM     16  C   UNL     1      -1.183  -0.727  26.437  0.00  0.00    +0.011 C 
ATOM     18  C   UNL     1      -1.049   1.557  22.513  0.00  0.00    +0.010 C 
ENDROOT
BRANCH  13   4
ATOM      3  O   UNL     1       1.728   1.040  24.134  0.00  0.00    -0.276 OA
ATOM      4  N   UNL     1       1.134  -0.419  22.421  0.00  0.00    -0.312 N 
ATOM     21  C   UNL     1       1.973   0.461  23.080  0.00  0.00    +0.216 C 
ATOM     36  H   UNL     1       1.419  -0.802  21.524  0.00  0.00    +0.149 HD
BRANCH  21  22
ATOM     22  C   UNL     1       3.283   0.635  22.366  0.00  0.00    +0.075 C 
ATOM     23  C   UNL     1       4.207   1.579  23.136  0.00  0.00    +0.013 C 
ATOM     24  C   UNL     1       3.921  -0.730  22.098  0.00  0.00    +0.013 C 
ATOM     25  C   UNL     1       4.852   0.933  24.362  0.00  0.00    +0.001 C 
ATOM     26  C   UNL     1       4.551  -1.351  23.343  0.00  0.00    +0.001 C 
ATOM     27  C   UNL     1       5.524  -0.391  24.019  0.00  0.00    +0.000 C 
ENDBRANCH  21  22
ENDBRANCH  13   4
BRANCH   9   1
ATOM      1  O   UNL     1      -3.490   2.055  23.776  0.00  0.00    -0.391 OA
ATOM     37  H   UNL     1      -2.675   2.461  23.437  0.00  0.00    +0.210 HD
ENDBRANCH   9   1
BRANCH  12  17
ATOM     17  C   UNL     1      -5.228   1.730  26.125  0.00  0.00    +0.078 C 
ATOM     19  C   UNL     1      -6.540   1.170  26.676  0.00  0.00    +0.017 C 
BRANCH  17  20
ATOM      2  O   UNL     1      -6.294   2.724  24.225  0.00  0.00    -0.275 OA
ATOM      5  N   UNL     1      -4.774   4.069  25.337  0.00  0.00    -0.300 N 
ATOM     20  C   UNL     1      -5.487   2.880  25.149  0.00  0.00    +0.219 C 
ATOM     29  C   UNL     1      -4.982   5.177  24.410  0.00  0.00    +0.132 C 
BRANCH   5  28
ATOM     28  C   UNL     1      -3.833   4.348  26.419  0.00  0.00    +0.142 C 
BRANCH  28  30
ATOM     30  C   UNL     1      -2.408   4.138  25.994  0.00  0.00    -0.030 A 
ATOM     31  C   UNL     1      -1.822   5.003  25.069  0.00  0.00    +0.005 A 
ATOM     32  C   UNL     1      -1.671   3.080  26.523  0.00  0.00    +0.005 A 
ATOM     33  C   UNL     1      -0.498   4.809  24.674  0.00  0.00    +0.000 A 
ATOM     34  C   UNL     1      -0.347   2.885  26.128  0.00  0.00    +0.000 A 
ATOM     35  C   UNL     1       0.239   3.750  25.203  0.00  0.00    +0.000 A 
ENDBRANCH  28  30
ENDBRANCH   5  28
ENDBRANCH  17  20
ENDBRANCH  12  17
TORSDOF 7
ENDMDL
MODEL 2
REMARK VINA RESULT:       6.6      0.998      1.303
REMARK  Name = 45361450
REMARK  11 active torsions:
REMARK  status: ('A' for Active; 'I' for Inactive)
REMARK    1  A    between atoms: O_1  and  C_9
REMARK    2  A    between atoms: N_4  and  C_13
REMARK    3  A    between atoms: N_5  and  C_28
REMARK    4  A    between atoms: N_5  and  C_29
REMARK    5  A    between atoms: C_6  and  C_16
REMARK    6  A    between atoms: C_8  and  C_18
REMARK    7  A    between atoms: C_12  and  C_17
REMARK    8  A    between atoms: C_17  and  C_19
REMARK    9  A    between atoms: C_17  and  C_20
REMARK   10  A    between atoms: C_21  and  C_22
REMARK   11  A    between atoms: C_28  and  C_30
REMARK                            x       y       z     vdW  Elec       q    Type
REMARK                         _______ _______ _______ _____ _____    ______ ____
ROOT
ATOM      6  C   UNL     1      -2.201  -0.635  25.015  0.00  0.00    -0.027 C 
ATOM      7  C   UNL     1      -2.303   0.145  23.662  0.00  0.00    +0.028 C 
ATOM      8  C   UNL     1      -0.877   0.395  23.052  0.00  0.00    +0.012 C 
ATOM      9  C   UNL     1      -3.200   1.408  23.806  0.00  0.00    +0.122 C 
ATOM     10  C   UNL     1      -3.622  -0.964  25.530  0.00  0.00    +0.007 C 
ATOM     11  C   UNL     1      -1.468  -1.975  24.771  0.00  0.00    +0.009 C 
ATOM     12  C   UNL     1      -4.583   1.088  24.419  0.00  0.00    +0.029 C 
ATOM     13  C   UNL     1      -0.121  -0.952  22.881  0.00  0.00    +0.076 C 
ATOM     14  C   UNL     1      -4.490   0.275  25.710  0.00  0.00    +0.007 C 
ATOM     15  C   UNL     1      -0.087  -1.796  24.154  0.00  0.00    +0.023 C 
ATOM     16  C   UNL     1      -1.448   0.166  26.108  0.00  0.00    +0.011 C 
ATOM     18  C   UNL     1      -0.905   1.134  21.703  0.00  0.00    +0.010 C 
ENDROOT
BRANCH  13   4
ATOM      3  O   UNL     1       1.795   0.992  23.871  0.00  0.00    -0.276 OA
ATOM      4  N   UNL     1       1.240  -0.749  22.429  0.00  0.00    -0.312 N 
ATOM     21  C   UNL     1       2.079   0.209  22.969  0.00  0.00    +0.216 C 
ATOM     36  H   UNL     1       1.564  -1.310  21.646  0.00  0.00    +0.149 HD
BRANCH  21  22
ATOM     22  C   UNL     1       3.440   0.190  22.336  0.00  0.00    +0.075 C 
ATOM     23  C   UNL     1       4.329   1.294  22.910  0.00  0.00    +0.013 C 
ATOM     24  C   UNL     1       4.064  -1.201  22.470  0.00  0.00    +0.013 C 
ATOM     25  C   UNL     1       4.869   0.977  24.305  0.00  0.00    +0.001 C 
ATOM     26  C   UNL     1       4.587  -1.489  23.875  0.00  0.00    +0.001 C 
ATOM     27  C   UNL     1       5.531  -0.395  24.359  0.00  0.00    +0.000 C 
ENDBRANCH  21  22
ENDBRANCH  13   4
BRANCH   9   1
ATOM      1  O   UNL     1      -3.445   1.968  22.515  0.00  0.00    -0.391 OA
ATOM     37  H   UNL     1      -4.245   2.516  22.570  0.00  0.00    +0.210 HD
ENDBRANCH   9   1
BRANCH  12  17
ATOM     17  C   UNL     1      -5.400   2.361  24.674  0.00  0.00    +0.078 C 
ATOM     19  C   UNL     1      -5.022   3.424  23.641  0.00  0.00    +0.017 C 
BRANCH  17  20
ATOM      2  O   UNL     1      -5.800   2.386  27.034  0.00  0.00    -0.275 OA
ATOM      5  N   UNL     1      -4.192   3.868  26.276  0.00  0.00    -0.300 N 
ATOM     20  C   UNL     1      -5.148   2.862  26.098  0.00  0.00    +0.219 C 
ATOM     29  C   UNL     1      -3.944   4.384  27.618  0.00  0.00    +0.132 C 
BRANCH   5  28
ATOM     28  C   UNL     1      -3.357   4.458  25.232  0.00  0.00    +0.142 C 
BRANCH  28  30
ATOM     30  C   UNL     1      -1.950   3.934  25.274  0.00  0.00    -0.030 A 
ATOM     31  C   UNL     1      -1.095   4.146  24.192  0.00  0.00    +0.005 A 
ATOM     32  C   UNL     1      -1.498   3.238  26.394  0.00  0.00    +0.005 A 
ATOM     33  C   UNL     1       0.212   3.661  24.230  0.00  0.00    +0.000 A 
ATOM     34  C   UNL     1      -0.191   2.751  26.432  0.00  0.00    +0.000 A 
ATOM     35  C   UNL     1       0.664   2.963  25.350  0.00  0.00    +0.000 A 
ENDBRANCH  28  30
ENDBRANCH   5  28
ENDBRANCH  17  20
ENDBRANCH  12  17
TORSDOF 7
ENDMDL
