MODEL 1
REMARK VINA RESULT:       6.6      0.000      0.000
REMARK  Name = 40586261
REMARK  4 active torsions:
REMARK  status: ('A' for Active; 'I' for Inactive)
REMARK    1  A    between atoms: O_3  and  C_29
REMARK    2  A    between atoms: O_3  and  C_30
REMARK    3  A    between atoms: C_13  and  C_14
REMARK    4  A    between atoms: C_22  and  C_24
REMARK                            x       y       z     vdW  Elec       q    Type
REMARK                         _______ _______ _______ _____ _____    ______ ____
ROOT
ATOM      1  O   UNL     1      -3.171  -0.399  27.148  0.00  0.00    -0.275 OA
ATOM      2  O   UNL     1       1.109   2.053  25.076  0.00  0.00    -0.267 OA
ATOM      4  N   UNL     1      -3.681   0.545  25.087  0.00  0.00    -0.300 N 
ATOM      5  N   UNL     1      -0.946   1.786  24.004  0.00  0.00    -0.311 N 
ATOM      6  C   UNL     1      -3.080   2.953  24.804  0.00  0.00    +0.027 C 
ATOM      7  C   UNL     1      -3.158   1.476  22.840  0.00  0.00    +0.054 C 
ATOM      8  C   UNL     1      -3.504   2.875  23.343  0.00  0.00    +0.018 C 
ATOM      9  C   UNL     1      -3.822   1.895  25.638  0.00  0.00    +0.113 C 
ATOM     10  C   UNL     1      -3.949   0.427  23.646  0.00  0.00    +0.117 C 
ATOM     11  C   UNL     1      -1.557   2.787  24.888  0.00  0.00    +0.130 C 
ATOM     12  C   UNL     1      -1.671   1.202  22.962  0.00  0.00    +0.027 A 
ATOM     14  C   UNL     1      -3.393  -0.520  25.941  0.00  0.00    +0.219 C 
ATOM     17  C   UNL     1      -1.059   0.382  22.093  0.00  0.00    +0.022 A 
ATOM     20  C   UNL     1       0.427   1.532  24.191  0.00  0.00    +0.259 A 
ATOM     22  C   UNL     1       1.077   0.580  23.223  0.00  0.00    +0.047 A 
ATOM     23  C   UNL     1       0.334   0.065  22.232  0.00  0.00    +0.015 A 
ENDROOT
BRANCH  14  13
ATOM     13  C   UNL     1      -3.350  -1.883  25.322  0.00  0.00    +0.075 C 
ATOM     15  C   UNL     1      -4.370  -1.969  24.185  0.00  0.00    +0.013 C 
ATOM     16  C   UNL     1      -1.932  -2.167  24.824  0.00  0.00    +0.013 C 
ATOM     18  C   UNL     1      -4.287  -3.310  23.459  0.00  0.00    +0.001 C 
ATOM     19  C   UNL     1      -1.851  -3.505  24.094  0.00  0.00    +0.001 C 
ATOM     21  C   UNL     1      -2.872  -3.592  22.963  0.00  0.00    +0.000 C 
ENDBRANCH  14  13
BRANCH  22  24
ATOM     24  C   UNL     1       2.496   0.207  23.354  0.00  0.00    -0.012 A 
ATOM     25  C   UNL     1       3.492   1.141  23.067  0.00  0.00    +0.012 A 
ATOM     26  C   UNL     1       2.844  -1.079  23.765  0.00  0.00    +0.012 A 
ATOM     27  C   UNL     1       4.836   0.787  23.191  0.00  0.00    +0.046 A 
ATOM     28  C   UNL     1       4.188  -1.433  23.888  0.00  0.00    +0.046 A 
ATOM     29  C   UNL     1       5.184  -0.499  23.601  0.00  0.00    +0.120 A 
BRANCH  29   3
ATOM      3  O   UNL     1       6.495  -0.845  23.721  0.00  0.00    -0.495 OA
ATOM     30  C   UNL     1       7.390  -0.358  22.723  0.00  0.00    +0.277 C 
ENDBRANCH  29   3
ENDBRANCH  22  24
TORSDOF 3
ENDMDL
MODEL 2
REMARK VINA RESULT:       8.0      1.898      4.428
REMARK  Name = 40586261
REMARK  4 active torsions:
REMARK  status: ('A' for Active; 'I' for Inactive)
REMARK    1  A    between atoms: O_3  and  C_29
REMARK    2  A    between atoms: O_3  and  C_30
REMARK    3  A    between atoms: C_13  and  C_14
REMARK    4  A    between atoms: C_22  and  C_24
REMARK                            x       y       z     vdW  Elec       q    Type
REMARK                         _______ _______ _______ _____ _____    ______ ____
ROOT
ATOM      1  O   UNL     1      -4.223   2.075  22.877  0.00  0.00    -0.275 OA
ATOM      2  O   UNL     1      -0.224  -1.429  22.288  0.00  0.00    -0.267 OA
ATOM      4  N   UNL     1      -4.276   0.476  24.562  0.00  0.00    -0.300 N 
ATOM      5  N   UNL     1      -1.716  -1.372  24.079  0.00  0.00    -0.311 N 
ATOM      6  C   UNL     1      -4.206  -1.907  23.816  0.00  0.00    +0.027 C 
ATOM      7  C   UNL     1      -3.315  -1.294  26.024  0.00  0.00    +0.054 C 
ATOM      8  C   UNL     1      -4.123  -2.349  25.271  0.00  0.00    +0.018 C 
ATOM      9  C   UNL     1      -4.898  -0.537  23.707  0.00  0.00    +0.113 C 
ATOM     10  C   UNL     1      -4.044   0.062  25.954  0.00  0.00    +0.117 C 
ATOM     11  C   UNL     1      -2.792  -1.887  23.222  0.00  0.00    +0.130 C 
ATOM     12  C   UNL     1      -1.920  -1.156  25.445  0.00  0.00    +0.027 A 
ATOM     14  C   UNL     1      -4.023   1.748  24.050  0.00  0.00    +0.219 C 
ATOM     17  C   UNL     1      -0.891  -0.802  26.231  0.00  0.00    +0.022 A 
ATOM     20  C   UNL     1      -0.451  -1.215  23.480  0.00  0.00    +0.259 A 
ATOM     22  C   UNL     1       0.674  -0.782  24.381  0.00  0.00    +0.047 A 
ATOM     23  C   UNL     1       0.422  -0.608  25.687  0.00  0.00    +0.015 A 
ENDROOT
BRANCH  14  13
ATOM     13  C   UNL     1      -3.467   2.758  25.006  0.00  0.00    +0.075 C 
ATOM     15  C   UNL     1      -1.953   2.573  25.136  0.00  0.00    +0.013 C 
ATOM     16  C   UNL     1      -3.819   4.164  24.517  0.00  0.00    +0.013 C 
ATOM     18  C   UNL     1      -1.332   3.649  26.023  0.00  0.00    +0.001 C 
ATOM     19  C   UNL     1      -3.193   5.239  25.402  0.00  0.00    +0.001 C 
ATOM     21  C   UNL     1      -1.684   5.051  25.534  0.00  0.00    +0.000 C 
ENDBRANCH  14  13
BRANCH  22  24
ATOM     24  C   UNL     1       2.028  -0.542  23.850  0.00  0.00    -0.012 A 
ATOM     25  C   UNL     1       3.028  -1.499  24.032  0.00  0.00    +0.012 A 
ATOM     26  C   UNL     1       2.310   0.640  23.167  0.00  0.00    +0.012 A 
ATOM     27  C   UNL     1       4.310  -1.271  23.531  0.00  0.00    +0.046 A 
ATOM     28  C   UNL     1       3.592   0.868  22.667  0.00  0.00    +0.046 A 
ATOM     29  C   UNL     1       4.592  -0.088  22.849  0.00  0.00    +0.120 A 
BRANCH  29   3
ATOM      3  O   UNL     1       5.843   0.135  22.360  0.00  0.00    -0.495 OA
ATOM     30  C   UNL     1       6.941  -0.291  23.165  0.00  0.00    +0.277 C 
ENDBRANCH  29   3
ENDBRANCH  22  24
TORSDOF 3
ENDMDL
MODEL 3
REMARK VINA RESULT:       9.1      3.300      4.194
REMARK  Name = 40586261
REMARK  4 active torsions:
REMARK  status: ('A' for Active; 'I' for Inactive)
REMARK    1  A    between atoms: O_3  and  C_29
REMARK    2  A    between atoms: O_3  and  C_30
REMARK    3  A    between atoms: C_13  and  C_14
REMARK    4  A    between atoms: C_22  and  C_24
REMARK                            x       y       z     vdW  Elec       q    Type
REMARK                         _______ _______ _______ _____ _____    ______ ____
ROOT
ATOM      1  O   UNL     1      -5.755   0.811  25.965  0.00  0.00    -0.275 OA
ATOM      2  O   UNL     1      -1.638   4.084  26.943  0.00  0.00    -0.267 OA
ATOM      4  N   UNL     1      -4.590   1.274  24.009  0.00  0.00    -0.300 N 
ATOM      5  N   UNL     1      -2.114   3.090  24.887  0.00  0.00    -0.311 N 
ATOM      6  C   UNL     1      -4.191   3.690  23.515  0.00  0.00    +0.027 C 
ATOM      7  C   UNL     1      -2.619   1.998  22.675  0.00  0.00    +0.054 C 
ATOM      8  C   UNL     1      -3.342   3.293  22.315  0.00  0.00    +0.018 C 
ATOM      9  C   UNL     1      -5.214   2.588  23.840  0.00  0.00    +0.113 C 
ATOM     10  C   UNL     1      -3.652   0.887  22.945  0.00  0.00    +0.117 C 
ATOM     11  C   UNL     1      -3.266   3.984  24.702  0.00  0.00    +0.130 C 
ATOM     12  C   UNL     1      -1.735   2.184  23.893  0.00  0.00    +0.027 A 
ATOM     14  C   UNL     1      -4.967   0.466  25.082  0.00  0.00    +0.219 C 
ATOM     17  C   UNL     1      -0.611   1.464  24.032  0.00  0.00    +0.022 A 
ATOM     20  C   UNL     1      -1.356   3.271  26.060  0.00  0.00    +0.259 A 
ATOM     22  C   UNL     1      -0.121   2.424  26.204  0.00  0.00    +0.047 A 
ATOM     23  C   UNL     1       0.203   1.585  25.208  0.00  0.00    +0.015 A 
ENDROOT
BRANCH  14  13
ATOM     13  C   UNL     1      -4.352  -0.898  25.141  0.00  0.00    +0.075 C 
ATOM     15  C   UNL     1      -4.455  -1.575  23.772  0.00  0.00    +0.013 C 
ATOM     16  C   UNL     1      -2.897  -0.777  25.597  0.00  0.00    +0.013 C 
ATOM     18  C   UNL     1      -3.748  -2.928  23.762  0.00  0.00    +0.001 C 
ATOM     19  C   UNL     1      -2.189  -2.129  25.581  0.00  0.00    +0.001 C 
ATOM     21  C   UNL     1      -2.297  -2.805  24.217  0.00  0.00    +0.000 C 
ENDBRANCH  14  13
BRANCH  22  24
ATOM     24  C   UNL     1       0.721   2.497  27.412  0.00  0.00    -0.012 A 
ATOM     25  C   UNL     1       2.021   2.997  27.326  0.00  0.00    +0.012 A 
ATOM     26  C   UNL     1       0.217   2.069  28.640  0.00  0.00    +0.012 A 
ATOM     27  C   UNL     1       2.817   3.065  28.470  0.00  0.00    +0.046 A 
ATOM     28  C   UNL     1       1.014   2.137  29.782  0.00  0.00    +0.046 A 
ATOM     29  C   UNL     1       2.315   2.636  29.697  0.00  0.00    +0.120 A 
BRANCH  29   3
ATOM      3  O   UNL     1       3.092   2.702  30.812  0.00  0.00    -0.495 OA
ATOM     30  C   UNL     1       2.842   1.741  31.837  0.00  0.00    +0.277 C 
ENDBRANCH  29   3
ENDBRANCH  22  24
TORSDOF 3
ENDMDL
