MODEL 1
REMARK VINA RESULT:       3.8      0.000      0.000
REMARK  Name = 7051449
REMARK  5 active torsions:
REMARK  status: ('A' for Active; 'I' for Inactive)
REMARK    1  A    between atoms: S_1  and  N_10
REMARK    2  A    between atoms: S_1  and  C_29
REMARK    3  A    between atoms: N_7  and  C_16
REMARK    4  A    between atoms: N_10  and  C_25
REMARK    5  A    between atoms: C_27  and  C_28
REMARK                            x       y       z     vdW  Elec       q    Type
REMARK                         _______ _______ _______ _____ _____    ______ ____
ROOT
ATOM      3  O   UNL     1      -3.926  -7.031  10.405  0.00  0.00    -0.266 OA
ATOM      7  N   UNL     1      -8.136  -9.610  11.312  0.00  0.00    -0.298 NA
ATOM      8  N   UNL     1      -5.585  -8.540   9.725  0.00  0.00    -0.310 N 
ATOM     11  C   UNL     1      -8.052  -7.897   9.482  0.00  0.00    +0.024 C 
ATOM     12  C   UNL     1      -7.345 -10.196   9.016  0.00  0.00    +0.050 C 
ATOM     13  C   UNL     1      -8.082  -8.995   8.427  0.00  0.00    +0.017 C 
ATOM     14  C   UNL     1      -8.744  -8.387  10.773  0.00  0.00    +0.090 C 
ATOM     15  C   UNL     1      -8.070 -10.670  10.295  0.00  0.00    +0.094 C 
ATOM     17  C   UNL     1      -6.596  -7.475   9.717  0.00  0.00    +0.130 C 
ATOM     18  C   UNL     1      -5.901  -9.844   9.323  0.00  0.00    +0.026 A 
ATOM     23  C   UNL     1      -4.940 -10.781   9.230  0.00  0.00    +0.024 A 
ATOM     24  C   UNL     1      -4.268  -8.161  10.060  0.00  0.00    +0.274 A 
ATOM     25  C   UNL     1      -3.256  -9.243   9.959  0.00  0.00    +0.112 A 
ATOM     26  C   UNL     1      -3.573 -10.474   9.558  0.00  0.00    +0.031 A 
ENDROOT
BRANCH   7  16
ATOM      4  O   UNL     1     -10.435  -8.256  16.837  0.00  0.00    -0.276 OA
ATOM      9  N   UNL     1      -9.547  -9.748  15.293  0.00  0.00    -0.302 N 
ATOM     16  C   UNL     1      -8.849 -10.068  12.502  0.00  0.00    +0.060 C 
ATOM     19  C   UNL     1      -7.850 -10.388  13.622  0.00  0.00    +0.038 C 
ATOM     20  C   UNL     1      -9.846  -8.998  12.964  0.00  0.00    +0.038 C 
ATOM     21  C   UNL     1      -8.577 -10.780  14.908  0.00  0.00    +0.109 C 
ATOM     22  C   UNL     1     -10.533  -9.417  14.262  0.00  0.00    +0.109 C 
ATOM     27  C   UNL     1      -9.608  -9.122  16.538  0.00  0.00    +0.212 C 
ATOM     28  C   UNL     1      -8.586  -9.549  17.560  0.00  0.00    +0.109 C 
ENDBRANCH   7  16
BRANCH  25  10
ATOM     10  N   UNL     1      -1.910  -8.985  10.275  0.00  0.00    -0.211 N 
ATOM     33  H   UNL     1      -1.255  -9.180   9.505  0.00  0.00    +0.174 HD
BRANCH  10   1
ATOM      1  S   UNL     1      -1.377  -9.448  11.813  0.00  0.00    +0.079 S 
ATOM      5  O   UNL     1      -2.396  -9.136  12.798  0.00  0.00    -0.149 OA
ATOM      6  O   UNL     1      -0.806 -10.781  11.752  0.00  0.00    -0.149 OA
BRANCH   1  29
ATOM      2  S   UNL     1       1.255  -8.503  10.962  0.00  0.00    -0.077 S 
ATOM     29  C   UNL     1      -0.043  -8.312  12.057  0.00  0.00    +0.146 A 
ATOM     30  C   UNL     1       0.165  -7.298  12.953  0.00  0.00    +0.036 A 
ATOM     31  C   UNL     1       1.420  -6.657  12.742  0.00  0.00    +0.010 A 
ATOM     32  C   UNL     1       2.115  -7.213  11.691  0.00  0.00    +0.047 A 
ENDBRANCH   1  29
ENDBRANCH  10   1
ENDBRANCH  25  10
TORSDOF 4
ENDMDL
MODEL 2
REMARK VINA RESULT:       4.7      1.827      2.536
REMARK  Name = 7051449
REMARK  5 active torsions:
REMARK  status: ('A' for Active; 'I' for Inactive)
REMARK    1  A    between atoms: S_1  and  N_10
REMARK    2  A    between atoms: S_1  and  C_29
REMARK    3  A    between atoms: N_7  and  C_16
REMARK    4  A    between atoms: N_10  and  C_25
REMARK    5  A    between atoms: C_27  and  C_28
REMARK                            x       y       z     vdW  Elec       q    Type
REMARK                         _______ _______ _______ _____ _____    ______ ____
ROOT
ATOM      3  O   UNL     1      -3.930  -7.055  10.407  0.00  0.00    -0.266 OA
ATOM      7  N   UNL     1      -8.200  -9.593  11.127  0.00  0.00    -0.298 NA
ATOM      8  N   UNL     1      -5.579  -8.538   9.649  0.00  0.00    -0.310 N 
ATOM     11  C   UNL     1      -8.028  -7.864   9.320  0.00  0.00    +0.024 C 
ATOM     12  C   UNL     1      -7.330 -10.166   8.857  0.00  0.00    +0.050 C 
ATOM     13  C   UNL     1      -8.029  -8.951   8.253  0.00  0.00    +0.017 C 
ATOM     14  C   UNL     1      -8.774  -8.358  10.578  0.00  0.00    +0.090 C 
ATOM     15  C   UNL     1      -8.108 -10.644  10.103  0.00  0.00    +0.094 C 
ATOM     17  C   UNL     1      -6.577  -7.461   9.614  0.00  0.00    +0.130 C 
ATOM     18  C   UNL     1      -5.894  -9.834   9.222  0.00  0.00    +0.026 A 
ATOM     23  C   UNL     1      -4.941 -10.781   9.156  0.00  0.00    +0.024 A 
ATOM     24  C   UNL     1      -4.271  -8.178  10.038  0.00  0.00    +0.274 A 
ATOM     25  C   UNL     1      -3.269  -9.271   9.965  0.00  0.00    +0.112 A 
ATOM     26  C   UNL     1      -3.584 -10.494   9.539  0.00  0.00    +0.031 A 
ENDROOT
BRANCH   7  16
ATOM      4  O   UNL     1     -10.719  -8.259  16.560  0.00  0.00    -0.276 OA
ATOM      9  N   UNL     1      -9.774  -9.746  15.046  0.00  0.00    -0.302 N 
ATOM     16  C   UNL     1      -8.963 -10.055  12.285  0.00  0.00    +0.060 C 
ATOM     19  C   UNL     1      -8.013 -10.385  13.443  0.00  0.00    +0.038 C 
ATOM     20  C   UNL     1      -9.975  -8.983  12.711  0.00  0.00    +0.038 C 
ATOM     21  C   UNL     1      -8.793 -10.781  14.696  0.00  0.00    +0.109 C 
ATOM     22  C   UNL     1     -10.716  -9.407  13.978  0.00  0.00    +0.109 C 
ATOM     27  C   UNL     1      -9.884  -9.126  16.291  0.00  0.00    +0.212 C 
ATOM     28  C   UNL     1      -8.907  -9.564  17.351  0.00  0.00    +0.109 C 
ENDBRANCH   7  16
BRANCH  25  10
ATOM     10  N   UNL     1      -1.933  -9.031  10.334  0.00  0.00    -0.211 N 
ATOM     33  H   UNL     1      -1.252  -9.221   9.586  0.00  0.00    +0.174 HD
BRANCH  10   1
ATOM      1  S   UNL     1      -1.462  -9.524  11.883  0.00  0.00    +0.079 S 
ATOM      5  O   UNL     1      -0.734 -10.777  11.796  0.00  0.00    -0.149 OA
ATOM      6  O   UNL     1      -0.896  -8.399  12.604  0.00  0.00    -0.149 OA
BRANCH   1  29
ATOM      2  S   UNL     1      -2.956 -10.749  14.077  0.00  0.00    -0.077 S 
ATOM     29  C   UNL     1      -3.036  -9.879  12.609  0.00  0.00    +0.146 A 
ATOM     30  C   UNL     1      -4.321  -9.595  12.232  0.00  0.00    +0.036 A 
ATOM     31  C   UNL     1      -5.270 -10.103  13.166  0.00  0.00    +0.010 A 
ATOM     32  C   UNL     1      -4.663 -10.752  14.218  0.00  0.00    +0.047 A 
ENDBRANCH   1  29
ENDBRANCH  10   1
ENDBRANCH  25  10
TORSDOF 4
ENDMDL
