MODEL 1
REMARK VINA RESULT:      -4.2      0.000      0.000
REMARK  Name = 25388796
REMARK  8 active torsions:
REMARK  status: ('A' for Active; 'I' for Inactive)
REMARK    1  A    between atoms: N_4  and  C_14
REMARK    2  A    between atoms: N_4  and  C_16
REMARK    3  A    between atoms: N_4  and  C_17
REMARK    4  A    between atoms: N_5  and  C_15
REMARK    5  A    between atoms: N_6  and  C_22
REMARK    6  A    between atoms: C_8  and  C_14
REMARK    7  A    between atoms: C_9  and  C_15
REMARK    8  A    between atoms: C_16  and  C_19
REMARK                            x       y       z     vdW  Elec       q    Type
REMARK                         _______ _______ _______ _____ _____    ______ ____
ROOT
ATOM      3  N   UNL     1      -1.274   3.140  24.957  0.00  0.00    -0.298 NA
ATOM      7  C   UNL     1      -3.463   4.497  24.589  0.00  0.00    -0.003 C 
ATOM      8  C   UNL     1      -3.531   3.686  25.902  0.00  0.00    +0.020 C 
ATOM      9  C   UNL     1      -1.822   2.865  23.601  0.00  0.00    +0.074 C 
ATOM     10  C   UNL     1      -3.199   3.540  23.412  0.00  0.00    +0.024 C 
ATOM     11  C   UNL     1      -2.274   2.793  25.996  0.00  0.00    +0.089 C 
ATOM     12  C   UNL     1      -2.242   5.430  24.702  0.00  0.00    +0.019 C 
ATOM     13  C   UNL     1      -0.996   4.594  25.050  0.00  0.00    +0.085 C 
ENDROOT
BRANCH   8  14
ATOM     14  C   UNL     1      -4.814   2.868  26.040  0.00  0.00    +0.089 C 
BRANCH  14   4
ATOM      4  N   UNL     1      -4.763   1.679  25.203  0.00  0.00    -0.301 NA
ATOM     17  C   UNL     1      -5.915   1.632  24.298  0.00  0.00    +0.105 C 
BRANCH   4  16
ATOM     16  C   UNL     1      -4.719   0.468  26.026  0.00  0.00    +0.119 C 
BRANCH  16  19
ATOM     19  C   UNL     1      -3.804  -0.575  25.439  0.00  0.00    -0.033 A 
ATOM     20  C   UNL     1      -4.273  -1.437  24.448  0.00  0.00    +0.005 A 
ATOM     21  C   UNL     1      -2.486  -0.677  25.886  0.00  0.00    +0.005 A 
ATOM     23  C   UNL     1      -3.426  -2.402  23.904  0.00  0.00    +0.000 A 
ATOM     24  C   UNL     1      -1.639  -1.642  25.341  0.00  0.00    +0.000 A 
ATOM     25  C   UNL     1      -2.108  -2.504  24.351  0.00  0.00    +0.000 A 
ENDBRANCH  16  19
ENDBRANCH   4  16
ENDBRANCH  14   4
ENDBRANCH   8  14
BRANCH   9  15
ATOM     15  C   UNL     1      -1.875   1.368  23.286  0.00  0.00    +0.124 C 
BRANCH  15   5
ATOM      2  O   UNL     1       0.615   0.993  24.650  0.00  0.00    -0.253 OA
ATOM      5  N   UNL     1      -0.622   0.920  22.701  0.00  0.00    -0.298 N 
ATOM      6  N   UNL     1       1.584   0.324  22.620  0.00  0.00    -0.269 N 
ATOM     18  C   UNL     1       0.546   0.765  23.445  0.00  0.00    +0.304 C 
ATOM     29  H   UNL     1      -0.571   0.817  21.692  0.00  0.00    +0.150 HD
ATOM     30  H   UNL     1       1.369   0.178  21.636  0.00  0.00    +0.156 HD
BRANCH   6  22
ATOM      1  S   UNL     1       5.000  -1.185  23.858  0.00  0.00    -0.103 S 
ATOM     22  C   UNL     1       2.922   0.046  22.980  0.00  0.00    +0.042 A 
ATOM     26  C   UNL     1       4.013   0.948  22.821  0.00  0.00    +0.031 A 
ATOM     27  C   UNL     1       3.318  -1.152  23.533  0.00  0.00    +0.068 A 
ATOM     28  C   UNL     1       5.201   0.407  23.258  0.00  0.00    +0.047 A 
ENDBRANCH   6  22
ENDBRANCH  15   5
ENDBRANCH   9  15
TORSDOF 7
ENDMDL
MODEL 2
REMARK VINA RESULT:      -3.7      1.297      4.024
REMARK  Name = 25388796
REMARK  8 active torsions:
REMARK  status: ('A' for Active; 'I' for Inactive)
REMARK    1  A    between atoms: N_4  and  C_14
REMARK    2  A    between atoms: N_4  and  C_16
REMARK    3  A    between atoms: N_4  and  C_17
REMARK    4  A    between atoms: N_5  and  C_15
REMARK    5  A    between atoms: N_6  and  C_22
REMARK    6  A    between atoms: C_8  and  C_14
REMARK    7  A    between atoms: C_9  and  C_15
REMARK    8  A    between atoms: C_16  and  C_19
REMARK                            x       y       z     vdW  Elec       q    Type
REMARK                         _______ _______ _______ _____ _____    ______ ____
ROOT
ATOM      3  N   UNL     1      -2.994  -1.613  23.871  0.00  0.00    -0.298 NA
ATOM      7  C   UNL     1      -3.665  -0.231  25.970  0.00  0.00    -0.003 C 
ATOM      8  C   UNL     1      -4.772  -0.172  24.895  0.00  0.00    +0.020 C 
ATOM      9  C   UNL     1      -1.909  -0.655  24.219  0.00  0.00    +0.074 C 
ATOM     10  C   UNL     1      -2.342   0.280  25.369  0.00  0.00    +0.024 C 
ATOM     11  C   UNL     1      -4.262  -0.885  23.623  0.00  0.00    +0.089 C 
ATOM     12  C   UNL     1      -3.461  -1.716  26.324  0.00  0.00    +0.019 C 
ATOM     13  C   UNL     1      -3.197  -2.512  25.032  0.00  0.00    +0.085 C 
ENDROOT
BRANCH   8  14
ATOM     14  C   UNL     1      -5.246   1.248  24.593  0.00  0.00    +0.089 C 
BRANCH  14   4
ATOM      4  N   UNL     1      -5.314   2.042  25.810  0.00  0.00    -0.301 NA
ATOM     17  C   UNL     1      -6.653   1.971  26.402  0.00  0.00    +0.105 C 
BRANCH   4  16
ATOM     16  C   UNL     1      -4.955   3.436  25.541  0.00  0.00    +0.119 C 
BRANCH  16  19
ATOM     19  C   UNL     1      -3.503   3.580  25.170  0.00  0.00    -0.033 A 
ATOM     20  C   UNL     1      -2.567   3.945  26.138  0.00  0.00    +0.005 A 
ATOM     21  C   UNL     1      -3.092   3.346  23.857  0.00  0.00    +0.005 A 
ATOM     23  C   UNL     1      -1.222   4.077  25.795  0.00  0.00    +0.000 A 
ATOM     24  C   UNL     1      -1.747   3.478  23.514  0.00  0.00    +0.000 A 
ATOM     25  C   UNL     1      -0.812   3.844  24.482  0.00  0.00    +0.000 A 
ENDBRANCH  16  19
ENDBRANCH   4  16
ENDBRANCH  14   4
ENDBRANCH   8  14
BRANCH   9  15
ATOM     15  C   UNL     1      -1.413   0.131  23.003  0.00  0.00    +0.124 C 
BRANCH  15   5
ATOM      2  O   UNL     1       1.036   0.835  24.311  0.00  0.00    -0.253 OA
ATOM      5  N   UNL     1      -0.073  -0.291  22.627  0.00  0.00    -0.298 N 
ATOM      6  N   UNL     1       2.205  -0.455  22.737  0.00  0.00    -0.269 N 
ATOM     18  C   UNL     1       1.066   0.102  23.326  0.00  0.00    +0.304 C 
ATOM     29  H   UNL     1       0.044  -0.807  21.760  0.00  0.00    +0.150 HD
ATOM     30  H   UNL     1       2.067  -1.046  21.920  0.00  0.00    +0.156 HD
BRANCH   6  22
ATOM      1  S   UNL     1       5.862  -0.808  24.142  0.00  0.00    -0.103 S 
ATOM     22  C   UNL     1       3.552  -0.304  23.137  0.00  0.00    +0.042 A 
ATOM     26  C   UNL     1       4.341   0.862  22.918  0.00  0.00    +0.031 A 
ATOM     27  C   UNL     1       4.257  -1.290  23.793  0.00  0.00    +0.068 A 
ATOM     28  C   UNL     1       5.618   0.724  23.415  0.00  0.00    +0.047 A 
ENDBRANCH   6  22
ENDBRANCH  15   5
ENDBRANCH   9  15
TORSDOF 7
ENDMDL
MODEL 3
REMARK VINA RESULT:      -0.5      2.190      6.605
REMARK  Name = 25388796
REMARK  8 active torsions:
REMARK  status: ('A' for Active; 'I' for Inactive)
REMARK    1  A    between atoms: N_4  and  C_14
REMARK    2  A    between atoms: N_4  and  C_16
REMARK    3  A    between atoms: N_4  and  C_17
REMARK    4  A    between atoms: N_5  and  C_15
REMARK    5  A    between atoms: N_6  and  C_22
REMARK    6  A    between atoms: C_8  and  C_14
REMARK    7  A    between atoms: C_9  and  C_15
REMARK    8  A    between atoms: C_16  and  C_19
REMARK                            x       y       z     vdW  Elec       q    Type
REMARK                         _______ _______ _______ _____ _____    ______ ____
ROOT
ATOM      3  N   UNL     1      -3.562  -1.345  25.889  0.00  0.00    -0.298 NA
ATOM      7  C   UNL     1      -2.256  -2.205  23.811  0.00  0.00    -0.003 C 
ATOM      8  C   UNL     1      -1.446  -1.126  24.563  0.00  0.00    +0.020 C 
ATOM      9  C   UNL     1      -4.422  -1.263  24.677  0.00  0.00    +0.074 C 
ATOM     10  C   UNL     1      -3.623  -1.626  23.405  0.00  0.00    +0.024 C 
ATOM     11  C   UNL     1      -2.325  -0.551  25.697  0.00  0.00    +0.089 C 
ATOM     12  C   UNL     1      -2.522  -3.346  24.812  0.00  0.00    +0.019 C 
ATOM     13  C   UNL     1      -3.177  -2.764  26.079  0.00  0.00    +0.085 C 
ENDROOT
BRANCH   8  14
ATOM     14  C   UNL     1      -0.914  -0.024  23.649  0.00  0.00    +0.089 C 
BRANCH  14   4
ATOM      4  N   UNL     1       0.499   0.217  23.896  0.00  0.00    -0.301 NA
ATOM     17  C   UNL     1       0.731   1.615  24.267  0.00  0.00    +0.105 C 
BRANCH   4  16
ATOM     16  C   UNL     1       1.298  -0.130  22.717  0.00  0.00    +0.119 C 
BRANCH  16  19
ATOM     19  C   UNL     1       2.772  -0.152  23.026  0.00  0.00    -0.033 A 
ATOM     20  C   UNL     1       3.561   0.963  22.740  0.00  0.00    +0.005 A 
ATOM     21  C   UNL     1       3.348  -1.286  23.598  0.00  0.00    +0.005 A 
ATOM     23  C   UNL     1       4.925   0.944  23.026  0.00  0.00    +0.000 A 
ATOM     24  C   UNL     1       4.713  -1.306  23.884  0.00  0.00    +0.000 A 
ATOM     25  C   UNL     1       5.502  -0.191  23.598  0.00  0.00    +0.000 A 
ENDBRANCH  16  19
ENDBRANCH   4  16
ENDBRANCH  14   4
ENDBRANCH   8  14
BRANCH   9  15
ATOM     15  C   UNL     1      -5.115   0.095  24.544  0.00  0.00    +0.124 C 
BRANCH  15   5
ATOM      2  O   UNL     1      -3.509   2.121  23.314  0.00  0.00    -0.253 OA
ATOM      5  N   UNL     1      -4.353   1.131  25.222  0.00  0.00    -0.298 N 
ATOM      6  N   UNL     1      -2.976   2.942  25.447  0.00  0.00    -0.269 N 
ATOM     18  C   UNL     1      -3.596   2.080  24.538  0.00  0.00    +0.304 C 
ATOM     29  H   UNL     1      -4.287   1.096  26.235  0.00  0.00    +0.150 HD
ATOM     30  H   UNL     1      -3.147   2.781  26.436  0.00  0.00    +0.156 HD
BRANCH   6  22
ATOM      1  S   UNL     1      -0.072   5.398  24.439  0.00  0.00    -0.103 S 
ATOM     22  C   UNL     1      -2.127   4.037  25.165  0.00  0.00    +0.042 A 
ATOM     26  C   UNL     1      -2.478   5.407  25.341  0.00  0.00    +0.031 A 
ATOM     27  C   UNL     1      -0.846   3.889  24.680  0.00  0.00    +0.068 A 
ATOM     28  C   UNL     1      -1.453   6.254  24.984  0.00  0.00    +0.047 A 
ENDBRANCH   6  22
ENDBRANCH  15   5
ENDBRANCH   9  15
TORSDOF 7
ENDMDL
MODEL 4
REMARK VINA RESULT:      -0.4      2.179      5.310
REMARK  Name = 25388796
REMARK  8 active torsions:
REMARK  status: ('A' for Active; 'I' for Inactive)
REMARK    1  A    between atoms: N_4  and  C_14
REMARK    2  A    between atoms: N_4  and  C_16
REMARK    3  A    between atoms: N_4  and  C_17
REMARK    4  A    between atoms: N_5  and  C_15
REMARK    5  A    between atoms: N_6  and  C_22
REMARK    6  A    between atoms: C_8  and  C_14
REMARK    7  A    between atoms: C_9  and  C_15
REMARK    8  A    between atoms: C_16  and  C_19
REMARK                            x       y       z     vdW  Elec       q    Type
REMARK                         _______ _______ _______ _____ _____    ______ ____
ROOT
ATOM      3  N   UNL     1      -4.084   4.192  24.012  0.00  0.00    -0.298 NA
ATOM      7  C   UNL     1      -2.286   4.232  25.891  0.00  0.00    -0.003 C 
ATOM      8  C   UNL     1      -1.911   3.213  24.792  0.00  0.00    +0.020 C 
ATOM      9  C   UNL     1      -4.731   4.013  25.340  0.00  0.00    +0.074 C 
ATOM     10  C   UNL     1      -3.674   3.883  26.459  0.00  0.00    +0.024 C 
ATOM     11  C   UNL     1      -3.077   3.128  23.782  0.00  0.00    +0.089 C 
ATOM     12  C   UNL     1      -2.406   5.607  25.207  0.00  0.00    +0.019 C 
ATOM     13  C   UNL     1      -3.381   5.498  24.020  0.00  0.00    +0.085 C 
ENDROOT
BRANCH   8  14
ATOM     14  C   UNL     1      -1.542   1.838  25.344  0.00  0.00    +0.089 C 
BRANCH  14   4
ATOM      4  N   UNL     1      -0.108   1.736  25.564  0.00  0.00    -0.301 NA
ATOM     17  C   UNL     1       0.262   2.321  26.856  0.00  0.00    +0.105 C 
BRANCH   4  16
ATOM     16  C   UNL     1       0.631   2.395  24.484  0.00  0.00    +0.119 C 
BRANCH  16  19
ATOM     19  C   UNL     1       1.305   1.398  23.577  0.00  0.00    -0.033 A 
ATOM     20  C   UNL     1       0.566   0.358  23.012  0.00  0.00    +0.005 A 
ATOM     21  C   UNL     1       2.667   1.516  23.301  0.00  0.00    +0.005 A 
ATOM     23  C   UNL     1       1.189  -0.564  22.172  0.00  0.00    +0.000 A 
ATOM     24  C   UNL     1       3.290   0.594  22.461  0.00  0.00    +0.000 A 
ATOM     25  C   UNL     1       2.551  -0.446  21.896  0.00  0.00    +0.000 A 
ENDBRANCH  16  19
ENDBRANCH   4  16
ENDBRANCH  14   4
ENDBRANCH   8  14
BRANCH   9  15
ATOM     15  C   UNL     1      -5.720   2.845  25.354  0.00  0.00    +0.124 C 
BRANCH  15   5
ATOM      2  O   UNL     1      -4.492   0.891  23.658  0.00  0.00    -0.253 OA
ATOM      5  N   UNL     1      -5.063   1.618  25.774  0.00  0.00    -0.298 N 
ATOM      6  N   UNL     1      -3.936  -0.361  25.564  0.00  0.00    -0.269 N 
ATOM     18  C   UNL     1      -4.490   0.721  24.874  0.00  0.00    +0.304 C 
ATOM     29  H   UNL     1      -5.117   1.353  26.754  0.00  0.00    +0.150 HD
ATOM     30  H   UNL     1      -4.014  -0.358  26.578  0.00  0.00    +0.156 HD
BRANCH   6  22
ATOM      1  S   UNL     1      -1.385  -3.089  24.329  0.00  0.00    -0.103 S 
ATOM     22  C   UNL     1      -3.265  -1.482  25.026  0.00  0.00    +0.042 A 
ATOM     26  C   UNL     1      -3.903  -2.587  24.393  0.00  0.00    +0.031 A 
ATOM     27  C   UNL     1      -1.895  -1.626  25.060  0.00  0.00    +0.068 A 
ATOM     28  C   UNL     1      -2.998  -3.534  23.967  0.00  0.00    +0.047 A 
ENDBRANCH   6  22
ENDBRANCH  15   5
ENDBRANCH   9  15
TORSDOF 7
ENDMDL
