MODEL 1
REMARK VINA RESULT:      -5.8      0.000      0.000
REMARK  Name = 38028384
REMARK  13 active torsions:
REMARK  status: ('A' for Active; 'I' for Inactive)
REMARK    1  A    between atoms: O_3  and  C_22
REMARK    2  A    between atoms: O_3  and  C_25
REMARK    3  A    between atoms: N_4  and  C_14
REMARK    4  A    between atoms: N_5  and  C_21
REMARK    5  A    between atoms: C_7  and  C_11
REMARK    6  A    between atoms: C_8  and  C_14
REMARK    7  A    between atoms: C_10  and  C_15
REMARK    8  A    between atoms: C_11  and  C_16
REMARK    9  A    between atoms: C_11  and  C_17
REMARK   10  A    between atoms: C_12  and  C_18
REMARK   11  A    between atoms: C_15  and  C_19
REMARK   12  A    between atoms: C_20  and  C_22
REMARK   13  A    between atoms: C_21  and  C_23
REMARK                            x       y       z     vdW  Elec       q    Type
REMARK                         _______ _______ _______ _____ _____    ______ ____
ROOT
ATOM      7  C   UNL     1      -1.116   0.407  24.627  0.00  0.00    +0.000 C 
ATOM      8  C   UNL     1      -0.303  -0.900  24.459  0.00  0.00    +0.032 C 
ATOM      9  C   UNL     1      -2.236   0.213  25.661  0.00  0.00    +0.012 C 
ATOM     10  C   UNL     1      -3.205  -0.918  25.266  0.00  0.00    +0.023 C 
ATOM     12  C   UNL     1      -2.464  -2.165  24.827  0.00  0.00    -0.073 C 
ATOM     13  C   UNL     1      -1.165  -2.141  24.484  0.00  0.00    -0.022 C 
ATOM     18  C   UNL     1      -3.242  -3.452  24.836  0.00  0.00    +0.039 C 
ENDROOT
BRANCH   7  11
ATOM     11  C   UNL     1      -0.226   1.582  25.042  0.00  0.00    -0.013 C 
ATOM     16  C   UNL     1      -0.394   2.747  24.070  0.00  0.00    +0.007 C 
ATOM     17  C   UNL     1      -0.548   2.017  26.468  0.00  0.00    +0.007 C 
ENDBRANCH   7  11
BRANCH   8  14
ATOM     14  C   UNL     1       0.522  -0.876  23.167  0.00  0.00    +0.112 C 
BRANCH  14   4
ATOM      2  O   UNL     1       2.455  -0.158  21.139  0.00  0.00    -0.273 OA
ATOM      4  N   UNL     1       1.734  -0.140  23.352  0.00  0.00    -0.313 N 
ATOM     20  C   UNL     1       2.614   0.164  22.314  0.00  0.00    +0.239 C 
ATOM     29  H   UNL     1       1.935   0.226  24.278  0.00  0.00    +0.149 HD
BRANCH  20  22
ATOM     22  C   UNL     1       3.814   0.953  22.793  0.00  0.00    +0.255 C 
BRANCH  22   3
ATOM      3  O   UNL     1       4.984   0.165  22.732  0.00  0.00    -0.374 OA
ATOM     25  C   UNL     1       5.410  -0.255  24.025  0.00  0.00    +0.194 C 
ENDBRANCH  22   3
ENDBRANCH  20  22
ENDBRANCH  14   4
ENDBRANCH   8  14
BRANCH  10  15
ATOM     15  C   UNL     1      -4.185  -0.452  24.185  0.00  0.00    +0.103 C 
BRANCH  15  19
ATOM      1  O   UNL     1      -3.711   1.773  23.361  0.00  0.00    -0.276 OA
ATOM      5  N   UNL     1      -5.209   1.497  25.117  0.00  0.00    -0.310 N 
ATOM     19  C   UNL     1      -4.320   1.054  24.149  0.00  0.00    +0.214 C 
ATOM     30  H   UNL     1      -5.666   0.823  25.724  0.00  0.00    +0.149 HD
BRANCH   5  21
ATOM     21  C   UNL     1      -5.530   2.892  25.313  0.00  0.00    +0.159 C 
BRANCH  21  23
ATOM      6  N   UNL     1      -4.037   4.428  24.168  0.00  0.00    -0.258 NA
ATOM     23  C   UNL     1      -4.303   3.758  25.311  0.00  0.00    +0.058 A 
ATOM     24  C   UNL     1      -3.521   3.828  26.452  0.00  0.00    +0.025 A 
ATOM     26  C   UNL     1      -2.391   4.638  26.419  0.00  0.00    +0.003 A 
ATOM     27  C   UNL     1      -2.931   5.206  24.172  0.00  0.00    +0.111 A 
ATOM     28  C   UNL     1      -2.084   5.344  25.261  0.00  0.00    +0.020 A 
ENDBRANCH  21  23
ENDBRANCH   5  21
ENDBRANCH  15  19
ENDBRANCH  10  15
TORSDOF 9
ENDMDL
MODEL 2
REMARK VINA RESULT:      -4.7      1.684      3.479
REMARK  Name = 38028384
REMARK  13 active torsions:
REMARK  status: ('A' for Active; 'I' for Inactive)
REMARK    1  A    between atoms: O_3  and  C_22
REMARK    2  A    between atoms: O_3  and  C_25
REMARK    3  A    between atoms: N_4  and  C_14
REMARK    4  A    between atoms: N_5  and  C_21
REMARK    5  A    between atoms: C_7  and  C_11
REMARK    6  A    between atoms: C_8  and  C_14
REMARK    7  A    between atoms: C_10  and  C_15
REMARK    8  A    between atoms: C_11  and  C_16
REMARK    9  A    between atoms: C_11  and  C_17
REMARK   10  A    between atoms: C_12  and  C_18
REMARK   11  A    between atoms: C_15  and  C_19
REMARK   12  A    between atoms: C_20  and  C_22
REMARK   13  A    between atoms: C_21  and  C_23
REMARK                            x       y       z     vdW  Elec       q    Type
REMARK                         _______ _______ _______ _____ _____    ______ ____
ROOT
ATOM      7  C   UNL     1      -3.486  -0.791  25.052  0.00  0.00    +0.000 C 
ATOM      8  C   UNL     1      -2.275  -0.055  24.426  0.00  0.00    +0.032 C 
ATOM      9  C   UNL     1      -4.758  -0.525  24.232  0.00  0.00    +0.012 C 
ATOM     10  C   UNL     1      -5.091   0.976  24.143  0.00  0.00    +0.023 C 
ATOM     12  C   UNL     1      -3.872   1.803  23.789  0.00  0.00    -0.073 C 
ATOM     13  C   UNL     1      -2.622   1.321  23.908  0.00  0.00    -0.022 C 
ATOM     18  C   UNL     1      -4.124   3.183  23.249  0.00  0.00    +0.039 C 
ENDROOT
BRANCH   7  11
ATOM     11  C   UNL     1      -3.242  -2.299  25.158  0.00  0.00    -0.013 C 
ATOM     16  C   UNL     1      -4.116  -3.051  24.158  0.00  0.00    +0.007 C 
ATOM     17  C   UNL     1      -1.767  -2.617  24.934  0.00  0.00    +0.007 C 
ENDBRANCH   7  11
BRANCH   8  14
ATOM     14  C   UNL     1      -1.116   0.052  25.423  0.00  0.00    +0.112 C 
BRANCH  14   4
ATOM      2  O   UNL     1       0.401  -0.842  23.130  0.00  0.00    -0.273 OA
ATOM      4  N   UNL     1       0.009   0.701  24.827  0.00  0.00    -0.313 N 
ATOM     20  C   UNL     1       0.686   0.198  23.716  0.00  0.00    +0.239 C 
ATOM     29  H   UNL     1       0.295   1.602  25.198  0.00  0.00    +0.149 HD
BRANCH  20  22
ATOM     22  C   UNL     1       1.835   1.089  23.295  0.00  0.00    +0.255 C 
BRANCH  22   3
ATOM      3  O   UNL     1       2.755   0.373  22.499  0.00  0.00    -0.374 OA
ATOM     25  C   UNL     1       4.104   0.647  22.868  0.00  0.00    +0.194 C 
ENDBRANCH  22   3
ENDBRANCH  20  22
ENDBRANCH  14   4
ENDBRANCH   8  14
BRANCH  10  15
ATOM     15  C   UNL     1      -5.736   1.476  25.440  0.00  0.00    +0.103 C 
BRANCH  15  19
ATOM      1  O   UNL     1      -5.946   3.881  25.597  0.00  0.00    -0.276 OA
ATOM      5  N   UNL     1      -4.019   2.846  26.385  0.00  0.00    -0.310 N 
ATOM     19  C   UNL     1      -5.278   2.871  25.802  0.00  0.00    +0.214 C 
ATOM     30  H   UNL     1      -3.545   1.957  26.515  0.00  0.00    +0.149 HD
BRANCH   5  21
ATOM     21  C   UNL     1      -3.333   4.036  26.831  0.00  0.00    +0.159 C 
BRANCH  21  23
ATOM      6  N   UNL     1      -1.156   3.435  25.936  0.00  0.00    -0.258 NA
ATOM     23  C   UNL     1      -2.145   4.356  25.970  0.00  0.00    +0.058 A 
ATOM     24  C   UNL     1      -2.118   5.550  25.268  0.00  0.00    +0.025 A 
ATOM     26  C   UNL     1      -1.003   5.817  24.480  0.00  0.00    +0.003 A 
ATOM     27  C   UNL     1      -0.089   3.729  25.159  0.00  0.00    +0.111 A 
ATOM     28  C   UNL     1       0.034   4.894  24.419  0.00  0.00    +0.020 A 
ENDBRANCH  21  23
ENDBRANCH   5  21
ENDBRANCH  15  19
ENDBRANCH  10  15
TORSDOF 9
ENDMDL
MODEL 3
REMARK VINA RESULT:      -4.3      1.724      4.765
REMARK  Name = 38028384
REMARK  13 active torsions:
REMARK  status: ('A' for Active; 'I' for Inactive)
REMARK    1  A    between atoms: O_3  and  C_22
REMARK    2  A    between atoms: O_3  and  C_25
REMARK    3  A    between atoms: N_4  and  C_14
REMARK    4  A    between atoms: N_5  and  C_21
REMARK    5  A    between atoms: C_7  and  C_11
REMARK    6  A    between atoms: C_8  and  C_14
REMARK    7  A    between atoms: C_10  and  C_15
REMARK    8  A    between atoms: C_11  and  C_16
REMARK    9  A    between atoms: C_11  and  C_17
REMARK   10  A    between atoms: C_12  and  C_18
REMARK   11  A    between atoms: C_15  and  C_19
REMARK   12  A    between atoms: C_20  and  C_22
REMARK   13  A    between atoms: C_21  and  C_23
REMARK                            x       y       z     vdW  Elec       q    Type
REMARK                         _______ _______ _______ _____ _____    ______ ____
ROOT
ATOM      7  C   UNL     1      -2.266   2.087  23.676  0.00  0.00    +0.000 C 
ATOM      8  C   UNL     1      -0.892   2.759  23.923  0.00  0.00    +0.032 C 
ATOM      9  C   UNL     1      -3.332   3.147  23.360  0.00  0.00    +0.012 C 
ATOM     10  C   UNL     1      -3.488   4.175  24.497  0.00  0.00    +0.023 C 
ATOM     12  C   UNL     1      -2.147   4.686  24.981  0.00  0.00    -0.073 C 
ATOM     13  C   UNL     1      -0.996   4.049  24.703  0.00  0.00    -0.022 C 
ATOM     18  C   UNL     1      -2.153   5.976  25.753  0.00  0.00    +0.039 C 
ENDROOT
BRANCH   7  11
ATOM     11  C   UNL     1      -2.201   1.061  22.541  0.00  0.00    -0.013 C 
ATOM     16  C   UNL     1      -3.348   0.062  22.660  0.00  0.00    +0.007 C 
ATOM     17  C   UNL     1      -2.234   1.763  21.187  0.00  0.00    +0.007 C 
ENDBRANCH   7  11
BRANCH   8  14
ATOM     14  C   UNL     1       0.069   1.804  24.641  0.00  0.00    +0.112 C 
BRANCH  14   4
ATOM      2  O   UNL     1       0.687  -0.550  23.080  0.00  0.00    -0.273 OA
ATOM      4  N   UNL     1       1.239   1.575  23.852  0.00  0.00    -0.313 N 
ATOM     20  C   UNL     1       1.459   0.404  23.126  0.00  0.00    +0.239 C 
ATOM     29  H   UNL     1       1.919   2.325  23.773  0.00  0.00    +0.149 HD
BRANCH  20  22
ATOM     22  C   UNL     1       2.777   0.431  22.382  0.00  0.00    +0.255 C 
BRANCH  22   3
ATOM      3  O   UNL     1       3.744   1.161  23.106  0.00  0.00    -0.374 OA
ATOM     25  C   UNL     1       4.938   0.410  23.304  0.00  0.00    +0.194 C 
ENDBRANCH  22   3
ENDBRANCH  20  22
ENDBRANCH  14   4
ENDBRANCH   8  14
BRANCH  10  15
ATOM     15  C   UNL     1      -4.305   3.594  25.656  0.00  0.00    +0.103 C 
BRANCH  15  19
ATOM      1  O   UNL     1      -5.960   2.173  24.610  0.00  0.00    -0.276 OA
ATOM      5  N   UNL     1      -4.239   1.212  25.843  0.00  0.00    -0.310 N 
ATOM     19  C   UNL     1      -4.946   2.273  25.296  0.00  0.00    +0.214 C 
ATOM     30  H   UNL     1      -3.407   1.396  26.396  0.00  0.00    +0.149 HD
BRANCH   5  21
ATOM     21  C   UNL     1      -4.624  -0.168  25.662  0.00  0.00    +0.159 C 
BRANCH  21  23
ATOM      6  N   UNL     1      -2.245  -0.615  25.861  0.00  0.00    -0.258 NA
ATOM     23  C   UNL     1      -3.439  -1.055  25.406  0.00  0.00    +0.058 A 
ATOM     24  C   UNL     1      -3.620  -2.251  24.732  0.00  0.00    +0.025 A 
ATOM     26  C   UNL     1      -2.503  -3.049  24.509  0.00  0.00    +0.003 A 
ATOM     27  C   UNL     1      -1.181  -1.417  25.627  0.00  0.00    +0.111 A 
ATOM     28  C   UNL     1      -1.257  -2.631  24.963  0.00  0.00    +0.020 A 
ENDBRANCH  21  23
ENDBRANCH   5  21
ENDBRANCH  15  19
ENDBRANCH  10  15
TORSDOF 9
ENDMDL
MODEL 4
REMARK VINA RESULT:      -4.1      1.600      7.519
REMARK  Name = 38028384
REMARK  13 active torsions:
REMARK  status: ('A' for Active; 'I' for Inactive)
REMARK    1  A    between atoms: O_3  and  C_22
REMARK    2  A    between atoms: O_3  and  C_25
REMARK    3  A    between atoms: N_4  and  C_14
REMARK    4  A    between atoms: N_5  and  C_21
REMARK    5  A    between atoms: C_7  and  C_11
REMARK    6  A    between atoms: C_8  and  C_14
REMARK    7  A    between atoms: C_10  and  C_15
REMARK    8  A    between atoms: C_11  and  C_16
REMARK    9  A    between atoms: C_11  and  C_17
REMARK   10  A    between atoms: C_12  and  C_18
REMARK   11  A    between atoms: C_15  and  C_19
REMARK   12  A    between atoms: C_20  and  C_22
REMARK   13  A    between atoms: C_21  and  C_23
REMARK                            x       y       z     vdW  Elec       q    Type
REMARK                         _______ _______ _______ _____ _____    ______ ____
ROOT
ATOM      7  C   UNL     1      -2.891  -1.185  24.526  0.00  0.00    +0.000 C 
ATOM      8  C   UNL     1      -3.491  -0.226  25.585  0.00  0.00    +0.032 C 
ATOM      9  C   UNL     1      -1.393  -1.404  24.789  0.00  0.00    +0.012 C 
ATOM     10  C   UNL     1      -0.596  -0.086  24.761  0.00  0.00    +0.023 C 
ATOM     12  C   UNL     1      -1.275   0.998  25.573  0.00  0.00    -0.073 C 
ATOM     13  C   UNL     1      -2.565   0.912  25.944  0.00  0.00    -0.022 C 
ATOM     18  C   UNL     1      -0.423   2.165  25.990  0.00  0.00    +0.039 C 
ENDROOT
BRANCH   7  11
ATOM     11  C   UNL     1      -3.616  -2.534  24.504  0.00  0.00    -0.013 C 
ATOM     16  C   UNL     1      -4.732  -2.521  23.463  0.00  0.00    +0.007 C 
ATOM     17  C   UNL     1      -2.630  -3.664  24.226  0.00  0.00    +0.007 C 
ENDBRANCH   7  11
BRANCH   8  14
ATOM     14  C   UNL     1      -4.838   0.338  25.119  0.00  0.00    +0.112 C 
BRANCH  14   4
ATOM      2  O   UNL     1      -6.164   2.369  26.694  0.00  0.00    -0.273 OA
ATOM      4  N   UNL     1      -4.761   1.755  24.942  0.00  0.00    -0.313 N 
ATOM     20  C   UNL     1      -5.436   2.668  25.751  0.00  0.00    +0.239 C 
ATOM     29  H   UNL     1      -4.139   2.115  24.224  0.00  0.00    +0.149 HD
BRANCH  20  22
ATOM     22  C   UNL     1      -5.173   4.101  25.340  0.00  0.00    +0.255 C 
BRANCH  22   3
ATOM      3  O   UNL     1      -3.891   4.226  24.762  0.00  0.00    -0.374 OA
ATOM     25  C   UNL     1      -2.901   4.553  25.732  0.00  0.00    +0.194 C 
ENDBRANCH  22   3
ENDBRANCH  20  22
ENDBRANCH  14   4
ENDBRANCH   8  14
BRANCH  10  15
ATOM     15  C   UNL     1      -0.350   0.379  23.322  0.00  0.00    +0.103 C 
BRANCH  15  19
ATOM      1  O   UNL     1       1.703   1.585  23.750  0.00  0.00    -0.276 OA
ATOM      5  N   UNL     1       1.627   0.031  22.023  0.00  0.00    -0.310 N 
ATOM     19  C   UNL     1       1.096   0.751  23.083  0.00  0.00    +0.214 C 
ATOM     30  H   UNL     1       1.044  -0.641  21.532  0.00  0.00    +0.149 HD
BRANCH   5  21
ATOM     21  C   UNL     1       2.990   0.183  21.571  0.00  0.00    +0.159 C 
BRANCH  21  23
ATOM      6  N   UNL     1       3.941  -1.354  23.193  0.00  0.00    -0.258 NA
ATOM     23  C   UNL     1       3.981  -0.113  22.660  0.00  0.00    +0.058 A 
ATOM     24  C   UNL     1       4.866   0.875  23.057  0.00  0.00    +0.025 A 
ATOM     26  C   UNL     1       5.771   0.570  24.069  0.00  0.00    +0.003 A 
ATOM     27  C   UNL     1       4.836  -1.615  24.174  0.00  0.00    +0.111 A 
ATOM     28  C   UNL     1       5.762  -0.696  24.642  0.00  0.00    +0.020 A 
ENDBRANCH  21  23
ENDBRANCH   5  21
ENDBRANCH  15  19
ENDBRANCH  10  15
TORSDOF 9
ENDMDL
MODEL 5
REMARK VINA RESULT:      -3.7      2.323      6.474
REMARK  Name = 38028384
REMARK  13 active torsions:
REMARK  status: ('A' for Active; 'I' for Inactive)
REMARK    1  A    between atoms: O_3  and  C_22
REMARK    2  A    between atoms: O_3  and  C_25
REMARK    3  A    between atoms: N_4  and  C_14
REMARK    4  A    between atoms: N_5  and  C_21
REMARK    5  A    between atoms: C_7  and  C_11
REMARK    6  A    between atoms: C_8  and  C_14
REMARK    7  A    between atoms: C_10  and  C_15
REMARK    8  A    between atoms: C_11  and  C_16
REMARK    9  A    between atoms: C_11  and  C_17
REMARK   10  A    between atoms: C_12  and  C_18
REMARK   11  A    between atoms: C_15  and  C_19
REMARK   12  A    between atoms: C_20  and  C_22
REMARK   13  A    between atoms: C_21  and  C_23
REMARK                            x       y       z     vdW  Elec       q    Type
REMARK                         _______ _______ _______ _____ _____    ______ ____
ROOT
ATOM      7  C   UNL     1      -3.532   2.632  25.280  0.00  0.00    +0.000 C 
ATOM      8  C   UNL     1      -4.236   1.525  24.457  0.00  0.00    +0.032 C 
ATOM      9  C   UNL     1      -2.988   3.727  24.349  0.00  0.00    +0.012 C 
ATOM     10  C   UNL     1      -1.987   3.173  23.318  0.00  0.00    +0.023 C 
ATOM     12  C   UNL     1      -2.505   1.914  22.652  0.00  0.00    -0.073 C 
ATOM     13  C   UNL     1      -3.520   1.199  23.168  0.00  0.00    -0.022 C 
ATOM     18  C   UNL     1      -1.859   1.521  21.353  0.00  0.00    +0.039 C 
ENDROOT
BRANCH   7  11
ATOM     11  C   UNL     1      -4.469   3.253  26.319  0.00  0.00    -0.013 C 
ATOM     16  C   UNL     1      -3.744   4.338  27.110  0.00  0.00    +0.007 C 
ATOM     17  C   UNL     1      -5.715   3.817  25.643  0.00  0.00    +0.007 C 
ENDBRANCH   7  11
BRANCH   8  14
ATOM     14  C   UNL     1      -4.407   0.246  25.285  0.00  0.00    +0.112 C 
BRANCH  14   4
ATOM      2  O   UNL     1      -4.375  -2.311  23.933  0.00  0.00    -0.273 OA
ATOM      4  N   UNL     1      -3.287  -0.625  25.111  0.00  0.00    -0.313 N 
ATOM     20  C   UNL     1      -3.359  -1.847  24.443  0.00  0.00    +0.239 C 
ATOM     29  H   UNL     1      -2.380  -0.311  25.445  0.00  0.00    +0.149 HD
BRANCH  20  22
ATOM     22  C   UNL     1      -2.024  -2.559  24.406  0.00  0.00    +0.255 C 
BRANCH  22   3
ATOM      3  O   UNL     1      -1.234  -2.195  25.518  0.00  0.00    -0.374 OA
ATOM     25  C   UNL     1       0.141  -2.513  25.321  0.00  0.00    +0.194 C 
ENDBRANCH  22   3
ENDBRANCH  20  22
ENDBRANCH  14   4
ENDBRANCH   8  14
BRANCH  10  15
ATOM     15  C   UNL     1      -0.615   2.933  23.955  0.00  0.00    +0.103 C 
BRANCH  15  19
ATOM      1  O   UNL     1      -0.750   0.642  24.720  0.00  0.00    -0.276 OA
ATOM      5  N   UNL     1       0.741   1.196  23.025  0.00  0.00    -0.310 N 
ATOM     19  C   UNL     1      -0.241   1.468  23.967  0.00  0.00    +0.214 C 
ATOM     30  H   UNL     1       1.099   1.948  22.445  0.00  0.00    +0.149 HD
BRANCH   5  21
ATOM     21  C   UNL     1       1.290  -0.123  22.817  0.00  0.00    +0.159 C 
BRANCH  21  23
ATOM      6  N   UNL     1       3.255  -1.319  23.600  0.00  0.00    -0.258 NA
ATOM     23  C   UNL     1       2.767  -0.167  23.088  0.00  0.00    +0.058 A 
ATOM     24  C   UNL     1       3.541   0.947  22.808  0.00  0.00    +0.025 A 
ATOM     26  C   UNL     1       4.905   0.875  23.070  0.00  0.00    +0.003 A 
ATOM     27  C   UNL     1       4.585  -1.352  23.841  0.00  0.00    +0.111 A 
ATOM     28  C   UNL     1       5.444  -0.293  23.596  0.00  0.00    +0.020 A 
ENDBRANCH  21  23
ENDBRANCH   5  21
ENDBRANCH  15  19
ENDBRANCH  10  15
TORSDOF 9
ENDMDL
MODEL 6
REMARK VINA RESULT:      -2.0      2.540      6.309
REMARK  Name = 38028384
REMARK  13 active torsions:
REMARK  status: ('A' for Active; 'I' for Inactive)
REMARK    1  A    between atoms: O_3  and  C_22
REMARK    2  A    between atoms: O_3  and  C_25
REMARK    3  A    between atoms: N_4  and  C_14
REMARK    4  A    between atoms: N_5  and  C_21
REMARK    5  A    between atoms: C_7  and  C_11
REMARK    6  A    between atoms: C_8  and  C_14
REMARK    7  A    between atoms: C_10  and  C_15
REMARK    8  A    between atoms: C_11  and  C_16
REMARK    9  A    between atoms: C_11  and  C_17
REMARK   10  A    between atoms: C_12  and  C_18
REMARK   11  A    between atoms: C_15  and  C_19
REMARK   12  A    between atoms: C_20  and  C_22
REMARK   13  A    between atoms: C_21  and  C_23
REMARK                            x       y       z     vdW  Elec       q    Type
REMARK                         _______ _______ _______ _____ _____    ______ ____
ROOT
ATOM      7  C   UNL     1      -4.490   2.813  25.408  0.00  0.00    +0.000 C 
ATOM      8  C   UNL     1      -4.483   1.392  24.794  0.00  0.00    +0.032 C 
ATOM      9  C   UNL     1      -4.474   3.877  24.298  0.00  0.00    +0.012 C 
ATOM     10  C   UNL     1      -3.243   3.746  23.382  0.00  0.00    +0.023 C 
ATOM     12  C   UNL     1      -3.014   2.312  22.949  0.00  0.00    -0.073 C 
ATOM     13  C   UNL     1      -3.587   1.274  23.583  0.00  0.00    -0.022 C 
ATOM     18  C   UNL     1      -2.146   2.101  21.740  0.00  0.00    +0.039 C 
ENDROOT
BRANCH   7  11
ATOM     11  C   UNL     1      -5.699   3.034  26.321  0.00  0.00    -0.013 C 
ATOM     16  C   UNL     1      -6.414   4.331  25.954  0.00  0.00    +0.007 C 
ATOM     17  C   UNL     1      -6.654   1.847  26.234  0.00  0.00    +0.007 C 
ENDBRANCH   7  11
BRANCH   8  14
ATOM     14  C   UNL     1      -4.076   0.342  25.835  0.00  0.00    +0.112 C 
BRANCH  14   4
ATOM      2  O   UNL     1      -1.375  -0.690  25.795  0.00  0.00    -0.273 OA
ATOM      4  N   UNL     1      -3.618  -0.853  25.198  0.00  0.00    -0.313 N 
ATOM     20  C   UNL     1      -2.291  -1.280  25.228  0.00  0.00    +0.239 C 
ATOM     29  H   UNL     1      -4.306  -1.449  24.746  0.00  0.00    +0.149 HD
BRANCH  20  22
ATOM     22  C   UNL     1      -2.089  -2.577  24.474  0.00  0.00    +0.255 C 
BRANCH  22   3
ATOM      3  O   UNL     1      -3.294  -3.308  24.409  0.00  0.00    -0.374 OA
ATOM     25  C   UNL     1      -4.246  -2.690  23.547  0.00  0.00    +0.194 C 
ENDBRANCH  22   3
ENDBRANCH  20  22
ENDBRANCH  14   4
ENDBRANCH   8  14
BRANCH  10  15
ATOM     15  C   UNL     1      -1.993   4.324  24.052  0.00  0.00    +0.103 C 
BRANCH  15  19
ATOM      1  O   UNL     1      -1.547   3.019  26.040  0.00  0.00    -0.276 OA
ATOM      5  N   UNL     1      -0.236   2.705  24.148  0.00  0.00    -0.310 N 
ATOM     19  C   UNL     1      -1.260   3.290  24.877  0.00  0.00    +0.214 C 
ATOM     30  H   UNL     1      -0.076   2.996  23.187  0.00  0.00    +0.149 HD
BRANCH   5  21
ATOM     21  C   UNL     1       0.632   1.684  24.685  0.00  0.00    +0.159 C 
BRANCH  21  23
ATOM      6  N   UNL     1       2.747   1.394  23.525  0.00  0.00    -0.258 NA
ATOM     23  C   UNL     1       1.451   1.020  23.615  0.00  0.00    +0.058 A 
ATOM     24  C   UNL     1       0.855   0.080  22.791  0.00  0.00    +0.025 A 
ATOM     26  C   UNL     1       1.639  -0.516  21.810  0.00  0.00    +0.003 A 
ATOM     27  C   UNL     1       3.478   0.793  22.560  0.00  0.00    +0.111 A 
ATOM     28  C   UNL     1       2.977  -0.159  21.686  0.00  0.00    +0.020 A 
ENDBRANCH  21  23
ENDBRANCH   5  21
ENDBRANCH  15  19
ENDBRANCH  10  15
TORSDOF 9
ENDMDL
