MODEL 1
REMARK VINA RESULT:      -2.4      0.000      0.000
REMARK  Name = 7114631
REMARK  12 active torsions:
REMARK  status: ('A' for Active; 'I' for Inactive)
REMARK    1  A    between atoms: O_3  and  C_22
REMARK    2  A    between atoms: O_3  and  C_31
REMARK    3  A    between atoms: O_5  and  C_25
REMARK    4  A    between atoms: O_5  and  C_34
REMARK    5  A    between atoms: N_8  and  C_12
REMARK    6  A    between atoms: N_9  and  C_19
REMARK    7  A    between atoms: C_13  and  C_17
REMARK    8  A    between atoms: C_18  and  C_22
REMARK    9  A    between atoms: C_19  and  C_21
REMARK   10  A    between atoms: C_19  and  C_24
REMARK   11  A    between atoms: C_20  and  C_25
REMARK   12  A    between atoms: C_21  and  C_23
REMARK                            x       y       z     vdW  Elec       q    Type
REMARK                         _______ _______ _______ _____ _____    ______ ____
ROOT
ATOM      1  O   UNL     1      -3.182   1.140  22.941  0.00  0.00    -0.274 OA
ATOM      9  N   UNL     1      -3.723   1.768  25.115  0.00  0.00    -0.302 N 
ATOM     17  C   UNL     1      -3.039   1.871  23.916  0.00  0.00    +0.234 C 
ATOM     36  H   UNL     1      -3.478   2.391  25.879  0.00  0.00    +0.150 HD
ENDROOT
BRANCH  17  13
ATOM      2  O   UNL     1      -2.749   4.852  27.029  0.00  0.00    -0.273 OA
ATOM      7  N   UNL     1      -1.974   3.503  25.297  0.00  0.00    -0.288 N 
ATOM     12  C   UNL     1       0.143   1.797  24.231  0.00  0.00    +0.077 C 
ATOM     13  C   UNL     1      -2.078   3.025  23.908  0.00  0.00    +0.164 C 
ATOM     14  C   UNL     1      -0.727   2.645  23.298  0.00  0.00    +0.054 C 
ATOM     15  C   UNL     1       0.260   2.467  25.599  0.00  0.00    +0.041 C 
ATOM     16  C   UNL     1      -1.117   2.723  26.197  0.00  0.00    +0.110 C 
ATOM     18  C   UNL     1      -2.742   4.543  25.834  0.00  0.00    +0.242 C 
BRANCH  12   8
ATOM      4  O   UNL     1       1.038  -0.511  22.726  0.00  0.00    -0.273 OA
ATOM      8  N   UNL     1       1.449   1.581  23.658  0.00  0.00    -0.310 N 
ATOM     20  C   UNL     1       1.787   0.437  22.950  0.00  0.00    +0.239 C 
ATOM     35  H   UNL     1       2.133   2.330  23.732  0.00  0.00    +0.149 HD
BRANCH  20  25
ATOM     25  C   UNL     1       3.220   0.480  22.465  0.00  0.00    +0.255 C 
BRANCH  25   5
ATOM      5  O   UNL     1       4.081   0.919  23.494  0.00  0.00    -0.374 OA
ATOM     34  C   UNL     1       5.305   0.192  23.510  0.00  0.00    +0.194 C 
ENDBRANCH  25   5
ENDBRANCH  20  25
ENDBRANCH  12   8
BRANCH  18  22
ATOM     22  C   UNL     1      -3.598   5.325  24.869  0.00  0.00    +0.255 C 
BRANCH  22   3
ATOM      3  O   UNL     1      -4.762   4.563  24.658  0.00  0.00    -0.374 OA
ATOM     31  C   UNL     1      -5.843   4.998  25.480  0.00  0.00    +0.194 C 
ENDBRANCH  22   3
ENDBRANCH  18  22
ENDBRANCH  17  13
BRANCH   9  19
ATOM     19  C   UNL     1      -4.722   0.755  25.370  0.00  0.00    +0.163 C 
BRANCH  19  24
ATOM      6  O   UNL     1      -6.273   1.890  26.858  0.00  0.00    -0.274 OA
ATOM     11  N   UNL     1      -6.837   1.670  24.642  0.00  0.00    -0.328 N 
ATOM     24  C   UNL     1      -6.011   1.479  25.729  0.00  0.00    +0.231 C 
ATOM     38  H   UNL     1      -7.724   2.152  24.741  0.00  0.00    +0.145 HD
ATOM     39  H   UNL     1      -6.598   1.345  23.711  0.00  0.00    +0.145 HD
ENDBRANCH  19  24
BRANCH  19  21
ATOM     21  C   UNL     1      -4.942  -0.161  24.159  0.00  0.00    +0.069 C 
BRANCH  21  23
ATOM     10  N   UNL     1      -3.357  -3.466  23.886  0.00  0.00    -0.360 N 
ATOM     23  C   UNL     1      -4.073  -1.386  24.181  0.00  0.00    -0.020 A 
ATOM     26  C   UNL     1      -2.765  -1.488  24.731  0.00  0.00    +0.003 A 
ATOM     27  C   UNL     1      -4.410  -2.618  23.669  0.00  0.00    +0.087 A 
ATOM     28  C   UNL     1      -2.338  -2.803  24.533  0.00  0.00    +0.047 A 
ATOM     29  C   UNL     1      -1.900  -0.586  25.381  0.00  0.00    +0.010 A 
ATOM     30  C   UNL     1      -1.084  -3.262  24.952  0.00  0.00    +0.026 A 
ATOM     32  C   UNL     1      -0.643  -1.030  25.806  0.00  0.00    +0.001 A 
ATOM     33  C   UNL     1      -0.243  -2.348  25.594  0.00  0.00    +0.002 A 
ATOM     37  H   UNL     1      -3.329  -4.439  23.611  0.00  0.00    +0.165 HD
ENDBRANCH  21  23
ENDBRANCH  19  21
ENDBRANCH   9  19
TORSDOF 10
ENDMDL
MODEL 2
REMARK VINA RESULT:      -0.7      2.186      5.195
REMARK  Name = 7114631
REMARK  12 active torsions:
REMARK  status: ('A' for Active; 'I' for Inactive)
REMARK    1  A    between atoms: O_3  and  C_22
REMARK    2  A    between atoms: O_3  and  C_31
REMARK    3  A    between atoms: O_5  and  C_25
REMARK    4  A    between atoms: O_5  and  C_34
REMARK    5  A    between atoms: N_8  and  C_12
REMARK    6  A    between atoms: N_9  and  C_19
REMARK    7  A    between atoms: C_13  and  C_17
REMARK    8  A    between atoms: C_18  and  C_22
REMARK    9  A    between atoms: C_19  and  C_21
REMARK   10  A    between atoms: C_19  and  C_24
REMARK   11  A    between atoms: C_20  and  C_25
REMARK   12  A    between atoms: C_21  and  C_23
REMARK                            x       y       z     vdW  Elec       q    Type
REMARK                         _______ _______ _______ _____ _____    ______ ____
ROOT
ATOM      1  O   UNL     1      -0.558   1.333  27.223  0.00  0.00    -0.274 OA
ATOM      9  N   UNL     1      -0.981   2.377  25.187  0.00  0.00    -0.302 N 
ATOM     17  C   UNL     1      -0.759   1.289  26.013  0.00  0.00    +0.234 C 
ATOM     36  H   UNL     1      -1.076   2.227  24.187  0.00  0.00    +0.150 HD
ENDROOT
BRANCH  17  13
ATOM      2  O   UNL     1      -4.066   0.004  23.549  0.00  0.00    -0.273 OA
ATOM      7  N   UNL     1      -1.841   0.138  24.223  0.00  0.00    -0.288 N 
ATOM     12  C   UNL     1       0.971   0.392  23.478  0.00  0.00    +0.077 C 
ATOM     13  C   UNL     1      -0.814  -0.012  25.266  0.00  0.00    +0.164 C 
ATOM     14  C   UNL     1       0.555  -0.415  24.712  0.00  0.00    +0.054 C 
ATOM     15  C   UNL     1      -0.142   0.368  22.431  0.00  0.00    +0.041 C 
ATOM     16  C   UNL     1      -1.451   0.878  23.017  0.00  0.00    +0.110 C 
ATOM     18  C   UNL     1      -3.180  -0.244  24.372  0.00  0.00    +0.242 C 
BRANCH  12   8
ATOM      4  O   UNL     1       3.434   1.852  23.042  0.00  0.00    -0.273 OA
ATOM      8  N   UNL     1       2.201  -0.117  22.923  0.00  0.00    -0.310 N 
ATOM     20  C   UNL     1       3.336   0.663  22.752  0.00  0.00    +0.239 C 
ATOM     35  H   UNL     1       2.251  -1.108  22.702  0.00  0.00    +0.149 HD
BRANCH  20  25
ATOM     25  C   UNL     1       4.476  -0.131  22.151  0.00  0.00    +0.255 C 
BRANCH  25   5
ATOM      5  O   UNL     1       5.630  -0.033  22.958  0.00  0.00    -0.374 OA
ATOM     34  C   UNL     1       5.453  -0.669  24.220  0.00  0.00    +0.194 C 
ENDBRANCH  25   5
ENDBRANCH  20  25
ENDBRANCH  12   8
BRANCH  18  22
ATOM     22  C   UNL     1      -3.533  -1.014  25.620  0.00  0.00    +0.255 C 
BRANCH  22   3
ATOM      3  O   UNL     1      -3.123  -2.342  25.402  0.00  0.00    -0.374 OA
ATOM     31  C   UNL     1      -3.772  -2.922  24.272  0.00  0.00    +0.194 C 
ENDBRANCH  22   3
ENDBRANCH  18  22
ENDBRANCH  17  13
BRANCH   9  19
ATOM     19  C   UNL     1      -1.004   3.741  25.666  0.00  0.00    +0.163 C 
BRANCH  19  24
ATOM      6  O   UNL     1      -0.455   5.838  24.567  0.00  0.00    -0.274 OA
ATOM     11  N   UNL     1       0.234   3.874  23.594  0.00  0.00    -0.328 N 
ATOM     24  C   UNL     1      -0.409   4.610  24.568  0.00  0.00    +0.231 C 
ATOM     38  H   UNL     1       0.686   4.333  22.810  0.00  0.00    +0.145 HD
ATOM     39  H   UNL     1       0.283   2.861  23.619  0.00  0.00    +0.145 HD
ENDBRANCH  19  24
BRANCH  19  21
ATOM     21  C   UNL     1      -2.422   4.212  26.011  0.00  0.00    +0.069 C 
BRANCH  21  23
ATOM     10  N   UNL     1      -4.603   3.025  23.300  0.00  0.00    -0.360 N 
ATOM     23  C   UNL     1      -3.474   3.620  25.116  0.00  0.00    -0.020 A 
ATOM     26  C   UNL     1      -4.635   2.907  25.528  0.00  0.00    +0.003 A 
ATOM     27  C   UNL     1      -3.483   3.677  23.741  0.00  0.00    +0.087 A 
ATOM     28  C   UNL     1      -5.326   2.544  24.369  0.00  0.00    +0.047 A 
ATOM     29  C   UNL     1      -5.165   2.533  26.778  0.00  0.00    +0.010 A 
ATOM     30  C   UNL     1      -6.525   1.823  24.399  0.00  0.00    +0.026 A 
ATOM     32  C   UNL     1      -6.363   1.812  26.824  0.00  0.00    +0.001 A 
ATOM     33  C   UNL     1      -7.031   1.464  25.651  0.00  0.00    +0.002 A 
ATOM     37  H   UNL     1      -4.864   2.912  22.330  0.00  0.00    +0.165 HD
ENDBRANCH  21  23
ENDBRANCH  19  21
ENDBRANCH   9  19
TORSDOF 10
ENDMDL
MODEL 3
REMARK VINA RESULT:       1.4      1.912      4.747
REMARK  Name = 7114631
REMARK  12 active torsions:
REMARK  status: ('A' for Active; 'I' for Inactive)
REMARK    1  A    between atoms: O_3  and  C_22
REMARK    2  A    between atoms: O_3  and  C_31
REMARK    3  A    between atoms: O_5  and  C_25
REMARK    4  A    between atoms: O_5  and  C_34
REMARK    5  A    between atoms: N_8  and  C_12
REMARK    6  A    between atoms: N_9  and  C_19
REMARK    7  A    between atoms: C_13  and  C_17
REMARK    8  A    between atoms: C_18  and  C_22
REMARK    9  A    between atoms: C_19  and  C_21
REMARK   10  A    between atoms: C_19  and  C_24
REMARK   11  A    between atoms: C_20  and  C_25
REMARK   12  A    between atoms: C_21  and  C_23
REMARK                            x       y       z     vdW  Elec       q    Type
REMARK                         _______ _______ _______ _____ _____    ______ ____
ROOT
ATOM      1  O   UNL     1      -2.251   1.422  22.800  0.00  0.00    -0.274 OA
ATOM      9  N   UNL     1      -3.371   1.651  24.827  0.00  0.00    -0.302 N 
ATOM     17  C   UNL     1      -2.391   1.149  23.988  0.00  0.00    +0.234 C 
ATOM     36  H   UNL     1      -3.430   1.306  25.780  0.00  0.00    +0.150 HD
ENDROOT
BRANCH  17  13
ATOM      2  O   UNL     1      -2.671  -3.161  23.890  0.00  0.00    -0.273 OA
ATOM      7  N   UNL     1      -1.597  -1.103  24.059  0.00  0.00    -0.288 N 
ATOM     12  C   UNL     1       0.692   0.572  23.361  0.00  0.00    +0.077 C 
ATOM     13  C   UNL     1      -1.457   0.214  24.702  0.00  0.00    +0.164 C 
ATOM     14  C   UNL     1      -0.018   0.734  24.709  0.00  0.00    +0.054 C 
ATOM     15  C   UNL     1       0.565  -0.868  22.866  0.00  0.00    +0.041 C 
ATOM     16  C   UNL     1      -0.896  -1.287  22.783  0.00  0.00    +0.110 C 
ATOM     18  C   UNL     1      -2.458  -2.112  24.505  0.00  0.00    +0.242 C 
BRANCH  12   8
ATOM      4  O   UNL     1       2.817  -0.023  21.484  0.00  0.00    -0.273 OA
ATOM      8  N   UNL     1       2.079   0.955  23.462  0.00  0.00    -0.310 N 
ATOM     20  C   UNL     1       3.029   0.622  22.508  0.00  0.00    +0.239 C 
ATOM     35  H   UNL     1       2.355   1.545  24.243  0.00  0.00    +0.149 HD
BRANCH  20  25
ATOM     25  C   UNL     1       4.399   1.155  22.871  0.00  0.00    +0.255 C 
BRANCH  25   5
ATOM      5  O   UNL     1       5.331   0.101  22.975  0.00  0.00    -0.374 OA
ATOM     34  C   UNL     1       5.413  -0.408  24.303  0.00  0.00    +0.194 C 
ENDBRANCH  25   5
ENDBRANCH  20  25
ENDBRANCH  12   8
BRANCH  18  22
ATOM     22  C   UNL     1      -3.147  -1.884  25.827  0.00  0.00    +0.255 C 
BRANCH  22   3
ATOM      3  O   UNL     1      -4.311  -1.144  25.550  0.00  0.00    -0.374 OA
ATOM     31  C   UNL     1      -4.782  -1.365  24.222  0.00  0.00    +0.194 C 
ENDBRANCH  22   3
ENDBRANCH  18  22
ENDBRANCH  17  13
BRANCH   9  19
ATOM     19  C   UNL     1      -4.380   2.589  24.389  0.00  0.00    +0.163 C 
BRANCH  19  24
ATOM      6  O   UNL     1      -6.513   1.446  24.613  0.00  0.00    -0.274 OA
ATOM     11  N   UNL     1      -5.793   2.779  26.341  0.00  0.00    -0.328 N 
ATOM     24  C   UNL     1      -5.677   2.211  25.089  0.00  0.00    +0.231 C 
ATOM     38  H   UNL     1      -6.606   2.597  26.921  0.00  0.00    +0.145 HD
ATOM     39  H   UNL     1      -5.084   3.390  26.730  0.00  0.00    +0.145 HD
ENDBRANCH  19  24
BRANCH  19  21
ATOM     21  C   UNL     1      -4.002   4.041  24.711  0.00  0.00    +0.069 C 
BRANCH  21  23
ATOM     10  N   UNL     1      -0.479   4.997  24.278  0.00  0.00    -0.360 N 
ATOM     23  C   UNL     1      -2.517   4.265  24.763  0.00  0.00    -0.020 A 
ATOM     26  C   UNL     1      -1.607   3.706  25.704  0.00  0.00    +0.003 A 
ATOM     27  C   UNL     1      -1.794   5.054  23.899  0.00  0.00    +0.087 A 
ATOM     28  C   UNL     1      -0.336   4.181  25.377  0.00  0.00    +0.047 A 
ATOM     29  C   UNL     1      -1.744   2.838  26.806  0.00  0.00    +0.010 A 
ATOM     30  C   UNL     1       0.811   3.832  26.100  0.00  0.00    +0.026 A 
ATOM     32  C   UNL     1      -0.607   2.480  27.538  0.00  0.00    +0.001 A 
ATOM     33  C   UNL     1       0.650   2.970  27.188  0.00  0.00    +0.002 A 
ATOM     37  H   UNL     1       0.279   5.484  23.817  0.00  0.00    +0.165 HD
ENDBRANCH  21  23
ENDBRANCH  19  21
ENDBRANCH   9  19
TORSDOF 10
ENDMDL
