MODEL 1
REMARK VINA RESULT:       1.7      0.000      0.000
REMARK  Name = 75536393
REMARK  10 active torsions:
REMARK  status: ('A' for Active; 'I' for Inactive)
REMARK    1  A    between atoms: O_2  and  C_11
REMARK    2  A    between atoms: O_5  and  C_27
REMARK    3  A    between atoms: O_5  and  C_33
REMARK    4  A    between atoms: N_6  and  C_15
REMARK    5  A    between atoms: N_8  and  C_21
REMARK    6  A    between atoms: C_9  and  C_14
REMARK    7  A    between atoms: C_10  and  C_15
REMARK    8  A    between atoms: C_14  and  C_16
REMARK    9  A    between atoms: C_19  and  C_20
REMARK   10  A    between atoms: C_21  and  C_24
REMARK                            x       y       z     vdW  Elec       q    Type
REMARK                         _______ _______ _______ _____ _____    ______ ____
ROOT
ATOM      1  O   UNL     1      -4.440   1.833  24.003  0.00  0.00    -0.369 OA
ATOM      9  C   UNL     1      -4.010   0.853  24.953  0.00  0.00    +0.125 C 
ATOM     10  C   UNL     1      -5.178   2.932  24.553  0.00  0.00    +0.164 C 
ATOM     11  C   UNL     1      -6.396   2.445  25.350  0.00  0.00    +0.145 C 
ATOM     12  C   UNL     1      -5.208   0.254  25.688  0.00  0.00    +0.034 C 
ATOM     13  C   UNL     1      -6.035   1.351  26.352  0.00  0.00    +0.036 C 
ENDROOT
BRANCH  11   2
ATOM      2  O   UNL     1      -7.355   1.903  24.439  0.00  0.00    -0.389 OA
ATOM     34  H   UNL     1      -7.323   2.435  23.627  0.00  0.00    +0.210 HD
ENDBRANCH  11   2
BRANCH   9  14
ATOM     14  C   UNL     1      -3.250  -0.224  24.188  0.00  0.00    +0.090 C 
BRANCH  14  16
ATOM      3  O   UNL     1      -0.241   1.519  23.240  0.00  0.00    -0.354 OA
ATOM      7  N   UNL     1      -1.614   1.460  23.448  0.00  0.00    -0.083 NA
ATOM     16  C   UNL     1      -1.846   0.211  23.860  0.00  0.00    +0.087 A 
ATOM     17  C   UNL     1      -0.671  -0.557  23.930  0.00  0.00    +0.076 A 
ATOM     19  C   UNL     1       0.309   0.313  23.530  0.00  0.00    +0.167 A 
BRANCH  19  20
ATOM     20  C   UNL     1       1.731   0.221  23.363  0.00  0.00    +0.020 A 
ATOM     22  C   UNL     1       2.385  -0.988  23.595  0.00  0.00    +0.015 A 
ATOM     23  C   UNL     1       2.460   1.344  22.968  0.00  0.00    +0.015 A 
ATOM     25  C   UNL     1       3.767  -1.076  23.434  0.00  0.00    +0.046 A 
ATOM     26  C   UNL     1       3.842   1.256  22.807  0.00  0.00    +0.046 A 
ATOM     27  C   UNL     1       4.496   0.046  23.039  0.00  0.00    +0.120 A 
BRANCH  27   5
ATOM      5  O   UNL     1       5.845  -0.039  22.884  0.00  0.00    -0.495 OA
ATOM     33  C   UNL     1       6.583  -0.659  23.937  0.00  0.00    +0.277 C 
ENDBRANCH  27   5
ENDBRANCH  19  20
ENDBRANCH  14  16
ENDBRANCH   9  14
BRANCH  10  15
ATOM     15  C   UNL     1      -4.268   3.856  25.360  0.00  0.00    +0.140 C 
BRANCH  15   6
ATOM      4  O   UNL     1      -1.508   4.629  25.138  0.00  0.00    -0.253 OA
ATOM      6  N   UNL     1      -3.136   3.145  25.870  0.00  0.00    -0.297 N 
ATOM      8  N   UNL     1      -0.908   2.715  26.307  0.00  0.00    -0.295 N 
ATOM     18  C   UNL     1      -1.818   3.590  25.719  0.00  0.00    +0.300 C 
ATOM     35  H   UNL     1      -3.296   2.265  26.351  0.00  0.00    +0.150 HD
ATOM     36  H   UNL     1      -1.274   1.882  26.760  0.00  0.00    +0.151 HD
BRANCH   8  21
ATOM     21  C   UNL     1       0.519   2.934  26.297  0.00  0.00    +0.141 C 
BRANCH  21  24
ATOM     24  C   UNL     1       1.123   2.768  27.662  0.00  0.00    -0.030 A 
ATOM     28  C   UNL     1       0.323   2.382  28.737  0.00  0.00    +0.005 A 
ATOM     29  C   UNL     1       2.485   2.999  27.854  0.00  0.00    +0.005 A 
ATOM     30  C   UNL     1       0.884   2.226  30.004  0.00  0.00    +0.000 A 
ATOM     31  C   UNL     1       3.047   2.843  29.122  0.00  0.00    +0.000 A 
ATOM     32  C   UNL     1       2.246   2.457  30.197  0.00  0.00    +0.000 A 
ENDBRANCH  21  24
ENDBRANCH   8  21
ENDBRANCH  15   6
ENDBRANCH  10  15
TORSDOF 9
ENDMDL
MODEL 2
REMARK VINA RESULT:       1.9      2.433      3.735
REMARK  Name = 75536393
REMARK  10 active torsions:
REMARK  status: ('A' for Active; 'I' for Inactive)
REMARK    1  A    between atoms: O_2  and  C_11
REMARK    2  A    between atoms: O_5  and  C_27
REMARK    3  A    between atoms: O_5  and  C_33
REMARK    4  A    between atoms: N_6  and  C_15
REMARK    5  A    between atoms: N_8  and  C_21
REMARK    6  A    between atoms: C_9  and  C_14
REMARK    7  A    between atoms: C_10  and  C_15
REMARK    8  A    between atoms: C_14  and  C_16
REMARK    9  A    between atoms: C_19  and  C_20
REMARK   10  A    between atoms: C_21  and  C_24
REMARK                            x       y       z     vdW  Elec       q    Type
REMARK                         _______ _______ _______ _____ _____    ______ ____
ROOT
ATOM      1  O   UNL     1      -3.384  -0.322  23.229  0.00  0.00    -0.369 OA
ATOM      9  C   UNL     1      -2.646   0.598  24.038  0.00  0.00    +0.125 C 
ATOM     10  C   UNL     1      -4.296  -1.167  23.943  0.00  0.00    +0.164 C 
ATOM     11  C   UNL     1      -3.582  -1.946  25.056  0.00  0.00    +0.145 C 
ATOM     12  C   UNL     1      -1.824  -0.147  25.088  0.00  0.00    +0.034 C 
ATOM     13  C   UNL     1      -2.721  -1.044  25.937  0.00  0.00    +0.036 C 
ENDROOT
BRANCH  11   2
ATOM      2  O   UNL     1      -2.722  -2.920  24.457  0.00  0.00    -0.389 OA
ATOM     34  H   UNL     1      -2.301  -3.421  25.175  0.00  0.00    +0.210 HD
ENDBRANCH  11   2
BRANCH   9  14
ATOM     14  C   UNL     1      -1.742   1.400  23.110  0.00  0.00    +0.090 C 
BRANCH  14  16
ATOM      3  O   UNL     1       1.115  -0.633  22.273  0.00  0.00    -0.354 OA
ATOM      7  N   UNL     1      -0.233  -0.307  22.178  0.00  0.00    -0.083 NA
ATOM     16  C   UNL     1      -0.386   0.761  22.965  0.00  0.00    +0.087 A 
ATOM     17  C   UNL     1       0.818   1.152  23.576  0.00  0.00    +0.076 A 
ATOM     19  C   UNL     1       1.730   0.243  23.108  0.00  0.00    +0.167 A 
BRANCH  19  20
ATOM     20  C   UNL     1       3.135   0.032  23.304  0.00  0.00    +0.020 A 
ATOM     22  C   UNL     1       3.603  -1.212  23.726  0.00  0.00    +0.015 A 
ATOM     23  C   UNL     1       4.035   1.074  23.072  0.00  0.00    +0.015 A 
ATOM     25  C   UNL     1       4.969  -1.415  23.918  0.00  0.00    +0.046 A 
ATOM     26  C   UNL     1       5.401   0.870  23.264  0.00  0.00    +0.046 A 
ATOM     27  C   UNL     1       5.869  -0.374  23.687  0.00  0.00    +0.120 A 
BRANCH  27   5
ATOM      5  O   UNL     1       7.201  -0.573  23.876  0.00  0.00    -0.495 OA
ATOM     33  C   UNL     1       8.023  -0.625  22.710  0.00  0.00    +0.277 C 
ENDBRANCH  27   5
ENDBRANCH  19  20
ENDBRANCH  14  16
ENDBRANCH   9  14
BRANCH  10  15
ATOM     15  C   UNL     1      -5.499  -0.373  24.449  0.00  0.00    +0.140 C 
BRANCH  15   6
ATOM      4  O   UNL     1      -4.956   2.420  24.036  0.00  0.00    -0.253 OA
ATOM      6  N   UNL     1      -5.106   0.579  25.443  0.00  0.00    -0.297 N 
ATOM      8  N   UNL     1      -4.492   2.634  26.301  0.00  0.00    -0.295 N 
ATOM     18  C   UNL     1      -4.859   1.927  25.159  0.00  0.00    +0.300 C 
ATOM     35  H   UNL     1      -4.984   0.256  26.398  0.00  0.00    +0.150 HD
ATOM     36  H   UNL     1      -4.441   2.126  27.179  0.00  0.00    +0.151 HD
BRANCH   8  21
ATOM     21  C   UNL     1      -4.182   4.044  26.291  0.00  0.00    +0.141 C 
BRANCH  21  24
ATOM     24  C   UNL     1      -2.788   4.310  25.799  0.00  0.00    -0.030 A 
ATOM     28  C   UNL     1      -2.508   5.479  25.092  0.00  0.00    +0.005 A 
ATOM     29  C   UNL     1      -1.773   3.386  26.049  0.00  0.00    +0.005 A 
ATOM     30  C   UNL     1      -1.213   5.726  24.636  0.00  0.00    +0.000 A 
ATOM     31  C   UNL     1      -0.477   3.632  25.593  0.00  0.00    +0.000 A 
ATOM     32  C   UNL     1      -0.198   4.802  24.886  0.00  0.00    +0.000 A 
ENDBRANCH  21  24
ENDBRANCH   8  21
ENDBRANCH  15   6
ENDBRANCH  10  15
TORSDOF 9
ENDMDL
MODEL 3
REMARK VINA RESULT:       3.7      2.512      4.687
REMARK  Name = 75536393
REMARK  10 active torsions:
REMARK  status: ('A' for Active; 'I' for Inactive)
REMARK    1  A    between atoms: O_2  and  C_11
REMARK    2  A    between atoms: O_5  and  C_27
REMARK    3  A    between atoms: O_5  and  C_33
REMARK    4  A    between atoms: N_6  and  C_15
REMARK    5  A    between atoms: N_8  and  C_21
REMARK    6  A    between atoms: C_9  and  C_14
REMARK    7  A    between atoms: C_10  and  C_15
REMARK    8  A    between atoms: C_14  and  C_16
REMARK    9  A    between atoms: C_19  and  C_20
REMARK   10  A    between atoms: C_21  and  C_24
REMARK                            x       y       z     vdW  Elec       q    Type
REMARK                         _______ _______ _______ _____ _____    ______ ____
ROOT
ATOM      1  O   UNL     1      -1.002   3.119  24.300  0.00  0.00    -0.369 OA
ATOM      9  C   UNL     1      -2.032   2.186  23.959  0.00  0.00    +0.125 C 
ATOM     10  C   UNL     1      -1.130   3.720  25.595  0.00  0.00    +0.164 C 
ATOM     11  C   UNL     1      -2.493   4.403  25.763  0.00  0.00    +0.145 C 
ATOM     12  C   UNL     1      -3.402   2.859  23.998  0.00  0.00    +0.034 C 
ATOM     13  C   UNL     1      -3.652   3.492  25.364  0.00  0.00    +0.036 C 
ENDROOT
BRANCH  11   2
ATOM      2  O   UNL     1      -2.537   5.558  24.922  0.00  0.00    -0.389 OA
ATOM     34  H   UNL     1      -2.617   6.337  25.497  0.00  0.00    +0.210 HD
ENDBRANCH  11   2
BRANCH   9  14
ATOM     14  C   UNL     1      -1.726   1.659  22.562  0.00  0.00    +0.090 C 
BRANCH  14  16
ATOM      3  O   UNL     1       1.083  -0.507  21.922  0.00  0.00    -0.354 OA
ATOM      7  N   UNL     1      -0.239  -0.120  21.736  0.00  0.00    -0.083 NA
ATOM     16  C   UNL     1      -0.395   0.958  22.509  0.00  0.00    +0.087 A 
ATOM     17  C   UNL     1       0.782   1.295  23.200  0.00  0.00    +0.076 A 
ATOM     19  C   UNL     1       1.680   0.343  22.796  0.00  0.00    +0.167 A 
BRANCH  19  20
ATOM     20  C   UNL     1       3.058   0.069  23.087  0.00  0.00    +0.020 A 
ATOM     22  C   UNL     1       3.443  -1.206  23.501  0.00  0.00    +0.015 A 
ATOM     23  C   UNL     1       4.012   1.078  22.956  0.00  0.00    +0.015 A 
ATOM     25  C   UNL     1       4.783  -1.471  23.786  0.00  0.00    +0.046 A 
ATOM     26  C   UNL     1       5.351   0.812  23.240  0.00  0.00    +0.046 A 
ATOM     27  C   UNL     1       5.737  -0.462  23.654  0.00  0.00    +0.120 A 
BRANCH  27   5
ATOM      5  O   UNL     1       7.043  -0.721  23.934  0.00  0.00    -0.495 OA
ATOM     33  C   UNL     1       7.978  -0.569  22.866  0.00  0.00    +0.277 C 
ENDBRANCH  27   5
ENDBRANCH  19  20
ENDBRANCH  14  16
ENDBRANCH   9  14
BRANCH  10  15
ATOM     15  C   UNL     1      -0.827   2.711  26.702  0.00  0.00    +0.140 C 
BRANCH  15   6
ATOM      4  O   UNL     1      -2.144   0.159  26.563  0.00  0.00    -0.253 OA
ATOM      6  N   UNL     1      -0.291   1.500  26.160  0.00  0.00    -0.297 N 
ATOM      8  N   UNL     1      -0.250  -0.728  25.553  0.00  0.00    -0.295 N 
ATOM     18  C   UNL     1      -0.999   0.293  26.130  0.00  0.00    +0.300 C 
ATOM     35  H   UNL     1       0.657   1.513  25.795  0.00  0.00    +0.150 HD
ATOM     36  H   UNL     1       0.688  -0.508  25.231  0.00  0.00    +0.151 HD
BRANCH   8  21
ATOM     21  C   UNL     1      -0.742  -2.077  25.396  0.00  0.00    +0.141 C 
BRANCH  21  24
ATOM     24  C   UNL     1      -2.109  -2.109  24.777  0.00  0.00    -0.030 A 
ATOM     28  C   UNL     1      -2.755  -3.328  24.569  0.00  0.00    +0.005 A 
ATOM     29  C   UNL     1      -2.735  -0.918  24.409  0.00  0.00    +0.005 A 
ATOM     30  C   UNL     1      -4.025  -3.357  23.995  0.00  0.00    +0.000 A 
ATOM     31  C   UNL     1      -4.007  -0.945  23.834  0.00  0.00    +0.000 A 
ATOM     32  C   UNL     1      -4.651  -2.165  23.627  0.00  0.00    +0.000 A 
ENDBRANCH  21  24
ENDBRANCH   8  21
ENDBRANCH  15   6
ENDBRANCH  10  15
TORSDOF 9
ENDMDL
MODEL 4
REMARK VINA RESULT:       4.3      2.385      3.983
REMARK  Name = 75536393
REMARK  10 active torsions:
REMARK  status: ('A' for Active; 'I' for Inactive)
REMARK    1  A    between atoms: O_2  and  C_11
REMARK    2  A    between atoms: O_5  and  C_27
REMARK    3  A    between atoms: O_5  and  C_33
REMARK    4  A    between atoms: N_6  and  C_15
REMARK    5  A    between atoms: N_8  and  C_21
REMARK    6  A    between atoms: C_9  and  C_14
REMARK    7  A    between atoms: C_10  and  C_15
REMARK    8  A    between atoms: C_14  and  C_16
REMARK    9  A    between atoms: C_19  and  C_20
REMARK   10  A    between atoms: C_21  and  C_24
REMARK                            x       y       z     vdW  Elec       q    Type
REMARK                         _______ _______ _______ _____ _____    ______ ____
ROOT
ATOM      1  O   UNL     1      -4.452   2.735  26.007  0.00  0.00    -0.369 OA
ATOM      9  C   UNL     1      -3.353   3.131  25.180  0.00  0.00    +0.125 C 
ATOM     10  C   UNL     1      -5.751   3.008  25.466  0.00  0.00    +0.164 C 
ATOM     11  C   UNL     1      -5.908   4.492  25.110  0.00  0.00    +0.145 C 
ATOM     12  C   UNL     1      -3.405   4.631  24.898  0.00  0.00    +0.034 C 
ATOM     13  C   UNL     1      -4.743   5.015  24.272  0.00  0.00    +0.036 C 
ENDROOT
BRANCH  11   2
ATOM      2  O   UNL     1      -5.952   5.254  26.319  0.00  0.00    -0.389 OA
ATOM     34  H   UNL     1      -5.420   6.056  26.180  0.00  0.00    +0.210 HD
ENDBRANCH  11   2
BRANCH   9  14
ATOM     14  C   UNL     1      -2.071   2.762  25.916  0.00  0.00    +0.090 C 
BRANCH  14  16
ATOM      3  O   UNL     1      -0.328   1.017  23.287  0.00  0.00    -0.354 OA
ATOM      7  N   UNL     1      -1.486   1.502  23.884  0.00  0.00    -0.083 NA
ATOM     16  C   UNL     1      -1.071   2.108  25.000  0.00  0.00    +0.087 A 
ATOM     17  C   UNL     1       0.324   2.038  25.159  0.00  0.00    +0.076 A 
ATOM     19  C   UNL     1       0.742   1.342  24.056  0.00  0.00    +0.167 A 
BRANCH  19  20
ATOM     20  C   UNL     1       2.017   0.907  23.562  0.00  0.00    +0.020 A 
ATOM     22  C   UNL     1       2.320  -0.454  23.519  0.00  0.00    +0.015 A 
ATOM     23  C   UNL     1       2.953   1.845  23.126  0.00  0.00    +0.015 A 
ATOM     25  C   UNL     1       3.560  -0.877  23.041  0.00  0.00    +0.046 A 
ATOM     26  C   UNL     1       4.193   1.421  22.648  0.00  0.00    +0.046 A 
ATOM     27  C   UNL     1       4.497   0.061  22.605  0.00  0.00    +0.120 A 
BRANCH  27   5
ATOM      5  O   UNL     1       5.707  -0.352  22.140  0.00  0.00    -0.495 OA
ATOM     33  C   UNL     1       6.776  -0.423  23.083  0.00  0.00    +0.277 C 
ENDBRANCH  27   5
ENDBRANCH  19  20
ENDBRANCH  14  16
ENDBRANCH   9  14
BRANCH  10  15
ATOM     15  C   UNL     1      -6.066   2.078  24.297  0.00  0.00    +0.140 C 
BRANCH  15   6
ATOM      4  O   UNL     1      -3.982   0.362  23.307  0.00  0.00    -0.253 OA
ATOM      6  N   UNL     1      -5.841   0.710  24.653  0.00  0.00    -0.297 N 
ATOM      8  N   UNL     1      -4.806  -1.355  24.635  0.00  0.00    -0.295 N 
ATOM     18  C   UNL     1      -4.800  -0.060  24.124  0.00  0.00    +0.300 C 
ATOM     35  H   UNL     1      -6.480   0.272  25.310  0.00  0.00    +0.150 HD
ATOM     36  H   UNL     1      -5.531  -1.599  25.304  0.00  0.00    +0.151 HD
BRANCH   8  21
ATOM     21  C   UNL     1      -3.839  -2.359  24.257  0.00  0.00    +0.141 C 
BRANCH  21  24
ATOM     24  C   UNL     1      -2.491  -2.098  24.865  0.00  0.00    -0.030 A 
ATOM     28  C   UNL     1      -2.371  -1.234  25.953  0.00  0.00    +0.005 A 
ATOM     29  C   UNL     1      -1.359  -2.721  24.341  0.00  0.00    +0.005 A 
ATOM     30  C   UNL     1      -1.119  -0.993  26.518  0.00  0.00    +0.000 A 
ATOM     31  C   UNL     1      -0.105  -2.481  24.906  0.00  0.00    +0.000 A 
ATOM     32  C   UNL     1       0.014  -1.616  25.994  0.00  0.00    +0.000 A 
ENDBRANCH  21  24
ENDBRANCH   8  21
ENDBRANCH  15   6
ENDBRANCH  10  15
TORSDOF 9
ENDMDL
MODEL 5
REMARK VINA RESULT:       4.7      2.564      4.844
REMARK  Name = 75536393
REMARK  10 active torsions:
REMARK  status: ('A' for Active; 'I' for Inactive)
REMARK    1  A    between atoms: O_2  and  C_11
REMARK    2  A    between atoms: O_5  and  C_27
REMARK    3  A    between atoms: O_5  and  C_33
REMARK    4  A    between atoms: N_6  and  C_15
REMARK    5  A    between atoms: N_8  and  C_21
REMARK    6  A    between atoms: C_9  and  C_14
REMARK    7  A    between atoms: C_10  and  C_15
REMARK    8  A    between atoms: C_14  and  C_16
REMARK    9  A    between atoms: C_19  and  C_20
REMARK   10  A    between atoms: C_21  and  C_24
REMARK                            x       y       z     vdW  Elec       q    Type
REMARK                         _______ _______ _______ _____ _____    ______ ____
ROOT
ATOM      1  O   UNL     1      -2.116   3.345  26.014  0.00  0.00    -0.369 OA
ATOM      9  C   UNL     1      -2.031   2.496  24.866  0.00  0.00    +0.125 C 
ATOM     10  C   UNL     1      -2.466   4.708  25.740  0.00  0.00    +0.164 C 
ATOM     11  C   UNL     1      -1.504   5.339  24.725  0.00  0.00    +0.145 C 
ATOM     12  C   UNL     1      -0.992   3.026  23.879  0.00  0.00    +0.034 C 
ATOM     13  C   UNL     1      -1.310   4.467  23.488  0.00  0.00    +0.036 C 
ENDROOT
BRANCH  11   2
ATOM      2  O   UNL     1      -0.226   5.507  25.345  0.00  0.00    -0.389 OA
ATOM     34  H   UNL     1       0.150   6.343  25.022  0.00  0.00    +0.210 HD
ENDBRANCH  11   2
BRANCH   9  14
ATOM     14  C   UNL     1      -1.652   1.103  25.354  0.00  0.00    +0.090 C 
BRANCH  14  16
ATOM      3  O   UNL     1       0.666  -0.664  23.234  0.00  0.00    -0.354 OA
ATOM      7  N   UNL     1      -0.614  -0.406  23.709  0.00  0.00    -0.083 NA
ATOM     16  C   UNL     1      -0.456   0.560  24.618  0.00  0.00    +0.087 A 
ATOM     17  C   UNL     1       0.888   0.948  24.758  0.00  0.00    +0.076 A 
ATOM     19  C   UNL     1       1.552   0.147  23.866  0.00  0.00    +0.167 A 
BRANCH  19  20
ATOM     20  C   UNL     1       2.923  -0.005  23.475  0.00  0.00    +0.020 A 
ATOM     22  C   UNL     1       3.543   0.980  22.706  0.00  0.00    +0.015 A 
ATOM     23  C   UNL     1       3.637  -1.138  23.863  0.00  0.00    +0.015 A 
ATOM     25  C   UNL     1       4.876   0.831  22.324  0.00  0.00    +0.046 A 
ATOM     26  C   UNL     1       4.971  -1.287  23.481  0.00  0.00    +0.046 A 
ATOM     27  C   UNL     1       5.590  -0.303  22.712  0.00  0.00    +0.120 A 
BRANCH  27   5
ATOM      5  O   UNL     1       6.890  -0.449  22.338  0.00  0.00    -0.495 OA
ATOM     33  C   UNL     1       7.883  -0.228  23.339  0.00  0.00    +0.277 C 
ENDBRANCH  27   5
ENDBRANCH  19  20
ENDBRANCH  14  16
ENDBRANCH   9  14
BRANCH  10  15
ATOM     15  C   UNL     1      -3.931   4.825  25.325  0.00  0.00    +0.140 C 
BRANCH  15   6
ATOM      4  O   UNL     1      -4.315   2.615  23.526  0.00  0.00    -0.253 OA
ATOM      6  N   UNL     1      -4.641   3.613  25.597  0.00  0.00    -0.297 N 
ATOM      8  N   UNL     1      -5.519   1.517  25.180  0.00  0.00    -0.295 N 
ATOM     18  C   UNL     1      -4.784   2.581  24.663  0.00  0.00    +0.300 C 
ATOM     35  H   UNL     1      -5.078   3.504  26.508  0.00  0.00    +0.150 HD
ATOM     36  H   UNL     1      -5.862   1.594  26.133  0.00  0.00    +0.151 HD
BRANCH   8  21
ATOM     21  C   UNL     1      -5.814   0.320  24.427  0.00  0.00    +0.141 C 
BRANCH  21  24
ATOM     24  C   UNL     1      -4.784  -0.750  24.645  0.00  0.00    -0.030 A 
ATOM     28  C   UNL     1      -4.044  -0.777  25.827  0.00  0.00    +0.005 A 
ATOM     29  C   UNL     1      -4.568  -1.719  23.665  0.00  0.00    +0.005 A 
ATOM     30  C   UNL     1      -3.088  -1.772  26.030  0.00  0.00    +0.000 A 
ATOM     31  C   UNL     1      -3.612  -2.715  23.867  0.00  0.00    +0.000 A 
ATOM     32  C   UNL     1      -2.872  -2.740  25.050  0.00  0.00    +0.000 A 
ENDBRANCH  21  24
ENDBRANCH   8  21
ENDBRANCH  15   6
ENDBRANCH  10  15
TORSDOF 9
ENDMDL
MODEL 6
REMARK VINA RESULT:       5.2      2.222      3.397
REMARK  Name = 75536393
REMARK  10 active torsions:
REMARK  status: ('A' for Active; 'I' for Inactive)
REMARK    1  A    between atoms: O_2  and  C_11
REMARK    2  A    between atoms: O_5  and  C_27
REMARK    3  A    between atoms: O_5  and  C_33
REMARK    4  A    between atoms: N_6  and  C_15
REMARK    5  A    between atoms: N_8  and  C_21
REMARK    6  A    between atoms: C_9  and  C_14
REMARK    7  A    between atoms: C_10  and  C_15
REMARK    8  A    between atoms: C_14  and  C_16
REMARK    9  A    between atoms: C_19  and  C_20
REMARK   10  A    between atoms: C_21  and  C_24
REMARK                            x       y       z     vdW  Elec       q    Type
REMARK                         _______ _______ _______ _____ _____    ______ ____
ROOT
ATOM      1  O   UNL     1      -3.919   4.244  23.831  0.00  0.00    -0.369 OA
ATOM      9  C   UNL     1      -3.771   2.852  24.127  0.00  0.00    +0.125 C 
ATOM     10  C   UNL     1      -4.111   5.092  24.970  0.00  0.00    +0.164 C 
ATOM     11  C   UNL     1      -5.308   4.634  25.814  0.00  0.00    +0.145 C 
ATOM     12  C   UNL     1      -5.000   2.325  24.866  0.00  0.00    +0.034 C 
ATOM     13  C   UNL     1      -5.259   3.141  26.129  0.00  0.00    +0.036 C 
ENDROOT
BRANCH  11   2
ATOM      2  O   UNL     1      -6.510   4.887  25.082  0.00  0.00    -0.389 OA
ATOM     34  H   UNL     1      -6.414   4.474  24.207  0.00  0.00    +0.210 HD
ENDBRANCH  11   2
BRANCH   9  14
ATOM     14  C   UNL     1      -3.579   2.120  22.804  0.00  0.00    +0.090 C 
BRANCH  14  16
ATOM      3  O   UNL     1      -0.900  -0.277  22.536  0.00  0.00    -0.354 OA
ATOM      7  N   UNL     1      -2.245   0.074  22.502  0.00  0.00    -0.083 NA
ATOM     16  C   UNL     1      -2.266   1.384  22.759  0.00  0.00    +0.087 A 
ATOM     17  C   UNL     1      -0.979   1.911  22.962  0.00  0.00    +0.076 A 
ATOM     19  C   UNL     1      -0.157   0.825  22.811  0.00  0.00    +0.167 A 
BRANCH  19  20
ATOM     20  C   UNL     1       1.261   0.617  22.877  0.00  0.00    +0.020 A 
ATOM     22  C   UNL     1       2.120   1.707  23.010  0.00  0.00    +0.015 A 
ATOM     23  C   UNL     1       1.780  -0.676  22.807  0.00  0.00    +0.015 A 
ATOM     25  C   UNL     1       3.499   1.505  23.072  0.00  0.00    +0.046 A 
ATOM     26  C   UNL     1       3.159  -0.878  22.869  0.00  0.00    +0.046 A 
ATOM     27  C   UNL     1       4.018   0.212  23.002  0.00  0.00    +0.120 A 
BRANCH  27   5
ATOM      5  O   UNL     1       5.363   0.015  23.061  0.00  0.00    -0.495 OA
ATOM     33  C   UNL     1       5.861  -0.744  24.162  0.00  0.00    +0.277 C 
ENDBRANCH  27   5
ENDBRANCH  19  20
ENDBRANCH  14  16
ENDBRANCH   9  14
BRANCH  10  15
ATOM     15  C   UNL     1      -2.824   5.221  25.782  0.00  0.00    +0.140 C 
BRANCH  15   6
ATOM      4  O   UNL     1      -2.349   2.873  27.372  0.00  0.00    -0.253 OA
ATOM      6  N   UNL     1      -1.919   4.154  25.483  0.00  0.00    -0.297 N 
ATOM      8  N   UNL     1      -0.806   2.153  25.792  0.00  0.00    -0.295 N 
ATOM     18  C   UNL     1      -1.744   3.040  26.313  0.00  0.00    +0.300 C 
ATOM     35  H   UNL     1      -1.363   4.216  24.635  0.00  0.00    +0.150 HD
ATOM     36  H   UNL     1      -0.364   2.391  24.909  0.00  0.00    +0.151 HD
BRANCH   8  21
ATOM     21  C   UNL     1      -0.436   0.920  26.448  0.00  0.00    +0.141 C 
BRANCH  21  24
ATOM     24  C   UNL     1      -1.238  -0.246  25.947  0.00  0.00    -0.030 A 
ATOM     28  C   UNL     1      -2.632  -0.192  25.957  0.00  0.00    +0.005 A 
ATOM     29  C   UNL     1      -0.589  -1.385  25.471  0.00  0.00    +0.005 A 
ATOM     30  C   UNL     1      -3.376  -1.275  25.491  0.00  0.00    +0.000 A 
ATOM     31  C   UNL     1      -1.333  -2.470  25.004  0.00  0.00    +0.000 A 
ATOM     32  C   UNL     1      -2.727  -2.414  25.015  0.00  0.00    +0.000 A 
ENDBRANCH  21  24
ENDBRANCH   8  21
ENDBRANCH  15   6
ENDBRANCH  10  15
TORSDOF 9
ENDMDL
MODEL 7
REMARK VINA RESULT:       5.4      2.968      8.448
REMARK  Name = 75536393
REMARK  10 active torsions:
REMARK  status: ('A' for Active; 'I' for Inactive)
REMARK    1  A    between atoms: O_2  and  C_11
REMARK    2  A    between atoms: O_5  and  C_27
REMARK    3  A    between atoms: O_5  and  C_33
REMARK    4  A    between atoms: N_6  and  C_15
REMARK    5  A    between atoms: N_8  and  C_21
REMARK    6  A    between atoms: C_9  and  C_14
REMARK    7  A    between atoms: C_10  and  C_15
REMARK    8  A    between atoms: C_14  and  C_16
REMARK    9  A    between atoms: C_19  and  C_20
REMARK   10  A    between atoms: C_21  and  C_24
REMARK                            x       y       z     vdW  Elec       q    Type
REMARK                         _______ _______ _______ _____ _____    ______ ____
ROOT
ATOM      1  O   UNL     1       3.242  -0.274  22.695  0.00  0.00    -0.369 OA
ATOM      9  C   UNL     1       3.265   0.791  23.649  0.00  0.00    +0.125 C 
ATOM     10  C   UNL     1       3.902  -1.477  23.108  0.00  0.00    +0.164 C 
ATOM     11  C   UNL     1       5.356  -1.207  23.514  0.00  0.00    +0.145 C 
ATOM     12  C   UNL     1       4.703   1.175  23.994  0.00  0.00    +0.034 C 
ATOM     13  C   UNL     1       5.479  -0.041  24.493  0.00  0.00    +0.036 C 
ENDROOT
BRANCH  11   2
ATOM      2  O   UNL     1       6.107  -0.874  22.343  0.00  0.00    -0.389 OA
ATOM     34  H   UNL     1       5.865   0.032  22.087  0.00  0.00    +0.210 HD
ENDBRANCH  11   2
BRANCH   9  14
ATOM     14  C   UNL     1       2.521   1.972  23.036  0.00  0.00    +0.090 C 
BRANCH  14  16
ATOM      3  O   UNL     1      -0.954   1.128  23.489  0.00  0.00    -0.354 OA
ATOM      7  N   UNL     1       0.340   0.832  23.077  0.00  0.00    -0.083 NA
ATOM     16  C   UNL     1       1.050   1.929  23.353  0.00  0.00    +0.087 A 
ATOM     17  C   UNL     1       0.266   2.940  23.935  0.00  0.00    +0.076 A 
ATOM     19  C   UNL     1      -0.985   2.386  23.998  0.00  0.00    +0.167 A 
BRANCH  19  20
ATOM     20  C   UNL     1      -2.263   2.834  24.470  0.00  0.00    +0.020 A 
ATOM     22  C   UNL     1      -2.364   3.487  25.698  0.00  0.00    +0.015 A 
ATOM     23  C   UNL     1      -3.406   2.616  23.700  0.00  0.00    +0.015 A 
ATOM     25  C   UNL     1      -3.608   3.922  26.157  0.00  0.00    +0.046 A 
ATOM     26  C   UNL     1      -4.650   3.050  24.159  0.00  0.00    +0.046 A 
ATOM     27  C   UNL     1      -4.751   3.703  25.387  0.00  0.00    +0.120 A 
BRANCH  27   5
ATOM      5  O   UNL     1      -5.964   4.125  25.836  0.00  0.00    -0.495 OA
ATOM     33  C   UNL     1      -6.390   5.425  25.431  0.00  0.00    +0.277 C 
ENDBRANCH  27   5
ENDBRANCH  19  20
ENDBRANCH  14  16
ENDBRANCH   9  14
BRANCH  10  15
ATOM     15  C   UNL     1       3.104  -2.197  24.193  0.00  0.00    +0.140 C 
BRANCH  15   6
ATOM      4  O   UNL     1       0.856  -3.157  25.707  0.00  0.00    -0.253 OA
ATOM      6  N   UNL     1       1.928  -1.459  24.542  0.00  0.00    -0.297 N 
ATOM      8  N   UNL     1      -0.146  -1.074  25.483  0.00  0.00    -0.295 N 
ATOM     18  C   UNL     1       0.873  -2.001  25.284  0.00  0.00    +0.300 C 
ATOM     35  H   UNL     1       1.849  -0.499  24.219  0.00  0.00    +0.150 HD
ATOM     36  H   UNL     1      -0.029  -0.145  25.087  0.00  0.00    +0.151 HD
BRANCH   8  21
ATOM     21  C   UNL     1      -1.353  -1.371  26.218  0.00  0.00    +0.141 C 
BRANCH  21  24
ATOM     24  C   UNL     1      -2.532  -1.565  25.308  0.00  0.00    -0.030 A 
ATOM     28  C   UNL     1      -3.455  -0.535  25.131  0.00  0.00    +0.005 A 
ATOM     29  C   UNL     1      -2.704  -2.777  24.639  0.00  0.00    +0.005 A 
ATOM     30  C   UNL     1      -4.549  -0.715  24.285  0.00  0.00    +0.000 A 
ATOM     31  C   UNL     1      -3.798  -2.959  23.793  0.00  0.00    +0.000 A 
ATOM     32  C   UNL     1      -4.721  -1.927  23.617  0.00  0.00    +0.000 A 
ENDBRANCH  21  24
ENDBRANCH   8  21
ENDBRANCH  15   6
ENDBRANCH  10  15
TORSDOF 9
ENDMDL
