MODEL 1
REMARK VINA RESULT:      -7.0      0.000      0.000
REMARK  Name = 75367677
REMARK  4 active torsions:
REMARK  status: ('A' for Active; 'I' for Inactive)
REMARK    1  A    between atoms: S_1  and  N_6
REMARK    2  A    between atoms: S_1  and  C_12
REMARK    3  A    between atoms: O_3  and  C_8
REMARK    4  A    between atoms: O_3  and  C_13
REMARK                            x       y       z     vdW  Elec       q    Type
REMARK                         _______ _______ _______ _____ _____    ______ ____
ROOT
ATOM      2  O   UNL     1      -3.750   4.467  24.447  0.00  0.00    -0.375 OA
ATOM      6  N   UNL     1      -1.604   2.578  25.090  0.00  0.00    -0.176 NA
ATOM      7  C   UNL     1      -2.501   1.888  24.112  0.00  0.00    +0.156 C 
ATOM      8  C   UNL     1      -3.963   2.018  24.532  0.00  0.00    +0.215 C 
ATOM      9  C   UNL     1      -1.356   4.004  24.716  0.00  0.00    +0.137 C 
ATOM     10  C   UNL     1      -4.386   3.372  25.097  0.00  0.00    +0.205 C 
ATOM     11  C   UNL     1      -2.546   4.871  25.100  0.00  0.00    +0.177 C 
ENDROOT
BRANCH   6   1
ATOM      1  S   UNL     1      -0.223   1.693  25.589  0.00  0.00    +0.029 S 
ATOM      4  O   UNL     1      -0.627   0.338  25.882  0.00  0.00    -0.158 OA
ATOM      5  O   UNL     1       0.518   2.493  26.535  0.00  0.00    -0.158 OA
ATOM     12  C   UNL     1       0.668   1.683  24.055  0.00  0.00    +0.215 C 
ENDBRANCH   6   1
BRANCH   8   3
ATOM      3  O   UNL     1      -4.277   1.024  25.508  0.00  0.00    -0.485 OA
BRANCH   3  13
ATOM     13  C   UNL     1      -4.056  -0.278  25.149  0.00  0.00    +0.121 A 
ATOM     14  C   UNL     1      -4.495  -0.744  23.910  0.00  0.00    +0.045 A 
ATOM     15  C   UNL     1      -3.394  -1.139  26.023  0.00  0.00    +0.045 A 
ATOM     16  C   UNL     1      -4.269  -2.071  23.543  0.00  0.00    +0.004 A 
ATOM     17  C   UNL     1      -3.168  -2.466  25.658  0.00  0.00    +0.004 A 
ATOM     18  C   UNL     1      -3.606  -2.932  24.418  0.00  0.00    +0.000 A 
ENDBRANCH   3  13
ENDBRANCH   8   3
TORSDOF 3
ENDMDL
MODEL 2
REMARK VINA RESULT:      -6.7      1.569      1.963
REMARK  Name = 75367677
REMARK  4 active torsions:
REMARK  status: ('A' for Active; 'I' for Inactive)
REMARK    1  A    between atoms: S_1  and  N_6
REMARK    2  A    between atoms: S_1  and  C_12
REMARK    3  A    between atoms: O_3  and  C_8
REMARK    4  A    between atoms: O_3  and  C_13
REMARK                            x       y       z     vdW  Elec       q    Type
REMARK                         _______ _______ _______ _____ _____    ______ ____
ROOT
ATOM      2  O   UNL     1      -5.865   3.170  25.061  0.00  0.00    -0.375 OA
ATOM      6  N   UNL     1      -2.962   2.774  24.990  0.00  0.00    -0.176 NA
ATOM      7  C   UNL     1      -3.564   1.661  24.192  0.00  0.00    +0.156 C 
ATOM      8  C   UNL     1      -4.708   1.002  24.959  0.00  0.00    +0.215 C 
ATOM      9  C   UNL     1      -3.617   4.087  24.705  0.00  0.00    +0.137 C 
ATOM     10  C   UNL     1      -5.630   1.939  25.736  0.00  0.00    +0.205 C 
ATOM     11  C   UNL     1      -4.944   4.193  25.443  0.00  0.00    +0.177 C 
ENDROOT
BRANCH   6   1
ATOM      1  S   UNL     1      -1.249   2.801  25.058  0.00  0.00    +0.029 S 
ATOM      4  O   UNL     1      -0.732   2.183  23.859  0.00  0.00    -0.158 OA
ATOM      5  O   UNL     1      -0.835   2.381  26.376  0.00  0.00    -0.158 OA
ATOM     12  C   UNL     1      -0.994   4.552  24.929  0.00  0.00    +0.215 C 
ENDBRANCH   6   1
BRANCH   8   3
ATOM      3  O   UNL     1      -4.186   0.046  25.883  0.00  0.00    -0.485 OA
BRANCH   3  13
ATOM     13  C   UNL     1      -3.323  -0.887  25.376  0.00  0.00    +0.121 A 
ATOM     14  C   UNL     1      -3.808  -1.932  24.590  0.00  0.00    +0.045 A 
ATOM     15  C   UNL     1      -1.957  -0.793  25.646  0.00  0.00    +0.045 A 
ATOM     16  C   UNL     1      -2.928  -2.883  24.072  0.00  0.00    +0.004 A 
ATOM     17  C   UNL     1      -1.077  -1.743  25.129  0.00  0.00    +0.004 A 
ATOM     18  C   UNL     1      -1.563  -2.788  24.343  0.00  0.00    +0.000 A 
ENDBRANCH   3  13
ENDBRANCH   8   3
TORSDOF 3
ENDMDL
MODEL 3
REMARK VINA RESULT:      -6.2      1.863      3.486
REMARK  Name = 75367677
REMARK  4 active torsions:
REMARK  status: ('A' for Active; 'I' for Inactive)
REMARK    1  A    between atoms: S_1  and  N_6
REMARK    2  A    between atoms: S_1  and  C_12
REMARK    3  A    between atoms: O_3  and  C_8
REMARK    4  A    between atoms: O_3  and  C_13
REMARK                            x       y       z     vdW  Elec       q    Type
REMARK                         _______ _______ _______ _____ _____    ______ ____
ROOT
ATOM      2  O   UNL     1       0.087   3.474  25.421  0.00  0.00    -0.375 OA
ATOM      6  N   UNL     1      -2.780   3.077  24.966  0.00  0.00    -0.176 NA
ATOM      7  C   UNL     1      -2.280   1.841  25.646  0.00  0.00    +0.156 C 
ATOM      8  C   UNL     1      -1.015   1.323  24.966  0.00  0.00    +0.215 C 
ATOM      9  C   UNL     1      -2.210   4.320  25.571  0.00  0.00    +0.137 C 
ATOM     10  C   UNL     1      -0.008   2.379  24.516  0.00  0.00    +0.205 C 
ATOM     11  C   UNL     1      -0.788   4.549  25.080  0.00  0.00    +0.177 C 
ENDROOT
BRANCH   6   1
ATOM      1  S   UNL     1      -4.461   3.119  24.636  0.00  0.00    +0.029 S 
ATOM      4  O   UNL     1      -4.654   2.973  23.212  0.00  0.00    -0.158 OA
ATOM      5  O   UNL     1      -5.049   4.207  25.381  0.00  0.00    -0.158 OA
ATOM     12  C   UNL     1      -4.935   1.597  25.415  0.00  0.00    +0.215 C 
ENDBRANCH   6   1
BRANCH   8   3
ATOM      3  O   UNL     1      -1.364   0.543  23.822  0.00  0.00    -0.485 OA
BRANCH   3  13
ATOM     13  C   UNL     1      -2.125  -0.571  24.050  0.00  0.00    +0.121 A 
ATOM     14  C   UNL     1      -1.568  -1.677  24.693  0.00  0.00    +0.045 A 
ATOM     15  C   UNL     1      -3.457  -0.602  23.638  0.00  0.00    +0.045 A 
ATOM     16  C   UNL     1      -2.344  -2.813  24.926  0.00  0.00    +0.004 A 
ATOM     17  C   UNL     1      -4.233  -1.737  23.870  0.00  0.00    +0.004 A 
ATOM     18  C   UNL     1      -3.676  -2.843  24.514  0.00  0.00    +0.000 A 
ENDBRANCH   3  13
ENDBRANCH   8   3
TORSDOF 3
ENDMDL
MODEL 4
REMARK VINA RESULT:      -5.8      2.020      5.632
REMARK  Name = 75367677
REMARK  4 active torsions:
REMARK  status: ('A' for Active; 'I' for Inactive)
REMARK    1  A    between atoms: S_1  and  N_6
REMARK    2  A    between atoms: S_1  and  C_12
REMARK    3  A    between atoms: O_3  and  C_8
REMARK    4  A    between atoms: O_3  and  C_13
REMARK                            x       y       z     vdW  Elec       q    Type
REMARK                         _______ _______ _______ _____ _____    ______ ____
ROOT
ATOM      2  O   UNL     1      -2.220  -1.946  24.694  0.00  0.00    -0.375 OA
ATOM      6  N   UNL     1      -3.783   0.532  24.746  0.00  0.00    -0.176 NA
ATOM      7  C   UNL     1      -2.514   0.843  24.016  0.00  0.00    +0.156 C 
ATOM      8  C   UNL     1      -1.303   0.334  24.795  0.00  0.00    +0.215 C 
ATOM      9  C   UNL     1      -4.354  -0.788  24.341  0.00  0.00    +0.137 C 
ATOM     10  C   UNL     1      -1.456  -1.028  25.469  0.00  0.00    +0.205 C 
ATOM     11  C   UNL     1      -3.609  -1.924  25.027  0.00  0.00    +0.177 C 
ENDROOT
BRANCH   6   1
ATOM      1  S   UNL     1      -4.908   1.820  24.865  0.00  0.00    +0.029 S 
ATOM      4  O   UNL     1      -4.707   2.490  26.128  0.00  0.00    -0.158 OA
ATOM      5  O   UNL     1      -6.204   1.336  24.452  0.00  0.00    -0.158 OA
ATOM     12  C   UNL     1      -4.272   2.865  23.580  0.00  0.00    +0.215 C 
ENDBRANCH   6   1
BRANCH   8   3
ATOM      3  O   UNL     1      -0.944   1.278  25.804  0.00  0.00    -0.485 OA
BRANCH   3  13
ATOM     13  C   UNL     1      -1.006   2.600  25.456  0.00  0.00    +0.121 A 
ATOM     14  C   UNL     1      -1.879   3.457  26.126  0.00  0.00    +0.045 A 
ATOM     15  C   UNL     1      -0.198   3.089  24.430  0.00  0.00    +0.045 A 
ATOM     16  C   UNL     1      -1.942   4.805  25.771  0.00  0.00    +0.004 A 
ATOM     17  C   UNL     1      -0.261   4.436  24.075  0.00  0.00    +0.004 A 
ATOM     18  C   UNL     1      -1.134   5.294  24.745  0.00  0.00    +0.000 A 
ENDBRANCH   3  13
ENDBRANCH   8   3
TORSDOF 3
ENDMDL
MODEL 5
REMARK VINA RESULT:      -5.7      1.607      2.252
REMARK  Name = 75367677
REMARK  4 active torsions:
REMARK  status: ('A' for Active; 'I' for Inactive)
REMARK    1  A    between atoms: S_1  and  N_6
REMARK    2  A    between atoms: S_1  and  C_12
REMARK    3  A    between atoms: O_3  and  C_8
REMARK    4  A    between atoms: O_3  and  C_13
REMARK                            x       y       z     vdW  Elec       q    Type
REMARK                         _______ _______ _______ _____ _____    ______ ____
ROOT
ATOM      2  O   UNL     1      -5.489   2.811  25.314  0.00  0.00    -0.375 OA
ATOM      6  N   UNL     1      -2.614   3.338  25.105  0.00  0.00    -0.176 NA
ATOM      7  C   UNL     1      -3.159   3.383  23.712  0.00  0.00    +0.156 C 
ATOM      8  C   UNL     1      -4.040   2.166  23.435  0.00  0.00    +0.215 C 
ATOM      9  C   UNL     1      -3.507   4.036  26.079  0.00  0.00    +0.137 C 
ATOM     10  C   UNL     1      -4.954   1.720  24.574  0.00  0.00    +0.205 C 
ATOM     11  C   UNL     1      -4.690   3.153  26.447  0.00  0.00    +0.177 C 
ENDROOT
BRANCH   6   1
ATOM      1  S   UNL     1      -0.941   3.673  25.261  0.00  0.00    +0.029 S 
ATOM      4  O   UNL     1      -0.445   2.999  26.439  0.00  0.00    -0.158 OA
ATOM      5  O   UNL     1      -0.733   5.085  25.042  0.00  0.00    -0.158 OA
ATOM     12  C   UNL     1      -0.347   2.799  23.836  0.00  0.00    +0.215 C 
ENDBRANCH   6   1
BRANCH   8   3
ATOM      3  O   UNL     1      -3.226   1.051  23.071  0.00  0.00    -0.485 OA
BRANCH   3  13
ATOM     13  C   UNL     1      -3.278  -0.040  23.896  0.00  0.00    +0.121 A 
ATOM     14  C   UNL     1      -2.606  -0.024  25.117  0.00  0.00    +0.045 A 
ATOM     15  C   UNL     1      -4.004  -1.169  23.513  0.00  0.00    +0.045 A 
ATOM     16  C   UNL     1      -2.660  -1.136  25.959  0.00  0.00    +0.004 A 
ATOM     17  C   UNL     1      -4.058  -2.280  24.353  0.00  0.00    +0.004 A 
ATOM     18  C   UNL     1      -3.386  -2.264  25.575  0.00  0.00    +0.000 A 
ENDBRANCH   3  13
ENDBRANCH   8   3
TORSDOF 3
ENDMDL
MODEL 6
REMARK VINA RESULT:      -5.4      2.263      4.282
REMARK  Name = 75367677
REMARK  4 active torsions:
REMARK  status: ('A' for Active; 'I' for Inactive)
REMARK    1  A    between atoms: S_1  and  N_6
REMARK    2  A    between atoms: S_1  and  C_12
REMARK    3  A    between atoms: O_3  and  C_8
REMARK    4  A    between atoms: O_3  and  C_13
REMARK                            x       y       z     vdW  Elec       q    Type
REMARK                         _______ _______ _______ _____ _____    ______ ____
ROOT
ATOM      2  O   UNL     1      -0.206   2.453  24.982  0.00  0.00    -0.375 OA
ATOM      6  N   UNL     1      -1.953   0.117  24.699  0.00  0.00    -0.176 NA
ATOM      7  C   UNL     1      -1.564   0.529  23.314  0.00  0.00    +0.156 C 
ATOM      8  C   UNL     1      -1.758   2.031  23.121  0.00  0.00    +0.215 C 
ATOM      9  C   UNL     1      -0.797   0.166  25.645  0.00  0.00    +0.137 C 
ATOM     10  C   UNL     1      -1.363   2.921  24.297  0.00  0.00    +0.205 C 
ATOM     11  C   UNL     1      -0.525   1.599  26.081  0.00  0.00    +0.177 C 
ENDROOT
BRANCH   6   1
ATOM      1  S   UNL     1      -2.942  -1.278  24.811  0.00  0.00    +0.029 S 
ATOM      4  O   UNL     1      -3.823  -1.311  23.667  0.00  0.00    -0.158 OA
ATOM      5  O   UNL     1      -3.440  -1.381  26.163  0.00  0.00    -0.158 OA
ATOM     12  C   UNL     1      -1.697  -2.521  24.584  0.00  0.00    +0.215 C 
ENDBRANCH   6   1
BRANCH   8   3
ATOM      3  O   UNL     1      -3.125   2.307  22.810  0.00  0.00    -0.485 OA
BRANCH   3  13
ATOM     13  C   UNL     1      -3.949   2.585  23.866  0.00  0.00    +0.121 A 
ATOM     14  C   UNL     1      -3.896   3.835  24.481  0.00  0.00    +0.045 A 
ATOM     15  C   UNL     1      -4.840   1.616  24.328  0.00  0.00    +0.045 A 
ATOM     16  C   UNL     1      -4.737   4.119  25.558  0.00  0.00    +0.004 A 
ATOM     17  C   UNL     1      -5.681   1.899  25.404  0.00  0.00    +0.004 A 
ATOM     18  C   UNL     1      -5.629   3.150  26.019  0.00  0.00    +0.000 A 
ENDBRANCH   3  13
ENDBRANCH   8   3
TORSDOF 3
ENDMDL
MODEL 7
REMARK VINA RESULT:      -5.3      1.949      3.497
REMARK  Name = 75367677
REMARK  4 active torsions:
REMARK  status: ('A' for Active; 'I' for Inactive)
REMARK    1  A    between atoms: S_1  and  N_6
REMARK    2  A    between atoms: S_1  and  C_12
REMARK    3  A    between atoms: O_3  and  C_8
REMARK    4  A    between atoms: O_3  and  C_13
REMARK                            x       y       z     vdW  Elec       q    Type
REMARK                         _______ _______ _______ _____ _____    ______ ____
ROOT
ATOM      2  O   UNL     1      -0.142   3.591  25.101  0.00  0.00    -0.375 OA
ATOM      6  N   UNL     1      -3.032   3.141  25.270  0.00  0.00    -0.176 NA
ATOM      7  C   UNL     1      -2.376   1.884  25.748  0.00  0.00    +0.156 C 
ATOM      8  C   UNL     1      -1.287   1.438  24.776  0.00  0.00    +0.215 C 
ATOM      9  C   UNL     1      -2.360   4.364  25.805  0.00  0.00    +0.137 C 
ATOM     10  C   UNL     1      -0.421   2.544  24.177  0.00  0.00    +0.205 C 
ATOM     11  C   UNL     1      -1.087   4.658  25.026  0.00  0.00    +0.177 C 
ENDROOT
BRANCH   6   1
ATOM      1  S   UNL     1      -4.746   3.154  25.323  0.00  0.00    +0.029 S 
ATOM      4  O   UNL     1      -5.162   3.223  26.705  0.00  0.00    -0.158 OA
ATOM      5  O   UNL     1      -5.241   2.139  24.424  0.00  0.00    -0.158 OA
ATOM     12  C   UNL     1      -5.035   4.740  24.582  0.00  0.00    +0.215 C 
ENDBRANCH   6   1
BRANCH   8   3
ATOM      3  O   UNL     1      -1.870   0.712  23.694  0.00  0.00    -0.485 OA
BRANCH   3  13
ATOM     13  C   UNL     1      -2.404  -0.512  23.995  0.00  0.00    +0.121 A 
ATOM     14  C   UNL     1      -1.619  -1.482  24.617  0.00  0.00    +0.045 A 
ATOM     15  C   UNL     1      -3.735  -0.788  23.679  0.00  0.00    +0.045 A 
ATOM     16  C   UNL     1      -2.164  -2.729  24.925  0.00  0.00    +0.004 A 
ATOM     17  C   UNL     1      -4.279  -2.034  23.987  0.00  0.00    +0.004 A 
ATOM     18  C   UNL     1      -3.494  -3.005  24.609  0.00  0.00    +0.000 A 
ENDBRANCH   3  13
ENDBRANCH   8   3
TORSDOF 3
ENDMDL
MODEL 8
REMARK VINA RESULT:      -5.0      1.818      3.391
REMARK  Name = 75367677
REMARK  4 active torsions:
REMARK  status: ('A' for Active; 'I' for Inactive)
REMARK    1  A    between atoms: S_1  and  N_6
REMARK    2  A    between atoms: S_1  and  C_12
REMARK    3  A    between atoms: O_3  and  C_8
REMARK    4  A    between atoms: O_3  and  C_13
REMARK                            x       y       z     vdW  Elec       q    Type
REMARK                         _______ _______ _______ _____ _____    ______ ____
ROOT
ATOM      2  O   UNL     1       0.371   0.369  23.734  0.00  0.00    -0.375 OA
ATOM      6  N   UNL     1      -1.411   2.382  24.899  0.00  0.00    -0.176 NA
ATOM      7  C   UNL     1      -0.700   1.729  26.042  0.00  0.00    +0.156 C 
ATOM      8  C   UNL     1      -0.753   0.208  25.915  0.00  0.00    +0.215 C 
ATOM      9  C   UNL     1      -0.493   2.665  23.754  0.00  0.00    +0.137 C 
ATOM     10  C   UNL     1      -0.574  -0.360  24.509  0.00  0.00    +0.205 C 
ATOM     11  C   UNL     1      -0.235   1.398  22.951  0.00  0.00    +0.177 C 
ENDROOT
BRANCH   6   1
ATOM      1  S   UNL     1      -2.485   3.651  25.317  0.00  0.00    +0.029 S 
ATOM      4  O   UNL     1      -2.773   3.563  26.730  0.00  0.00    -0.158 OA
ATOM      5  O   UNL     1      -3.532   3.711  24.324  0.00  0.00    -0.158 OA
ATOM     12  C   UNL     1      -1.399   5.030  25.060  0.00  0.00    +0.215 C 
ENDBRANCH   6   1
BRANCH   8   3
ATOM      3  O   UNL     1      -1.996  -0.277  26.423  0.00  0.00    -0.485 OA
BRANCH   3  13
ATOM     13  C   UNL     1      -2.810  -0.924  25.533  0.00  0.00    +0.121 A 
ATOM     14  C   UNL     1      -2.708  -2.305  25.370  0.00  0.00    +0.045 A 
ATOM     15  C   UNL     1      -3.741  -0.201  24.786  0.00  0.00    +0.045 A 
ATOM     16  C   UNL     1      -3.538  -2.965  24.463  0.00  0.00    +0.004 A 
ATOM     17  C   UNL     1      -4.570  -0.860  23.879  0.00  0.00    +0.004 A 
ATOM     18  C   UNL     1      -4.468  -2.242  23.717  0.00  0.00    +0.000 A 
ENDBRANCH   3  13
ENDBRANCH   8   3
TORSDOF 3
ENDMDL
MODEL 9
REMARK VINA RESULT:      -4.8      2.190      3.616
REMARK  Name = 75367677
REMARK  4 active torsions:
REMARK  status: ('A' for Active; 'I' for Inactive)
REMARK    1  A    between atoms: S_1  and  N_6
REMARK    2  A    between atoms: S_1  and  C_12
REMARK    3  A    between atoms: O_3  and  C_8
REMARK    4  A    between atoms: O_3  and  C_13
REMARK                            x       y       z     vdW  Elec       q    Type
REMARK                         _______ _______ _______ _____ _____    ______ ____
ROOT
ATOM      2  O   UNL     1      -1.683   2.116  22.438  0.00  0.00    -0.375 OA
ATOM      6  N   UNL     1      -3.481   2.899  24.616  0.00  0.00    -0.176 NA
ATOM      7  C   UNL     1      -2.087   3.109  25.117  0.00  0.00    +0.156 C 
ATOM      8  C   UNL     1      -1.222   1.881  24.843  0.00  0.00    +0.215 C 
ATOM      9  C   UNL     1      -3.647   3.369  23.207  0.00  0.00    +0.137 C 
ATOM     10  C   UNL     1      -1.429   1.196  23.494  0.00  0.00    +0.205 C 
ATOM     11  C   UNL     1      -3.077   2.348  22.233  0.00  0.00    +0.177 C 
ENDROOT
BRANCH   6   1
ATOM      1  S   UNL     1      -4.736   3.341  25.696  0.00  0.00    +0.029 S 
ATOM      4  O   UNL     1      -5.497   4.416  25.102  0.00  0.00    -0.158 OA
ATOM      5  O   UNL     1      -4.183   3.439  27.027  0.00  0.00    -0.158 OA
ATOM     12  C   UNL     1      -5.712   1.862  25.610  0.00  0.00    +0.215 C 
ENDBRANCH   6   1
BRANCH   8   3
ATOM      3  O   UNL     1      -1.432   0.902  25.862  0.00  0.00    -0.485 OA
BRANCH   3  13
ATOM     13  C   UNL     1      -1.920  -0.309  25.455  0.00  0.00    +0.121 A 
ATOM     14  C   UNL     1      -1.041  -1.326  25.083  0.00  0.00    +0.045 A 
ATOM     15  C   UNL     1      -3.297  -0.527  25.411  0.00  0.00    +0.045 A 
ATOM     16  C   UNL     1      -1.539  -2.562  24.669  0.00  0.00    +0.004 A 
ATOM     17  C   UNL     1      -3.795  -1.762  24.996  0.00  0.00    +0.004 A 
ATOM     18  C   UNL     1      -2.916  -2.779  24.625  0.00  0.00    +0.000 A 
ENDBRANCH   3  13
ENDBRANCH   8   3
TORSDOF 3
ENDMDL
MODEL 10
REMARK VINA RESULT:      -4.5      2.271      4.739
REMARK  Name = 75367677
REMARK  4 active torsions:
REMARK  status: ('A' for Active; 'I' for Inactive)
REMARK    1  A    between atoms: S_1  and  N_6
REMARK    2  A    between atoms: S_1  and  C_12
REMARK    3  A    between atoms: O_3  and  C_8
REMARK    4  A    between atoms: O_3  and  C_13
REMARK                            x       y       z     vdW  Elec       q    Type
REMARK                         _______ _______ _______ _____ _____    ______ ____
ROOT
ATOM      2  O   UNL     1       0.686   1.187  23.455  0.00  0.00    -0.375 OA
ATOM      6  N   UNL     1      -1.549  -0.492  24.334  0.00  0.00    -0.176 NA
ATOM      7  C   UNL     1      -2.151   0.730  23.715  0.00  0.00    +0.156 C 
ATOM      8  C   UNL     1      -1.493   1.995  24.262  0.00  0.00    +0.215 C 
ATOM      9  C   UNL     1      -0.395  -1.013  23.540  0.00  0.00    +0.137 C 
ATOM     10  C   UNL     1       0.020   1.936  24.466  0.00  0.00    +0.205 C 
ATOM     11  C   UNL     1       0.854  -0.186  23.808  0.00  0.00    +0.177 C 
ENDROOT
BRANCH   6   1
ATOM      1  S   UNL     1      -2.662  -1.673  24.886  0.00  0.00    +0.029 S 
ATOM      4  O   UNL     1      -3.122  -1.293  26.200  0.00  0.00    -0.158 OA
ATOM      5  O   UNL     1      -2.114  -2.982  24.615  0.00  0.00    -0.158 OA
ATOM     12  C   UNL     1      -3.977  -1.375  23.733  0.00  0.00    +0.215 C 
ENDBRANCH   6   1
BRANCH   8   3
ATOM      3  O   UNL     1      -2.084   2.347  25.513  0.00  0.00    -0.485 OA
BRANCH   3  13
ATOM     13  C   UNL     1      -3.416   2.662  25.493  0.00  0.00    +0.121 A 
ATOM     14  C   UNL     1      -4.370   1.652  25.373  0.00  0.00    +0.045 A 
ATOM     15  C   UNL     1      -3.819   3.994  25.590  0.00  0.00    +0.045 A 
ATOM     16  C   UNL     1      -5.728   1.973  25.354  0.00  0.00    +0.004 A 
ATOM     17  C   UNL     1      -5.176   4.315  25.570  0.00  0.00    +0.004 A 
ATOM     18  C   UNL     1      -6.130   3.305  25.452  0.00  0.00    +0.000 A 
ENDBRANCH   3  13
ENDBRANCH   8   3
TORSDOF 3
ENDMDL
