MODEL 1
REMARK VINA RESULT:      -2.5      0.000      0.000
REMARK  Name = 75368422
REMARK  3 active torsions:
REMARK  status: ('A' for Active; 'I' for Inactive)
REMARK    1  A    between atoms: N_6  and  C_17
REMARK    2  A    between atoms: C_13  and  C_14
REMARK    3  A    between atoms: C_17  and  C_20
REMARK                            x       y       z     vdW  Elec       q    Type
REMARK                         _______ _______ _______ _____ _____    ______ ____
ROOT
ATOM      2  O   UNL     1       0.479  -2.141  24.451  0.00  0.00    -0.252 OA
ATOM      3  O   UNL     1      -5.283   1.351  26.197  0.00  0.00    -0.275 OA
ATOM      4  N   UNL     1      -1.094  -0.398  24.543  0.00  0.00    -0.278 N 
ATOM      5  N   UNL     1      -3.608   0.785  24.691  0.00  0.00    -0.298 N 
ATOM      6  N   UNL     1       0.525  -0.294  22.987  0.00  0.00    -0.279 N 
ATOM      7  C   UNL     1      -1.283   0.892  23.904  0.00  0.00    +0.112 C 
ATOM      8  C   UNL     1      -2.749   1.093  23.531  0.00  0.00    +0.132 C 
ATOM      9  C   UNL     1      -0.321   0.855  22.719  0.00  0.00    +0.133 C 
ATOM     10  C   UNL     1      -1.961  -0.796  25.637  0.00  0.00    +0.128 C 
ATOM     11  C   UNL     1      -3.420  -0.561  25.254  0.00  0.00    +0.127 C 
ATOM     12  C   UNL     1       0.029  -1.078  24.047  0.00  0.00    +0.306 C 
ATOM     14  C   UNL     1      -4.559   1.643  25.241  0.00  0.00    +0.219 C 
ENDROOT
BRANCH  14  13
ATOM      1  O   UNL     1      -2.942   4.959  25.818  0.00  0.00    -0.380 OA
ATOM     13  C   UNL     1      -4.684   2.998  24.609  0.00  0.00    +0.079 C 
ATOM     15  C   UNL     1      -5.181   4.030  25.622  0.00  0.00    +0.041 C 
ATOM     16  C   UNL     1      -3.351   3.414  23.989  0.00  0.00    +0.041 C 
ATOM     18  C   UNL     1      -4.074   4.507  26.557  0.00  0.00    +0.160 C 
ATOM     19  C   UNL     1      -2.364   3.916  25.037  0.00  0.00    +0.160 C 
ENDBRANCH  14  13
BRANCH   6  17
ATOM     17  C   UNL     1       1.653  -0.627  22.146  0.00  0.00    +0.144 C 
BRANCH  17  20
ATOM     20  C   UNL     1       2.961  -0.297  22.806  0.00  0.00    -0.030 A 
ATOM     21  C   UNL     1       3.473   0.998  22.732  0.00  0.00    +0.005 A 
ATOM     22  C   UNL     1       3.665  -1.286  23.492  0.00  0.00    +0.005 A 
ATOM     23  C   UNL     1       4.687   1.305  23.343  0.00  0.00    +0.000 A 
ATOM     24  C   UNL     1       4.881  -0.980  24.104  0.00  0.00    +0.000 A 
ATOM     25  C   UNL     1       5.392   0.316  24.030  0.00  0.00    +0.000 A 
ENDBRANCH  17  20
ENDBRANCH   6  17
TORSDOF 3
ENDMDL
MODEL 2
REMARK VINA RESULT:       0.5      1.592      2.869
REMARK  Name = 75368422
REMARK  3 active torsions:
REMARK  status: ('A' for Active; 'I' for Inactive)
REMARK    1  A    between atoms: N_6  and  C_17
REMARK    2  A    between atoms: C_13  and  C_14
REMARK    3  A    between atoms: C_17  and  C_20
REMARK                            x       y       z     vdW  Elec       q    Type
REMARK                         _______ _______ _______ _____ _____    ______ ____
ROOT
ATOM      2  O   UNL     1       2.356   1.682  24.246  0.00  0.00    -0.252 OA
ATOM      3  O   UNL     1      -3.666   4.468  26.350  0.00  0.00    -0.275 OA
ATOM      4  N   UNL     1       0.061   2.187  24.288  0.00  0.00    -0.278 N 
ATOM      5  N   UNL     1      -2.423   2.746  25.409  0.00  0.00    -0.298 N 
ATOM      6  N   UNL     1       0.764   0.525  22.948  0.00  0.00    -0.279 N 
ATOM      7  C   UNL     1      -1.127   1.777  23.561  0.00  0.00    +0.112 C 
ATOM      8  C   UNL     1      -2.296   1.575  24.521  0.00  0.00    +0.132 C 
ATOM      9  C   UNL     1      -0.683   0.517  22.821  0.00  0.00    +0.133 C 
ATOM     10  C   UNL     1      -0.016   3.280  25.239  0.00  0.00    +0.128 C 
ATOM     11  C   UNL     1      -1.208   3.073  26.172  0.00  0.00    +0.127 C 
ATOM     12  C   UNL     1       1.206   1.491  23.873  0.00  0.00    +0.306 C 
ATOM     14  C   UNL     1      -3.578   3.507  25.581  0.00  0.00    +0.219 C 
ENDROOT
BRANCH  14  13
ATOM      1  O   UNL     1      -6.365   1.062  26.034  0.00  0.00    -0.380 OA
ATOM     13  C   UNL     1      -4.772   3.108  24.763  0.00  0.00    +0.079 C 
ATOM     15  C   UNL     1      -4.693   1.634  24.363  0.00  0.00    +0.041 C 
ATOM     16  C   UNL     1      -6.059   3.417  25.525  0.00  0.00    +0.041 C 
ATOM     18  C   UNL     1      -5.092   0.701  25.502  0.00  0.00    +0.160 C 
ATOM     19  C   UNL     1      -6.356   2.373  26.596  0.00  0.00    +0.160 C 
ENDBRANCH  14  13
BRANCH   6  17
ATOM     17  C   UNL     1       1.596  -0.457  22.288  0.00  0.00    +0.144 C 
BRANCH  17  20
ATOM     20  C   UNL     1       3.017  -0.405  22.772  0.00  0.00    -0.030 A 
ATOM     21  C   UNL     1       3.506  -1.407  23.609  0.00  0.00    +0.005 A 
ATOM     22  C   UNL     1       3.846   0.648  22.384  0.00  0.00    +0.005 A 
ATOM     23  C   UNL     1       4.825  -1.358  24.059  0.00  0.00    +0.000 A 
ATOM     24  C   UNL     1       5.166   0.697  22.834  0.00  0.00    +0.000 A 
ATOM     25  C   UNL     1       5.656  -0.306  23.671  0.00  0.00    +0.000 A 
ENDBRANCH  17  20
ENDBRANCH   6  17
TORSDOF 3
ENDMDL
