MODEL 1
REMARK VINA RESULT:       3.6      0.000      0.000
REMARK  Name = 51136610
REMARK  10 active torsions:
REMARK  status: ('A' for Active; 'I' for Inactive)
REMARK    1  A    between atoms: O_3  and  C_19
REMARK    2  A    between atoms: O_5  and  C_26
REMARK    3  A    between atoms: O_5  and  C_31
REMARK    4  A    between atoms: O_6  and  C_27
REMARK    5  A    between atoms: O_6  and  C_32
REMARK    6  A    between atoms: C_9  and  C_13
REMARK    7  A    between atoms: C_10  and  C_15
REMARK    8  A    between atoms: C_13  and  C_16
REMARK    9  A    between atoms: C_15  and  C_19
REMARK   10  A    between atoms: C_17  and  C_23
REMARK                            x       y       z     vdW  Elec       q    Type
REMARK                         _______ _______ _______ _____ _____    ______ ____
ROOT
ATOM      2  O   UNL     1      -1.723  -3.110  23.486  0.00  0.00    -0.269 OA
ATOM      7  N   UNL     1      -0.390  -1.452  24.461  0.00  0.00    -0.297 N 
ATOM      9  C   UNL     1       0.434   0.892  24.507  0.00  0.00    +0.016 C 
ATOM     10  C   UNL     1       1.767   0.394  23.893  0.00  0.00    +0.006 C 
ATOM     11  C   UNL     1       1.567  -0.891  23.073  0.00  0.00    +0.023 C 
ATOM     12  C   UNL     1      -0.241  -0.249  25.291  0.00  0.00    +0.112 C 
ATOM     14  C   UNL     1       0.856  -1.964  23.893  0.00  0.00    +0.108 C 
ATOM     17  C   UNL     1      -1.593  -2.106  24.185  0.00  0.00    +0.253 C 
ENDROOT
BRANCH  17  23
ATOM      1  S   UNL     1      -4.244  -1.497  23.818  0.00  0.00    -0.092 S 
ATOM     23  C   UNL     1      -2.823  -1.562  24.772  0.00  0.00    +0.074 A 
ATOM     28  C   UNL     1      -3.030  -1.069  26.041  0.00  0.00    +0.021 A 
ATOM     29  C   UNL     1      -4.372  -0.630  26.233  0.00  0.00    +0.008 A 
ATOM     30  C   UNL     1      -5.139  -0.806  25.103  0.00  0.00    +0.046 A 
ENDBRANCH  17  23
BRANCH   9  13
ATOM     13  C   UNL     1      -0.542   1.483  23.481  0.00  0.00    +0.061 C 
BRANCH  13  16
ATOM      8  N   UNL     1       0.048   3.793  23.759  0.00  0.00    -0.287 NA
ATOM     16  C   UNL     1      -0.883   2.904  23.857  0.00  0.00    +0.044 C 
ATOM     18  C   UNL     1      -2.260   3.209  24.323  0.00  0.00    +0.003 A 
ATOM     20  C   UNL     1      -2.438   4.413  25.018  0.00  0.00    -0.033 A 
ATOM     21  C   UNL     1      -1.246   5.291  25.254  0.00  0.00    +0.059 C 
ATOM     22  C   UNL     1      -0.299   5.185  24.066  0.00  0.00    +0.146 C 
ATOM     24  C   UNL     1      -3.339   2.351  24.107  0.00  0.00    +0.059 A 
ATOM     25  C   UNL     1      -3.701   4.740  25.518  0.00  0.00    +0.053 A 
ATOM     26  C   UNL     1      -4.600   2.694  24.596  0.00  0.00    +0.162 A 
ATOM     27  C   UNL     1      -4.780   3.882  25.303  0.00  0.00    +0.162 A 
BRANCH  26   5
ATOM      5  O   UNL     1      -5.651   1.853  24.381  0.00  0.00    -0.491 OA
ATOM     31  C   UNL     1      -6.618   1.746  25.425  0.00  0.00    +0.277 C 
ENDBRANCH  26   5
BRANCH  27   6
ATOM      6  O   UNL     1      -6.008   4.218  25.791  0.00  0.00    -0.491 OA
ATOM     32  C   UNL     1      -6.531   5.489  25.407  0.00  0.00    +0.277 C 
ENDBRANCH  27   6
ENDBRANCH  13  16
ENDBRANCH   9  13
BRANCH  10  15
ATOM     15  C   UNL     1       2.480   1.460  23.059  0.00  0.00    +0.124 C 
BRANCH  15  19
ATOM      4  O   UNL     1       4.818   0.886  23.442  0.00  0.00    -0.251 OA
ATOM     19  C   UNL     1       3.871   1.031  22.683  0.00  0.00    +0.305 C 
BRANCH  19   3
ATOM      3  O   UNL     1       3.938   0.819  21.344  0.00  0.00    -0.481 OA
ATOM     33  H   UNL     1       3.049   0.822  20.928  0.00  0.00    +0.295 HD
ENDBRANCH  19   3
ENDBRANCH  15  19
ENDBRANCH  10  15
TORSDOF 8
ENDMDL
MODEL 2
REMARK VINA RESULT:       5.2      2.856      4.616
REMARK  Name = 51136610
REMARK  10 active torsions:
REMARK  status: ('A' for Active; 'I' for Inactive)
REMARK    1  A    between atoms: O_3  and  C_19
REMARK    2  A    between atoms: O_5  and  C_26
REMARK    3  A    between atoms: O_5  and  C_31
REMARK    4  A    between atoms: O_6  and  C_27
REMARK    5  A    between atoms: O_6  and  C_32
REMARK    6  A    between atoms: C_9  and  C_13
REMARK    7  A    between atoms: C_10  and  C_15
REMARK    8  A    between atoms: C_13  and  C_16
REMARK    9  A    between atoms: C_15  and  C_19
REMARK   10  A    between atoms: C_17  and  C_23
REMARK                            x       y       z     vdW  Elec       q    Type
REMARK                         _______ _______ _______ _____ _____    ______ ____
ROOT
ATOM      2  O   UNL     1      -0.067   1.247  27.494  0.00  0.00    -0.269 OA
ATOM      7  N   UNL     1      -0.203   0.212  25.401  0.00  0.00    -0.297 N 
ATOM      9  C   UNL     1      -1.573  -0.728  23.553  0.00  0.00    +0.016 C 
ATOM     10  C   UNL     1      -1.216  -2.148  24.062  0.00  0.00    +0.006 C 
ATOM     11  C   UNL     1      -0.900  -2.146  25.567  0.00  0.00    +0.023 C 
ATOM     12  C   UNL     1      -0.470   0.267  23.957  0.00  0.00    +0.112 C 
ATOM     14  C   UNL     1       0.168  -1.109  25.906  0.00  0.00    +0.108 C 
ATOM     17  C   UNL     1      -0.283   1.290  26.284  0.00  0.00    +0.253 C 
ENDROOT
BRANCH  17  23
ATOM      1  S   UNL     1       0.135   3.180  24.339  0.00  0.00    -0.092 S 
ATOM     23  C   UNL     1      -0.660   2.601  25.741  0.00  0.00    +0.074 A 
ATOM     28  C   UNL     1      -1.605   3.488  26.204  0.00  0.00    +0.021 A 
ATOM     29  C   UNL     1      -1.678   4.661  25.398  0.00  0.00    +0.008 A 
ATOM     30  C   UNL     1      -0.786   4.624  24.349  0.00  0.00    +0.046 A 
ENDBRANCH  17  23
BRANCH   9  13
ATOM     13  C   UNL     1      -2.944  -0.224  24.024  0.00  0.00    +0.061 C 
BRANCH  13  16
ATOM      8  N   UNL     1      -2.812   1.268  22.147  0.00  0.00    -0.287 NA
ATOM     16  C   UNL     1      -3.274   1.080  23.339  0.00  0.00    +0.044 C 
ATOM     18  C   UNL     1      -4.100   2.079  24.064  0.00  0.00    +0.003 A 
ATOM     20  C   UNL     1      -4.065   3.394  23.583  0.00  0.00    -0.033 A 
ATOM     21  C   UNL     1      -3.198   3.706  22.400  0.00  0.00    +0.059 C 
ATOM     22  C   UNL     1      -3.183   2.508  21.458  0.00  0.00    +0.146 C 
ATOM     24  C   UNL     1      -4.873   1.753  25.180  0.00  0.00    +0.059 A 
ATOM     25  C   UNL     1      -4.789   4.390  24.245  0.00  0.00    +0.053 A 
ATOM     26  C   UNL     1      -5.606   2.752  25.824  0.00  0.00    +0.162 A 
ATOM     27  C   UNL     1      -5.561   4.066  25.361  0.00  0.00    +0.162 A 
BRANCH  26   5
ATOM      5  O   UNL     1      -6.360   2.429  26.912  0.00  0.00    -0.491 OA
ATOM     31  C   UNL     1      -6.625   1.043  27.127  0.00  0.00    +0.277 C 
ENDBRANCH  26   5
BRANCH  27   6
ATOM      6  O   UNL     1      -6.267   5.046  25.991  0.00  0.00    -0.491 OA
ATOM     32  C   UNL     1      -6.689   6.154  25.196  0.00  0.00    +0.277 C 
ENDBRANCH  27   6
ENDBRANCH  13  16
ENDBRANCH   9  13
BRANCH  10  15
ATOM     15  C   UNL     1      -2.287  -3.190  23.738  0.00  0.00    +0.124 C 
BRANCH  15  19
ATOM      4  O   UNL     1      -3.629  -2.860  25.746  0.00  0.00    -0.251 OA
ATOM     19  C   UNL     1      -3.543  -2.959  24.531  0.00  0.00    +0.305 C 
BRANCH  19   3
ATOM      3  O   UNL     1      -4.605  -2.871  23.690  0.00  0.00    -0.481 OA
ATOM     33  H   UNL     1      -5.029  -1.987  23.727  0.00  0.00    +0.295 HD
ENDBRANCH  19   3
ENDBRANCH  15  19
ENDBRANCH  10  15
TORSDOF 8
ENDMDL
MODEL 3
REMARK VINA RESULT:       5.3      2.011      6.536
REMARK  Name = 51136610
REMARK  10 active torsions:
REMARK  status: ('A' for Active; 'I' for Inactive)
REMARK    1  A    between atoms: O_3  and  C_19
REMARK    2  A    between atoms: O_5  and  C_26
REMARK    3  A    between atoms: O_5  and  C_31
REMARK    4  A    between atoms: O_6  and  C_27
REMARK    5  A    between atoms: O_6  and  C_32
REMARK    6  A    between atoms: C_9  and  C_13
REMARK    7  A    between atoms: C_10  and  C_15
REMARK    8  A    between atoms: C_13  and  C_16
REMARK    9  A    between atoms: C_15  and  C_19
REMARK   10  A    between atoms: C_17  and  C_23
REMARK                            x       y       z     vdW  Elec       q    Type
REMARK                         _______ _______ _______ _____ _____    ______ ____
ROOT
ATOM      2  O   UNL     1      -6.215   2.736  24.072  0.00  0.00    -0.269 OA
ATOM      7  N   UNL     1      -5.094   0.986  25.145  0.00  0.00    -0.297 N 
ATOM      9  C   UNL     1      -3.187  -0.605  25.244  0.00  0.00    +0.016 C 
ATOM     10  C   UNL     1      -4.143  -1.721  24.752  0.00  0.00    +0.006 C 
ATOM     11  C   UNL     1      -5.306  -1.146  23.927  0.00  0.00    +0.023 C 
ATOM     12  C   UNL     1      -3.989   0.487  25.976  0.00  0.00    +0.112 C 
ATOM     14  C   UNL     1      -6.031  -0.041  24.691  0.00  0.00    +0.108 C 
ATOM     17  C   UNL     1      -5.295   2.316  24.772  0.00  0.00    +0.253 C 
ENDROOT
BRANCH  17  23
ATOM      1  S   UNL     1      -3.201   3.975  24.142  0.00  0.00    -0.092 S 
ATOM     23  C   UNL     1      -4.333   3.318  25.246  0.00  0.00    +0.074 A 
ATOM     28  C   UNL     1      -4.188   3.846  26.510  0.00  0.00    +0.021 A 
ATOM     29  C   UNL     1      -3.133   4.801  26.573  0.00  0.00    +0.008 A 
ATOM     30  C   UNL     1      -2.513   4.968  25.355  0.00  0.00    +0.046 A 
ENDBRANCH  17  23
BRANCH   9  13
ATOM     13  C   UNL     1      -2.331   0.018  24.133  0.00  0.00    +0.061 C 
BRANCH  13  16
ATOM      8  N   UNL     1      -1.488   1.517  25.810  0.00  0.00    -0.287 NA
ATOM     16  C   UNL     1      -1.221   0.841  24.742  0.00  0.00    +0.044 C 
ATOM     18  C   UNL     1       0.111   0.841  24.085  0.00  0.00    +0.003 A 
ATOM     20  C   UNL     1       0.982   1.883  24.427  0.00  0.00    -0.033 A 
ATOM     21  C   UNL     1       0.516   2.922  25.404  0.00  0.00    +0.059 C 
ATOM     22  C   UNL     1      -0.395   2.268  26.435  0.00  0.00    +0.146 C 
ATOM     24  C   UNL     1       0.497  -0.130  23.159  0.00  0.00    +0.059 A 
ATOM     25  C   UNL     1       2.236   1.963  23.814  0.00  0.00    +0.053 A 
ATOM     26  C   UNL     1       1.757  -0.051  22.565  0.00  0.00    +0.162 A 
ATOM     27  C   UNL     1       2.622   0.994  22.888  0.00  0.00    +0.162 A 
BRANCH  26   5
ATOM      5  O   UNL     1       2.130  -1.001  21.663  0.00  0.00    -0.491 OA
ATOM     31  C   UNL     1       1.138  -1.436  20.734  0.00  0.00    +0.277 C 
ENDBRANCH  26   5
BRANCH  27   6
ATOM      6  O   UNL     1       3.851   1.081  22.305  0.00  0.00    -0.491 OA
ATOM     32  C   UNL     1       4.944   0.489  23.005  0.00  0.00    +0.277 C 
ENDBRANCH  27   6
ENDBRANCH  13  16
ENDBRANCH   9  13
BRANCH  10  15
ATOM     15  C   UNL     1      -3.426  -2.826  23.974  0.00  0.00    +0.124 C 
BRANCH  15  19
ATOM      4  O   UNL     1      -1.499  -2.745  25.465  0.00  0.00    -0.251 OA
ATOM     19  C   UNL     1      -1.974  -2.917  24.352  0.00  0.00    +0.305 C 
BRANCH  19   3
ATOM      3  O   UNL     1      -1.235  -3.227  23.256  0.00  0.00    -0.481 OA
ATOM     33  H   UNL     1      -1.662  -2.920  22.428  0.00  0.00    +0.295 HD
ENDBRANCH  19   3
ENDBRANCH  15  19
ENDBRANCH  10  15
TORSDOF 8
ENDMDL
MODEL 4
REMARK VINA RESULT:       5.5      2.233      4.844
REMARK  Name = 51136610
REMARK  10 active torsions:
REMARK  status: ('A' for Active; 'I' for Inactive)
REMARK    1  A    between atoms: O_3  and  C_19
REMARK    2  A    between atoms: O_5  and  C_26
REMARK    3  A    between atoms: O_5  and  C_31
REMARK    4  A    between atoms: O_6  and  C_27
REMARK    5  A    between atoms: O_6  and  C_32
REMARK    6  A    between atoms: C_9  and  C_13
REMARK    7  A    between atoms: C_10  and  C_15
REMARK    8  A    between atoms: C_13  and  C_16
REMARK    9  A    between atoms: C_15  and  C_19
REMARK   10  A    between atoms: C_17  and  C_23
REMARK                            x       y       z     vdW  Elec       q    Type
REMARK                         _______ _______ _______ _____ _____    ______ ____
ROOT
ATOM      2  O   UNL     1       2.928  -2.347  24.516  0.00  0.00    -0.269 OA
ATOM      7  N   UNL     1       1.070  -1.340  23.514  0.00  0.00    -0.297 N 
ATOM      9  C   UNL     1      -0.713   0.391  23.543  0.00  0.00    +0.016 C 
ATOM     10  C   UNL     1      -1.723  -0.711  23.952  0.00  0.00    +0.006 C 
ATOM     11  C   UNL     1      -1.029  -1.867  24.693  0.00  0.00    +0.023 C 
ATOM     12  C   UNL     1       0.458  -0.234  22.763  0.00  0.00    +0.112 C 
ATOM     14  C   UNL     1       0.148  -2.411  23.887  0.00  0.00    +0.108 C 
ATOM     17  C   UNL     1       2.414  -1.427  23.883  0.00  0.00    +0.253 C 
ENDROOT
BRANCH  17  23
ATOM      1  S   UNL     1       4.958  -0.401  23.945  0.00  0.00    -0.092 S 
ATOM     23  C   UNL     1       3.309  -0.332  23.491  0.00  0.00    +0.074 A 
ATOM     28  C   UNL     1       3.017   0.807  22.774  0.00  0.00    +0.021 A 
ATOM     29  C   UNL     1       4.163   1.635  22.595  0.00  0.00    +0.008 A 
ATOM     30  C   UNL     1       5.286   1.096  23.182  0.00  0.00    +0.046 A 
ENDBRANCH  17  23
BRANCH   9  13
ATOM     13  C   UNL     1      -0.186   1.222  24.720  0.00  0.00    +0.061 C 
BRANCH  13  16
ATOM      8  N   UNL     1       0.267   3.492  24.082  0.00  0.00    -0.287 NA
ATOM     16  C   UNL     1      -0.603   2.664  24.557  0.00  0.00    +0.044 C 
ATOM     18  C   UNL     1      -1.978   3.059  24.954  0.00  0.00    +0.003 A 
ATOM     20  C   UNL     1      -2.207   4.426  25.158  0.00  0.00    -0.033 A 
ATOM     21  C   UNL     1      -1.065   5.382  24.982  0.00  0.00    +0.059 C 
ATOM     22  C   UNL     1      -0.157   4.880  23.867  0.00  0.00    +0.146 C 
ATOM     24  C   UNL     1      -3.008   2.134  25.134  0.00  0.00    +0.059 A 
ATOM     25  C   UNL     1      -3.470   4.860  25.571  0.00  0.00    +0.053 A 
ATOM     26  C   UNL     1      -4.270   2.579  25.531  0.00  0.00    +0.162 A 
ATOM     27  C   UNL     1      -4.499   3.936  25.753  0.00  0.00    +0.162 A 
BRANCH  26   5
ATOM      5  O   UNL     1      -5.273   1.672  25.705  0.00  0.00    -0.491 OA
ATOM     31  C   UNL     1      -6.271   1.609  24.688  0.00  0.00    +0.277 C 
ENDBRANCH  26   5
BRANCH  27   6
ATOM      6  O   UNL     1      -5.728   4.375  26.149  0.00  0.00    -0.491 OA
ATOM     32  C   UNL     1      -6.336   5.396  25.360  0.00  0.00    +0.277 C 
ENDBRANCH  27   6
ENDBRANCH  13  16
ENDBRANCH   9  13
BRANCH  10  15
ATOM     15  C   UNL     1      -2.898  -0.176  24.771  0.00  0.00    +0.124 C 
BRANCH  15  19
ATOM      4  O   UNL     1      -3.761  -1.613  26.540  0.00  0.00    -0.251 OA
ATOM     19  C   UNL     1      -3.715  -1.291  25.363  0.00  0.00    +0.305 C 
BRANCH  19   3
ATOM      3  O   UNL     1      -4.419  -1.912  24.382  0.00  0.00    -0.481 OA
ATOM     33  H   UNL     1      -4.954  -2.657  24.731  0.00  0.00    +0.295 HD
ENDBRANCH  19   3
ENDBRANCH  15  19
ENDBRANCH  10  15
TORSDOF 8
ENDMDL
MODEL 5
REMARK VINA RESULT:       6.1      2.085      5.302
REMARK  Name = 51136610
REMARK  10 active torsions:
REMARK  status: ('A' for Active; 'I' for Inactive)
REMARK    1  A    between atoms: O_3  and  C_19
REMARK    2  A    between atoms: O_5  and  C_26
REMARK    3  A    between atoms: O_5  and  C_31
REMARK    4  A    between atoms: O_6  and  C_27
REMARK    5  A    between atoms: O_6  and  C_32
REMARK    6  A    between atoms: C_9  and  C_13
REMARK    7  A    between atoms: C_10  and  C_15
REMARK    8  A    between atoms: C_13  and  C_16
REMARK    9  A    between atoms: C_15  and  C_19
REMARK   10  A    between atoms: C_17  and  C_23
REMARK                            x       y       z     vdW  Elec       q    Type
REMARK                         _______ _______ _______ _____ _____    ______ ____
ROOT
ATOM      2  O   UNL     1      -1.245   5.589  25.405  0.00  0.00    -0.269 OA
ATOM      7  N   UNL     1      -1.020   3.735  23.998  0.00  0.00    -0.297 N 
ATOM      9  C   UNL     1      -0.615   1.301  23.696  0.00  0.00    +0.016 C 
ATOM     10  C   UNL     1       0.825   1.638  23.232  0.00  0.00    +0.006 C 
ATOM     11  C   UNL     1       1.316   2.967  23.829  0.00  0.00    +0.023 C 
ATOM     12  C   UNL     1      -1.549   2.493  23.416  0.00  0.00    +0.112 C 
ATOM     14  C   UNL     1       0.326   4.095  23.553  0.00  0.00    +0.108 C 
ATOM     17  C   UNL     1      -1.687   4.553  24.912  0.00  0.00    +0.253 C 
ENDROOT
BRANCH  17  23
ATOM      1  S   UNL     1      -4.296   4.125  24.176  0.00  0.00    -0.092 S 
ATOM     23  C   UNL     1      -3.036   4.158  25.335  0.00  0.00    +0.074 A 
ATOM     28  C   UNL     1      -3.474   3.786  26.586  0.00  0.00    +0.021 A 
ATOM     29  C   UNL     1      -4.863   3.471  26.595  0.00  0.00    +0.008 A 
ATOM     30  C   UNL     1      -5.433   3.613  25.350  0.00  0.00    +0.046 A 
ENDBRANCH  17  23
BRANCH   9  13
ATOM     13  C   UNL     1      -0.713   0.884  25.170  0.00  0.00    +0.061 C 
BRANCH  13  16
ATOM      8  N   UNL     1       0.047  -1.326  25.722  0.00  0.00    -0.287 NA
ATOM     16  C   UNL     1      -0.925  -0.608  25.267  0.00  0.00    +0.044 C 
ATOM     18  C   UNL     1      -2.228  -1.173  24.834  0.00  0.00    +0.003 A 
ATOM     20  C   UNL     1      -2.262  -2.549  24.571  0.00  0.00    -0.033 A 
ATOM     21  C   UNL     1      -0.999  -3.343  24.725  0.00  0.00    +0.059 C 
ATOM     22  C   UNL     1      -0.181  -2.767  25.874  0.00  0.00    +0.146 C 
ATOM     24  C   UNL     1      -3.375  -0.394  24.674  0.00  0.00    +0.059 A 
ATOM     25  C   UNL     1      -3.447  -3.136  24.120  0.00  0.00    +0.053 A 
ATOM     26  C   UNL     1      -4.559  -0.993  24.240  0.00  0.00    +0.162 A 
ATOM     27  C   UNL     1      -4.594  -2.359  23.960  0.00  0.00    +0.162 A 
BRANCH  26   5
ATOM      5  O   UNL     1      -5.677  -0.228  24.088  0.00  0.00    -0.491 OA
ATOM     31  C   UNL     1      -5.852   0.850  25.005  0.00  0.00    +0.277 C 
ENDBRANCH  26   5
BRANCH  27   6
ATOM      6  O   UNL     1      -5.745  -2.947  23.527  0.00  0.00    -0.491 OA
ATOM     32  C   UNL     1      -5.614  -4.012  22.588  0.00  0.00    +0.277 C 
ENDBRANCH  27   6
ENDBRANCH  13  16
ENDBRANCH   9  13
BRANCH  10  15
ATOM     15  C   UNL     1       1.825   0.517  23.517  0.00  0.00    +0.124 C 
BRANCH  15  19
ATOM      4  O   UNL     1       4.101   0.806  22.692  0.00  0.00    -0.251 OA
ATOM     19  C   UNL     1       2.935   0.494  22.502  0.00  0.00    +0.305 C 
BRANCH  19   3
ATOM      3  O   UNL     1       2.454   0.064  21.308  0.00  0.00    -0.481 OA
ATOM     33  H   UNL     1       2.453   0.779  20.635  0.00  0.00    +0.295 HD
ENDBRANCH  19   3
ENDBRANCH  15  19
ENDBRANCH  10  15
TORSDOF 8
ENDMDL
MODEL 6
REMARK VINA RESULT:       6.6      2.081      6.837
REMARK  Name = 51136610
REMARK  10 active torsions:
REMARK  status: ('A' for Active; 'I' for Inactive)
REMARK    1  A    between atoms: O_3  and  C_19
REMARK    2  A    between atoms: O_5  and  C_26
REMARK    3  A    between atoms: O_5  and  C_31
REMARK    4  A    between atoms: O_6  and  C_27
REMARK    5  A    between atoms: O_6  and  C_32
REMARK    6  A    between atoms: C_9  and  C_13
REMARK    7  A    between atoms: C_10  and  C_15
REMARK    8  A    between atoms: C_13  and  C_16
REMARK    9  A    between atoms: C_15  and  C_19
REMARK   10  A    between atoms: C_17  and  C_23
REMARK                            x       y       z     vdW  Elec       q    Type
REMARK                         _______ _______ _______ _____ _____    ______ ____
ROOT
ATOM      2  O   UNL     1      -5.692   1.012  25.603  0.00  0.00    -0.269 OA
ATOM      7  N   UNL     1      -4.116   1.576  23.968  0.00  0.00    -0.297 N 
ATOM      9  C   UNL     1      -1.758   2.008  23.314  0.00  0.00    +0.016 C 
ATOM     10  C   UNL     1      -2.077   3.525  23.313  0.00  0.00    +0.006 C 
ATOM     11  C   UNL     1      -3.239   3.859  24.264  0.00  0.00    +0.023 C 
ATOM     12  C   UNL     1      -3.041   1.202  23.039  0.00  0.00    +0.112 C 
ATOM     14  C   UNL     1      -4.462   2.997  23.967  0.00  0.00    +0.108 C 
ATOM     17  C   UNL     1      -4.796   0.702  24.820  0.00  0.00    +0.253 C 
ENDROOT
BRANCH  17  23
ATOM      1  S   UNL     1      -3.675  -1.407  26.172  0.00  0.00    -0.092 S 
ATOM     23  C   UNL     1      -4.420  -0.717  24.794  0.00  0.00    +0.074 A 
ATOM     28  C   UNL     1      -4.583  -1.635  23.780  0.00  0.00    +0.021 A 
ATOM     29  C   UNL     1      -4.088  -2.922  24.139  0.00  0.00    +0.008 A 
ATOM     30  C   UNL     1      -3.567  -2.938  25.413  0.00  0.00    +0.046 A 
ENDBRANCH  17  23
BRANCH   9  13
ATOM     13  C   UNL     1      -1.085   1.514  24.601  0.00  0.00    +0.061 C 
BRANCH  13  16
ATOM      8  N   UNL     1      -1.390  -0.867  24.559  0.00  0.00    -0.287 NA
ATOM     16  C   UNL     1      -0.563   0.112  24.401  0.00  0.00    +0.044 C 
ATOM     18  C   UNL     1       0.866  -0.074  24.041  0.00  0.00    +0.003 A 
ATOM     20  C   UNL     1       1.405  -1.352  24.241  0.00  0.00    -0.033 A 
ATOM     21  C   UNL     1       0.525  -2.425  24.809  0.00  0.00    +0.059 C 
ATOM     22  C   UNL     1      -0.899  -2.226  24.305  0.00  0.00    +0.146 C 
ATOM     24  C   UNL     1       1.660   0.959  23.541  0.00  0.00    +0.059 A 
ATOM     25  C   UNL     1       2.755  -1.582  23.960  0.00  0.00    +0.053 A 
ATOM     26  C   UNL     1       3.002   0.715  23.247  0.00  0.00    +0.162 A 
ATOM     27  C   UNL     1       3.549  -0.550  23.460  0.00  0.00    +0.162 A 
BRANCH  26   5
ATOM      5  O   UNL     1       3.773   1.726  22.757  0.00  0.00    -0.491 OA
ATOM     31  C   UNL     1       4.191   1.620  21.397  0.00  0.00    +0.277 C 
ENDBRANCH  26   5
BRANCH  27   6
ATOM      6  O   UNL     1       4.862  -0.792  23.184  0.00  0.00    -0.491 OA
ATOM     32  C   UNL     1       5.806  -0.487  24.208  0.00  0.00    +0.277 C 
ENDBRANCH  27   6
ENDBRANCH  13  16
ENDBRANCH   9  13
BRANCH  10  15
ATOM     15  C   UNL     1      -0.859   4.396  23.623  0.00  0.00    +0.124 C 
BRANCH  15  19
ATOM      4  O   UNL     1      -1.399   6.042  25.338  0.00  0.00    -0.251 OA
ATOM     19  C   UNL     1      -0.924   4.964  25.014  0.00  0.00    +0.305 C 
BRANCH  19   3
ATOM      3  O   UNL     1      -0.367   4.091  25.891  0.00  0.00    -0.481 OA
ATOM     33  H   UNL     1      -0.236   4.495  26.776  0.00  0.00    +0.295 HD
ENDBRANCH  19   3
ENDBRANCH  15  19
ENDBRANCH  10  15
TORSDOF 8
ENDMDL
MODEL 7
REMARK VINA RESULT:       7.3      1.568      1.846
REMARK  Name = 51136610
REMARK  10 active torsions:
REMARK  status: ('A' for Active; 'I' for Inactive)
REMARK    1  A    between atoms: O_3  and  C_19
REMARK    2  A    between atoms: O_5  and  C_26
REMARK    3  A    between atoms: O_5  and  C_31
REMARK    4  A    between atoms: O_6  and  C_27
REMARK    5  A    between atoms: O_6  and  C_32
REMARK    6  A    between atoms: C_9  and  C_13
REMARK    7  A    between atoms: C_10  and  C_15
REMARK    8  A    between atoms: C_13  and  C_16
REMARK    9  A    between atoms: C_15  and  C_19
REMARK   10  A    between atoms: C_17  and  C_23
REMARK                            x       y       z     vdW  Elec       q    Type
REMARK                         _______ _______ _______ _____ _____    ______ ____
ROOT
ATOM      2  O   UNL     1      -3.380  -2.551  23.063  0.00  0.00    -0.269 OA
ATOM      7  N   UNL     1      -1.289  -1.959  23.929  0.00  0.00    -0.297 N 
ATOM      9  C   UNL     1       0.536  -0.292  24.189  0.00  0.00    +0.016 C 
ATOM     10  C   UNL     1       1.363  -1.093  23.151  0.00  0.00    +0.006 C 
ATOM     11  C   UNL     1       0.455  -1.878  22.190  0.00  0.00    +0.023 C 
ATOM     12  C   UNL     1      -0.461  -1.226  24.898  0.00  0.00    +0.112 C 
ATOM     14  C   UNL     1      -0.537  -2.750  22.955  0.00  0.00    +0.108 C 
ATOM     17  C   UNL     1      -2.684  -1.945  23.876  0.00  0.00    +0.253 C 
ENDROOT
BRANCH  17  23
ATOM      1  S   UNL     1      -4.446   0.109  24.332  0.00  0.00    -0.092 S 
ATOM     23  C   UNL     1      -3.404  -1.139  24.869  0.00  0.00    +0.074 A 
ATOM     28  C   UNL     1      -3.373  -1.232  26.243  0.00  0.00    +0.021 A 
ATOM     29  C   UNL     1      -4.217  -0.266  26.864  0.00  0.00    +0.008 A 
ATOM     30  C   UNL     1      -4.859   0.528  25.940  0.00  0.00    +0.046 A 
ENDBRANCH  17  23
BRANCH   9  13
ATOM     13  C   UNL     1      -0.196   0.921  23.601  0.00  0.00    +0.061 C 
BRANCH  13  16
ATOM      8  N   UNL     1       0.532   2.155  25.528  0.00  0.00    -0.287 NA
ATOM     16  C   UNL     1      -0.418   1.957  24.676  0.00  0.00    +0.044 C 
ATOM     18  C   UNL     1      -1.710   2.688  24.707  0.00  0.00    +0.003 A 
ATOM     20  C   UNL     1      -2.039   3.338  25.905  0.00  0.00    -0.033 A 
ATOM     21  C   UNL     1      -1.088   3.240  27.061  0.00  0.00    +0.059 C 
ATOM     22  C   UNL     1       0.341   3.203  26.535  0.00  0.00    +0.146 C 
ATOM     24  C   UNL     1      -2.581   2.732  23.617  0.00  0.00    +0.059 A 
ATOM     25  C   UNL     1      -3.259   4.010  26.012  0.00  0.00    +0.053 A 
ATOM     26  C   UNL     1      -3.790   3.420  23.729  0.00  0.00    +0.162 A 
ATOM     27  C   UNL     1      -4.130   4.053  24.924  0.00  0.00    +0.162 A 
BRANCH  26   5
ATOM      5  O   UNL     1      -4.636   3.461  22.661  0.00  0.00    -0.491 OA
ATOM     31  C   UNL     1      -4.041   3.444  21.364  0.00  0.00    +0.277 C 
ENDBRANCH  26   5
BRANCH  27   6
ATOM      6  O   UNL     1      -5.313   4.720  25.041  0.00  0.00    -0.491 OA
ATOM     32  C   UNL     1      -6.345   4.080  25.790  0.00  0.00    +0.277 C 
ENDBRANCH  27   6
ENDBRANCH  13  16
ENDBRANCH   9  13
BRANCH  10  15
ATOM     15  C   UNL     1       2.351  -0.225  22.371  0.00  0.00    +0.124 C 
BRANCH  15  19
ATOM      4  O   UNL     1       4.323   0.961  23.174  0.00  0.00    -0.251 OA
ATOM     19  C   UNL     1       3.647  -0.055  23.113  0.00  0.00    +0.305 C 
BRANCH  19   3
ATOM      3  O   UNL     1       3.978  -1.219  23.728  0.00  0.00    -0.481 OA
ATOM     33  H   UNL     1       4.932  -1.426  23.631  0.00  0.00    +0.295 HD
ENDBRANCH  19   3
ENDBRANCH  15  19
ENDBRANCH  10  15
TORSDOF 8
ENDMDL
MODEL 8
REMARK VINA RESULT:       7.4      1.762      6.351
REMARK  Name = 51136610
REMARK  10 active torsions:
REMARK  status: ('A' for Active; 'I' for Inactive)
REMARK    1  A    between atoms: O_3  and  C_19
REMARK    2  A    between atoms: O_5  and  C_26
REMARK    3  A    between atoms: O_5  and  C_31
REMARK    4  A    between atoms: O_6  and  C_27
REMARK    5  A    between atoms: O_6  and  C_32
REMARK    6  A    between atoms: C_9  and  C_13
REMARK    7  A    between atoms: C_10  and  C_15
REMARK    8  A    between atoms: C_13  and  C_16
REMARK    9  A    between atoms: C_15  and  C_19
REMARK   10  A    between atoms: C_17  and  C_23
REMARK                            x       y       z     vdW  Elec       q    Type
REMARK                         _______ _______ _______ _____ _____    ______ ____
ROOT
ATOM      2  O   UNL     1      -4.717  -2.013  25.780  0.00  0.00    -0.269 OA
ATOM      7  N   UNL     1      -4.315  -0.241  24.307  0.00  0.00    -0.297 N 
ATOM      9  C   UNL     1      -3.401   2.029  23.873  0.00  0.00    +0.016 C 
ATOM     10  C   UNL     1      -4.852   2.575  23.893  0.00  0.00    +0.006 C 
ATOM     11  C   UNL     1      -5.775   1.694  24.752  0.00  0.00    +0.023 C 
ATOM     12  C   UNL     1      -3.405   0.546  23.462  0.00  0.00    +0.112 C 
ATOM     14  C   UNL     1      -5.699   0.232  24.322  0.00  0.00    +0.108 C 
ATOM     17  C   UNL     1      -3.959  -1.356  25.067  0.00  0.00    +0.253 C 
ENDROOT
BRANCH  17  23
ATOM      1  S   UNL     1      -1.432  -1.095  26.105  0.00  0.00    -0.092 S 
ATOM     23  C   UNL     1      -2.561  -1.800  25.028  0.00  0.00    +0.074 A 
ATOM     28  C   UNL     1      -1.979  -2.748  24.216  0.00  0.00    +0.021 A 
ATOM     29  C   UNL     1      -0.587  -2.898  24.482  0.00  0.00    +0.008 A 
ATOM     30  C   UNL     1      -0.160  -2.059  25.486  0.00  0.00    +0.046 A 
ENDBRANCH  17  23
BRANCH   9  13
ATOM     13  C   UNL     1      -2.647   2.213  25.196  0.00  0.00    +0.061 C 
BRANCH  13  16
ATOM      8  N   UNL     1      -1.563   4.345  25.407  0.00  0.00    -0.287 NA
ATOM     16  C   UNL     1      -1.464   3.127  24.989  0.00  0.00    +0.044 C 
ATOM     18  C   UNL     1      -0.254   2.588  24.316  0.00  0.00    +0.003 A 
ATOM     20  C   UNL     1       0.649   3.526  23.798  0.00  0.00    -0.033 A 
ATOM     21  C   UNL     1       0.334   4.985  23.942  0.00  0.00    +0.059 C 
ATOM     22  C   UNL     1      -0.391   5.216  25.261  0.00  0.00    +0.146 C 
ATOM     24  C   UNL     1      -0.012   1.221  24.178  0.00  0.00    +0.059 A 
ATOM     25  C   UNL     1       1.787   3.084  23.117  0.00  0.00    +0.053 A 
ATOM     26  C   UNL     1       1.136   0.789  23.511  0.00  0.00    +0.162 A 
ATOM     27  C   UNL     1       2.030   1.717  22.979  0.00  0.00    +0.162 A 
BRANCH  26   5
ATOM      5  O   UNL     1       1.369  -0.547  23.381  0.00  0.00    -0.491 OA
ATOM     31  C   UNL     1       1.177  -1.114  22.086  0.00  0.00    +0.277 C 
ENDBRANCH  26   5
BRANCH  27   6
ATOM      6  O   UNL     1       3.148   1.302  22.319  0.00  0.00    -0.491 OA
ATOM     32  C   UNL     1       4.246   0.865  23.117  0.00  0.00    +0.277 C 
ENDBRANCH  27   6
ENDBRANCH  13  16
ENDBRANCH   9  13
BRANCH  10  15
ATOM     15  C   UNL     1      -4.938   4.036  24.336  0.00  0.00    +0.124 C 
BRANCH  15  19
ATOM      4  O   UNL     1      -4.745   3.805  26.755  0.00  0.00    -0.251 OA
ATOM     19  C   UNL     1      -5.376   4.157  25.769  0.00  0.00    +0.305 C 
BRANCH  19   3
ATOM      3  O   UNL     1      -6.606   4.728  25.825  0.00  0.00    -0.481 OA
ATOM     33  H   UNL     1      -7.073   4.676  24.963  0.00  0.00    +0.295 HD
ENDBRANCH  19   3
ENDBRANCH  15  19
ENDBRANCH  10  15
TORSDOF 8
ENDMDL
MODEL 9
REMARK VINA RESULT:       7.5      3.006      6.352
REMARK  Name = 51136610
REMARK  10 active torsions:
REMARK  status: ('A' for Active; 'I' for Inactive)
REMARK    1  A    between atoms: O_3  and  C_19
REMARK    2  A    between atoms: O_5  and  C_26
REMARK    3  A    between atoms: O_5  and  C_31
REMARK    4  A    between atoms: O_6  and  C_27
REMARK    5  A    between atoms: O_6  and  C_32
REMARK    6  A    between atoms: C_9  and  C_13
REMARK    7  A    between atoms: C_10  and  C_15
REMARK    8  A    between atoms: C_13  and  C_16
REMARK    9  A    between atoms: C_15  and  C_19
REMARK   10  A    between atoms: C_17  and  C_23
REMARK                            x       y       z     vdW  Elec       q    Type
REMARK                         _______ _______ _______ _____ _____    ______ ____
ROOT
ATOM      2  O   UNL     1      -0.723  -2.534  24.147  0.00  0.00    -0.269 OA
ATOM      7  N   UNL     1      -2.312  -0.869  23.725  0.00  0.00    -0.297 N 
ATOM      9  C   UNL     1      -3.565   1.144  24.468  0.00  0.00    +0.016 C 
ATOM     10  C   UNL     1      -4.801   0.239  24.707  0.00  0.00    +0.006 C 
ATOM     11  C   UNL     1      -4.389  -1.213  25.005  0.00  0.00    +0.023 C 
ATOM     12  C   UNL     1      -2.658   0.520  23.392  0.00  0.00    +0.112 C 
ATOM     14  C   UNL     1      -3.457  -1.755  23.925  0.00  0.00    +0.108 C 
ATOM     17  C   UNL     1      -1.017  -1.374  23.863  0.00  0.00    +0.253 C 
ENDROOT
BRANCH  17  23
ATOM      1  S   UNL     1       1.209  -0.758  22.379  0.00  0.00    -0.092 S 
ATOM     23  C   UNL     1       0.107  -0.453  23.655  0.00  0.00    +0.074 A 
ATOM     28  C   UNL     1       0.436   0.682  24.362  0.00  0.00    +0.021 A 
ATOM     29  C   UNL     1       1.608   1.310  23.850  0.00  0.00    +0.008 A 
ATOM     30  C   UNL     1       2.129   0.631  22.772  0.00  0.00    +0.046 A 
ENDBRANCH  17  23
BRANCH   9  13
ATOM     13  C   UNL     1      -2.757   1.443  25.737  0.00  0.00    +0.061 C 
BRANCH  13  16
ATOM      8  N   UNL     1      -2.364   3.560  24.674  0.00  0.00    -0.287 NA
ATOM     16  C   UNL     1      -1.946   2.702  25.544  0.00  0.00    +0.044 C 
ATOM     18  C   UNL     1      -0.713   2.888  26.351  0.00  0.00    +0.003 A 
ATOM     20  C   UNL     1       0.204   3.842  25.890  0.00  0.00    -0.033 A 
ATOM     21  C   UNL     1      -0.106   4.587  24.626  0.00  0.00    +0.059 C 
ATOM     22  C   UNL     1      -1.609   4.810  24.530  0.00  0.00    +0.146 C 
ATOM     24  C   UNL     1      -0.449   2.153  27.508  0.00  0.00    +0.059 A 
ATOM     25  C   UNL     1       1.403   4.036  26.582  0.00  0.00    +0.053 A 
ATOM     26  C   UNL     1       0.744   2.366  28.201  0.00  0.00    +0.162 A 
ATOM     27  C   UNL     1       1.668   3.302  27.738  0.00  0.00    +0.162 A 
BRANCH  26   5
ATOM      5  O   UNL     1       0.997   1.647  29.331  0.00  0.00    -0.491 OA
ATOM     31  C   UNL     1       0.938   2.350  30.571  0.00  0.00    +0.277 C 
ENDBRANCH  26   5
BRANCH  27   6
ATOM      6  O   UNL     1       2.838   3.508  28.406  0.00  0.00    -0.491 OA
ATOM     32  C   UNL     1       3.770   2.429  28.429  0.00  0.00    +0.277 C 
ENDBRANCH  27   6
ENDBRANCH  13  16
ENDBRANCH   9  13
BRANCH  10  15
ATOM     15  C   UNL     1      -5.732   0.769  25.797  0.00  0.00    +0.124 C 
BRANCH  15  19
ATOM      4  O   UNL     1      -5.794   3.205  25.880  0.00  0.00    -0.251 OA
ATOM     19  C   UNL     1      -6.243   2.145  25.469  0.00  0.00    +0.305 C 
BRANCH  19   3
ATOM      3  O   UNL     1      -7.304   2.050  24.628  0.00  0.00    -0.481 OA
ATOM     33  H   UNL     1      -7.027   2.053  23.687  0.00  0.00    +0.295 HD
ENDBRANCH  19   3
ENDBRANCH  15  19
ENDBRANCH  10  15
TORSDOF 8
ENDMDL
