MODEL 1
REMARK VINA RESULT:      -4.2      0.000      0.000
REMARK  Name = 51137871
REMARK  4 active torsions:
REMARK  status: ('A' for Active; 'I' for Inactive)
REMARK    1  A    between atoms: N_2  and  C_12
REMARK    2  A    between atoms: C_7  and  C_11
REMARK    3  A    between atoms: C_12  and  C_15
REMARK    4  A    between atoms: C_16  and  C_21
REMARK                            x       y       z     vdW  Elec       q    Type
REMARK                         _______ _______ _______ _____ _____    ______ ____
ROOT
ATOM      3  N   UNL     1      17.405  -6.305  25.518  0.00  0.00    -0.342 N 
ATOM      4  N   UNL     1      17.291  -4.386  26.633  0.00  0.00    -0.231 NA
ATOM     11  C   UNL     1      17.356  -5.694  26.740  0.00  0.00    +0.113 A 
ATOM     13  C   UNL     1      17.368  -5.326  24.558  0.00  0.00    +0.067 A 
ATOM     14  C   UNL     1      17.297  -4.137  25.279  0.00  0.00    +0.101 A 
ATOM     16  C   UNL     1      17.244  -2.917  24.584  0.00  0.00    +0.064 A 
ATOM     17  C   UNL     1      17.390  -5.376  23.164  0.00  0.00    +0.028 A 
ATOM     19  C   UNL     1      17.265  -2.943  23.185  0.00  0.00    +0.015 A 
ATOM     20  C   UNL     1      17.337  -4.153  22.489  0.00  0.00    +0.003 A 
ATOM     25  H   UNL     1      17.459  -7.300  25.347  0.00  0.00    +0.167 HD
ENDROOT
BRANCH  16  21
ATOM      1  O   UNL     1      16.997  -0.578  24.699  0.00  0.00    -0.270 OA
ATOM      6  N   UNL     1      17.286  -1.685  26.687  0.00  0.00    -0.325 N 
ATOM     21  C   UNL     1      17.172  -1.655  25.299  0.00  0.00    +0.244 C 
ATOM     26  H   UNL     1      17.234  -0.824  27.220  0.00  0.00    +0.145 HD
ATOM     27  H   UNL     1      17.423  -2.533  27.225  0.00  0.00    +0.145 HD
ENDBRANCH  16  21
BRANCH  11   7
ATOM      2  N   UNL     1      16.011  -7.695  29.499  0.00  0.00    -0.296 NA
ATOM      7  C   UNL     1      17.381  -6.496  28.021  0.00  0.00    +0.070 C 
ATOM      8  C   UNL     1      17.163  -5.674  29.303  0.00  0.00    +0.028 C 
ATOM      9  C   UNL     1      16.298  -7.581  28.067  0.00  0.00    +0.096 C 
ATOM     10  C   UNL     1      15.961  -6.316  29.984  0.00  0.00    +0.085 C 
BRANCH   2  12
ATOM     12  C   UNL     1      14.777  -8.420  29.762  0.00  0.00    +0.139 C 
BRANCH  12  15
ATOM      5  N   UNL     1      14.039  -7.924  32.027  0.00  0.00    -0.259 NA
ATOM     15  C   UNL     1      13.878  -7.671  30.709  0.00  0.00    +0.055 A 
ATOM     18  C   UNL     1      12.951  -6.776  30.199  0.00  0.00    +0.024 A 
ATOM     22  C   UNL     1      12.136  -6.099  31.100  0.00  0.00    +0.003 A 
ATOM     23  C   UNL     1      13.229  -7.247  32.872  0.00  0.00    +0.111 A 
ATOM     24  C   UNL     1      12.271  -6.333  32.463  0.00  0.00    +0.020 A 
ENDBRANCH  12  15
ENDBRANCH   2  12
ENDBRANCH  11   7
TORSDOF 4
ENDMDL
MODEL 2
REMARK VINA RESULT:      -3.9     17.671     19.829
REMARK  Name = 51137871
REMARK  4 active torsions:
REMARK  status: ('A' for Active; 'I' for Inactive)
REMARK    1  A    between atoms: N_2  and  C_12
REMARK    2  A    between atoms: C_7  and  C_11
REMARK    3  A    between atoms: C_12  and  C_15
REMARK    4  A    between atoms: C_16  and  C_21
REMARK                            x       y       z     vdW  Elec       q    Type
REMARK                         _______ _______ _______ _____ _____    ______ ____
ROOT
ATOM      3  N   UNL     1      -1.651   2.753  25.085  0.00  0.00    -0.342 N 
ATOM      4  N   UNL     1      -3.270   1.244  25.288  0.00  0.00    -0.231 NA
ATOM     11  C   UNL     1      -1.977   1.427  25.147  0.00  0.00    +0.113 A 
ATOM     13  C   UNL     1      -2.812   3.474  25.193  0.00  0.00    +0.067 A 
ATOM     14  C   UNL     1      -3.809   2.510  25.319  0.00  0.00    +0.101 A 
ATOM     16  C   UNL     1      -5.145   2.921  25.452  0.00  0.00    +0.064 A 
ATOM     17  C   UNL     1      -3.069   4.846  25.191  0.00  0.00    +0.028 A 
ATOM     19  C   UNL     1      -5.427   4.292  25.454  0.00  0.00    +0.015 A 
ATOM     20  C   UNL     1      -4.405   5.236  25.325  0.00  0.00    +0.003 A 
ATOM     25  H   UNL     1      -0.722   3.137  24.978  0.00  0.00    +0.167 HD
ENDROOT
BRANCH  16  21
ATOM      1  O   UNL     1      -6.689   1.359  24.599  0.00  0.00    -0.270 OA
ATOM      6  N   UNL     1      -6.685   1.673  26.871  0.00  0.00    -0.325 N 
ATOM     21  C   UNL     1      -6.214   1.947  25.589  0.00  0.00    +0.244 C 
ATOM     26  H   UNL     1      -7.427   0.995  27.007  0.00  0.00    +0.145 HD
ATOM     27  H   UNL     1      -6.332   2.118  27.711  0.00  0.00    +0.145 HD
ENDBRANCH  16  21
BRANCH  11   7
ATOM      2  N   UNL     1       0.749  -0.515  23.654  0.00  0.00    -0.296 NA
ATOM      7  C   UNL     1      -0.917   0.353  25.058  0.00  0.00    +0.070 C 
ATOM      8  C   UNL     1      -1.395  -0.979  24.454  0.00  0.00    +0.028 C 
ATOM      9  C   UNL     1       0.280   0.764  24.192  0.00  0.00    +0.096 C 
ATOM     10  C   UNL     1      -0.468  -1.231  23.272  0.00  0.00    +0.085 C 
BRANCH   2  12
ATOM     12  C   UNL     1       1.666  -0.345  22.537  0.00  0.00    +0.139 C 
BRANCH  12  15
ATOM      5  N   UNL     1       3.592  -1.413  23.572  0.00  0.00    -0.259 NA
ATOM     15  C   UNL     1       3.100  -0.295  22.992  0.00  0.00    +0.055 A 
ATOM     18  C   UNL     1       3.833   0.866  22.799  0.00  0.00    +0.024 A 
ATOM     22  C   UNL     1       5.155   0.879  23.230  0.00  0.00    +0.003 A 
ATOM     23  C   UNL     1       4.881  -1.362  23.978  0.00  0.00    +0.111 A 
ATOM     24  C   UNL     1       5.697  -0.251  23.831  0.00  0.00    +0.020 A 
ENDBRANCH  12  15
ENDBRANCH   2  12
ENDBRANCH  11   7
TORSDOF 4
ENDMDL
MODEL 3
REMARK VINA RESULT:      -3.8     17.273     19.432
REMARK  Name = 51137871
REMARK  4 active torsions:
REMARK  status: ('A' for Active; 'I' for Inactive)
REMARK    1  A    between atoms: N_2  and  C_12
REMARK    2  A    between atoms: C_7  and  C_11
REMARK    3  A    between atoms: C_12  and  C_15
REMARK    4  A    between atoms: C_16  and  C_21
REMARK                            x       y       z     vdW  Elec       q    Type
REMARK                         _______ _______ _______ _____ _____    ______ ____
ROOT
ATOM      3  N   UNL     1      -3.435   0.118  24.815  0.00  0.00    -0.342 N 
ATOM      4  N   UNL     1      -2.146   1.865  25.290  0.00  0.00    -0.231 NA
ATOM     11  C   UNL     1      -2.163   0.589  24.978  0.00  0.00    +0.113 A 
ATOM     13  C   UNL     1      -4.298   1.161  25.038  0.00  0.00    +0.067 A 
ATOM     14  C   UNL     1      -3.469   2.240  25.332  0.00  0.00    +0.101 A 
ATOM     16  C   UNL     1      -4.046   3.489  25.616  0.00  0.00    +0.064 A 
ATOM     17  C   UNL     1      -5.691   1.250  25.008  0.00  0.00    +0.028 A 
ATOM     19  C   UNL     1      -5.442   3.602  25.591  0.00  0.00    +0.015 A 
ATOM     20  C   UNL     1      -6.247   2.501  25.292  0.00  0.00    +0.003 A 
ATOM     25  H   UNL     1      -3.699  -0.828  24.574  0.00  0.00    +0.167 HD
ENDROOT
BRANCH  16  21
ATOM      1  O   UNL     1      -3.544   5.460  26.803  0.00  0.00    -0.270 OA
ATOM      6  N   UNL     1      -2.026   4.793  25.219  0.00  0.00    -0.325 N 
ATOM     21  C   UNL     1      -3.217   4.640  25.925  0.00  0.00    +0.244 C 
ATOM     26  H   UNL     1      -1.417   5.581  25.412  0.00  0.00    +0.145 HD
ATOM     27  H   UNL     1      -1.708   4.153  24.500  0.00  0.00    +0.145 HD
ENDBRANCH  16  21
BRANCH  11   7
ATOM      2  N   UNL     1       0.890  -0.708  23.418  0.00  0.00    -0.296 NA
ATOM      7  C   UNL     1      -0.963  -0.314  24.801  0.00  0.00    +0.070 C 
ATOM      8  C   UNL     1      -1.217  -1.567  23.945  0.00  0.00    +0.028 C 
ATOM      9  C   UNL     1       0.218   0.389  24.120  0.00  0.00    +0.096 C 
ATOM     10  C   UNL     1      -0.193  -1.490  22.820  0.00  0.00    +0.085 C 
BRANCH   2  12
ATOM     12  C   UNL     1       1.842  -0.232  22.427  0.00  0.00    +0.139 C 
BRANCH  12  15
ATOM      5  N   UNL     1       3.690  -1.382  23.516  0.00  0.00    -0.259 NA
ATOM     15  C   UNL     1       3.251  -0.230  22.959  0.00  0.00    +0.055 A 
ATOM     18  C   UNL     1       4.015   0.921  22.854  0.00  0.00    +0.024 A 
ATOM     22  C   UNL     1       5.312   0.889  23.354  0.00  0.00    +0.003 A 
ATOM     23  C   UNL     1       4.955  -1.374  23.991  0.00  0.00    +0.111 A 
ATOM     24  C   UNL     1       5.799  -0.276  23.935  0.00  0.00    +0.020 A 
ENDBRANCH  12  15
ENDBRANCH   2  12
ENDBRANCH  11   7
TORSDOF 4
ENDMDL
MODEL 4
REMARK VINA RESULT:      -3.0     18.724     21.033
REMARK  Name = 51137871
REMARK  4 active torsions:
REMARK  status: ('A' for Active; 'I' for Inactive)
REMARK    1  A    between atoms: N_2  and  C_12
REMARK    2  A    between atoms: C_7  and  C_11
REMARK    3  A    between atoms: C_12  and  C_15
REMARK    4  A    between atoms: C_16  and  C_21
REMARK                            x       y       z     vdW  Elec       q    Type
REMARK                         _______ _______ _______ _____ _____    ______ ____
ROOT
ATOM      3  N   UNL     1      -5.085  -0.730  24.040  0.00  0.00    -0.342 N 
ATOM      4  N   UNL     1      -3.150   0.154  24.686  0.00  0.00    -0.231 NA
ATOM     11  C   UNL     1      -4.417   0.396  24.434  0.00  0.00    +0.113 A 
ATOM     13  C   UNL     1      -4.188  -1.768  24.037  0.00  0.00    +0.067 A 
ATOM     14  C   UNL     1      -2.988  -1.191  24.444  0.00  0.00    +0.101 A 
ATOM     16  C   UNL     1      -1.843  -1.997  24.549  0.00  0.00    +0.064 A 
ATOM     17  C   UNL     1      -4.320  -3.121  23.723  0.00  0.00    +0.028 A 
ATOM     19  C   UNL     1      -1.951  -3.358  24.239  0.00  0.00    +0.015 A 
ATOM     20  C   UNL     1      -3.169  -3.908  23.834  0.00  0.00    +0.003 A 
ATOM     25  H   UNL     1      -6.063  -0.791  23.794  0.00  0.00    +0.167 HD
ENDROOT
BRANCH  16  21
ATOM      1  O   UNL     1       0.195  -2.057  25.729  0.00  0.00    -0.270 OA
ATOM      6  N   UNL     1      -0.224  -0.175  24.488  0.00  0.00    -0.325 N 
ATOM     21  C   UNL     1      -0.572  -1.434  24.972  0.00  0.00    +0.244 C 
ATOM     26  H   UNL     1       0.658   0.247  24.756  0.00  0.00    +0.145 HD
ATOM     27  H   UNL     1      -0.807   0.373  23.865  0.00  0.00    +0.145 HD
ENDBRANCH  16  21
BRANCH  11   7
ATOM      2  N   UNL     1      -4.843   3.931  25.302  0.00  0.00    -0.296 NA
ATOM      7  C   UNL     1      -5.122   1.728  24.545  0.00  0.00    +0.070 C 
ATOM      8  C   UNL     1      -5.920   1.931  25.845  0.00  0.00    +0.028 C 
ATOM      9  C   UNL     1      -4.158   2.921  24.491  0.00  0.00    +0.096 C 
ATOM     10  C   UNL     1      -5.349   3.201  26.464  0.00  0.00    +0.085 C 
BRANCH   2  12
ATOM     12  C   UNL     1      -3.967   5.030  25.676  0.00  0.00    +0.139 C 
BRANCH  12  15
ATOM      5  N   UNL     1      -2.122   3.505  26.119  0.00  0.00    -0.259 NA
ATOM     15  C   UNL     1      -2.514   4.661  25.535  0.00  0.00    +0.055 A 
ATOM     18  C   UNL     1      -1.665   5.500  24.831  0.00  0.00    +0.024 A 
ATOM     22  C   UNL     1      -0.330   5.130  24.719  0.00  0.00    +0.003 A 
ATOM     23  C   UNL     1      -0.817   3.179  25.988  0.00  0.00    +0.111 A 
ATOM     24  C   UNL     1       0.111   3.949  25.305  0.00  0.00    +0.020 A 
ENDBRANCH  12  15
ENDBRANCH   2  12
ENDBRANCH  11   7
TORSDOF 4
ENDMDL
MODEL 5
REMARK VINA RESULT:      -1.2     18.255     20.102
REMARK  Name = 51137871
REMARK  4 active torsions:
REMARK  status: ('A' for Active; 'I' for Inactive)
REMARK    1  A    between atoms: N_2  and  C_12
REMARK    2  A    between atoms: C_7  and  C_11
REMARK    3  A    between atoms: C_12  and  C_15
REMARK    4  A    between atoms: C_16  and  C_21
REMARK                            x       y       z     vdW  Elec       q    Type
REMARK                         _______ _______ _______ _____ _____    ______ ____
ROOT
ATOM      3  N   UNL     1       0.863   2.552  24.371  0.00  0.00    -0.342 N 
ATOM      4  N   UNL     1      -0.854   1.302  25.024  0.00  0.00    -0.231 NA
ATOM     11  C   UNL     1      -0.314   2.500  25.062  0.00  0.00    +0.113 A 
ATOM     13  C   UNL     1       1.100   1.305  23.852  0.00  0.00    +0.067 A 
ATOM     14  C   UNL     1       0.014   0.543  24.273  0.00  0.00    +0.101 A 
ATOM     16  C   UNL     1      -0.056  -0.811  23.906  0.00  0.00    +0.064 A 
ATOM     17  C   UNL     1       2.140   0.793  23.074  0.00  0.00    +0.028 A 
ATOM     19  C   UNL     1       0.976  -1.346  23.125  0.00  0.00    +0.015 A 
ATOM     20  C   UNL     1       2.053  -0.556  22.717  0.00  0.00    +0.003 A 
ATOM     25  H   UNL     1       1.457   3.363  24.259  0.00  0.00    +0.167 HD
ENDROOT
BRANCH  16  21
ATOM      1  O   UNL     1      -1.014  -2.832  24.645  0.00  0.00    -0.270 OA
ATOM      6  N   UNL     1      -2.436  -1.054  24.369  0.00  0.00    -0.325 N 
ATOM     21  C   UNL     1      -1.173  -1.640  24.322  0.00  0.00    +0.244 C 
ATOM     26  H   UNL     1      -3.240  -1.600  24.662  0.00  0.00    +0.145 HD
ATOM     27  H   UNL     1      -2.622  -0.088  24.124  0.00  0.00    +0.145 HD
ENDBRANCH  16  21
BRANCH  11   7
ATOM      2  N   UNL     1      -2.851   4.916  26.138  0.00  0.00    -0.296 NA
ATOM      7  C   UNL     1      -0.869   3.719  25.762  0.00  0.00    +0.070 C 
ATOM      8  C   UNL     1      -0.860   5.008  24.922  0.00  0.00    +0.028 C 
ATOM      9  C   UNL     1      -2.332   3.547  26.193  0.00  0.00    +0.096 C 
ATOM     10  C   UNL     1      -2.309   5.475  24.900  0.00  0.00    +0.085 C 
BRANCH   2  12
ATOM     12  C   UNL     1      -4.305   4.960  26.178  0.00  0.00    +0.139 C 
BRANCH  12  15
ATOM      5  N   UNL     1      -5.783   3.073  26.595  0.00  0.00    -0.259 NA
ATOM     15  C   UNL     1      -4.917   3.657  25.737  0.00  0.00    +0.055 A 
ATOM     18  C   UNL     1      -4.574   3.130  24.501  0.00  0.00    +0.024 A 
ATOM     22  C   UNL     1      -5.158   1.926  24.124  0.00  0.00    +0.003 A 
ATOM     23  C   UNL     1      -6.330   1.904  26.193  0.00  0.00    +0.111 A 
ATOM     24  C   UNL     1      -6.054   1.294  24.980  0.00  0.00    +0.020 A 
ENDBRANCH  12  15
ENDBRANCH   2  12
ENDBRANCH  11   7
TORSDOF 4
ENDMDL
MODEL 6
REMARK VINA RESULT:      -0.9     17.560     19.197
REMARK  Name = 51137871
REMARK  4 active torsions:
REMARK  status: ('A' for Active; 'I' for Inactive)
REMARK    1  A    between atoms: N_2  and  C_12
REMARK    2  A    between atoms: C_7  and  C_11
REMARK    3  A    between atoms: C_12  and  C_15
REMARK    4  A    between atoms: C_16  and  C_21
REMARK                            x       y       z     vdW  Elec       q    Type
REMARK                         _______ _______ _______ _____ _____    ______ ____
ROOT
ATOM      3  N   UNL     1      -0.710   1.398  23.883  0.00  0.00    -0.342 N 
ATOM      4  N   UNL     1       1.371   2.036  24.329  0.00  0.00    -0.231 NA
ATOM     11  C   UNL     1       0.100   2.242  24.590  0.00  0.00    +0.113 A 
ATOM     13  C   UNL     1       0.092   0.594  23.114  0.00  0.00    +0.067 A 
ATOM     14  C   UNL     1       1.386   1.012  23.410  0.00  0.00    +0.101 A 
ATOM     16  C   UNL     1       2.471   0.381  22.778  0.00  0.00    +0.064 A 
ATOM     17  C   UNL     1      -0.195  -0.431  22.211  0.00  0.00    +0.028 A 
ATOM     19  C   UNL     1       2.207  -0.651  21.869  0.00  0.00    +0.015 A 
ATOM     20  C   UNL     1       0.896  -1.048  21.593  0.00  0.00    +0.003 A 
ATOM     25  H   UNL     1      -1.720   1.368  23.917  0.00  0.00    +0.167 HD
ENDROOT
BRANCH  16  21
ATOM      1  O   UNL     1       4.271   1.899  22.713  0.00  0.00    -0.270 OA
ATOM      6  N   UNL     1       4.649  -0.109  23.756  0.00  0.00    -0.325 N 
ATOM     21  C   UNL     1       3.836   0.785  23.061  0.00  0.00    +0.244 C 
ATOM     26  H   UNL     1       5.607   0.141  23.977  0.00  0.00    +0.145 HD
ATOM     27  H   UNL     1       4.346  -1.024  24.068  0.00  0.00    +0.145 HD
ENDBRANCH  16  21
BRANCH  11   7
ATOM      2  N   UNL     1      -2.440   4.427  26.076  0.00  0.00    -0.296 NA
ATOM      7  C   UNL     1      -0.473   3.265  25.544  0.00  0.00    +0.070 C 
ATOM      8  C   UNL     1      -0.351   4.725  25.075  0.00  0.00    +0.028 C 
ATOM      9  C   UNL     1      -1.971   3.065  25.806  0.00  0.00    +0.096 C 
ATOM     10  C   UNL     1      -1.778   5.258  25.070  0.00  0.00    +0.085 C 
BRANCH   2  12
ATOM     12  C   UNL     1      -3.890   4.536  26.019  0.00  0.00    +0.139 C 
BRANCH  12  15
ATOM      5  N   UNL     1      -5.571   2.805  26.330  0.00  0.00    -0.259 NA
ATOM     15  C   UNL     1      -4.532   3.245  25.585  0.00  0.00    +0.055 A 
ATOM     18  C   UNL     1      -4.043   2.585  24.470  0.00  0.00    +0.024 A 
ATOM     22  C   UNL     1      -4.659   1.396  24.095  0.00  0.00    +0.003 A 
ATOM     23  C   UNL     1      -6.145   1.646  25.935  0.00  0.00    +0.111 A 
ATOM     24  C   UNL     1      -5.731   0.911  24.836  0.00  0.00    +0.020 A 
ENDBRANCH  12  15
ENDBRANCH   2  12
ENDBRANCH  11   7
TORSDOF 4
ENDMDL
MODEL 7
REMARK VINA RESULT:      -0.7     17.645     19.824
REMARK  Name = 51137871
REMARK  4 active torsions:
REMARK  status: ('A' for Active; 'I' for Inactive)
REMARK    1  A    between atoms: N_2  and  C_12
REMARK    2  A    between atoms: C_7  and  C_11
REMARK    3  A    between atoms: C_12  and  C_15
REMARK    4  A    between atoms: C_16  and  C_21
REMARK                            x       y       z     vdW  Elec       q    Type
REMARK                         _______ _______ _______ _____ _____    ______ ____
ROOT
ATOM      3  N   UNL     1      -2.885   0.671  23.952  0.00  0.00    -0.342 N 
ATOM      4  N   UNL     1      -2.855   2.851  24.380  0.00  0.00    -0.231 NA
ATOM     11  C   UNL     1      -2.192   1.845  23.857  0.00  0.00    +0.113 A 
ATOM     13  C   UNL     1      -4.076   0.938  24.578  0.00  0.00    +0.067 A 
ATOM     14  C   UNL     1      -4.033   2.305  24.836  0.00  0.00    +0.101 A 
ATOM     16  C   UNL     1      -5.121   2.914  25.483  0.00  0.00    +0.064 A 
ATOM     17  C   UNL     1      -5.153   0.124  24.932  0.00  0.00    +0.028 A 
ATOM     19  C   UNL     1      -6.214   2.118  25.847  0.00  0.00    +0.015 A 
ATOM     20  C   UNL     1      -6.227   0.748  25.575  0.00  0.00    +0.003 A 
ATOM     25  H   UNL     1      -2.579  -0.234  23.621  0.00  0.00    +0.167 HD
ENDROOT
BRANCH  16  21
ATOM      1  O   UNL     1      -6.162   5.013  25.720  0.00  0.00    -0.270 OA
ATOM      6  N   UNL     1      -3.905   4.929  26.114  0.00  0.00    -0.325 N 
ATOM     21  C   UNL     1      -5.117   4.338  25.767  0.00  0.00    +0.244 C 
ATOM     26  H   UNL     1      -3.864   5.920  26.326  0.00  0.00    +0.145 HD
ATOM     27  H   UNL     1      -3.026   4.427  26.173  0.00  0.00    +0.145 HD
ENDBRANCH  16  21
BRANCH  11   7
ATOM      2  N   UNL     1       1.139   0.663  22.887  0.00  0.00    -0.296 NA
ATOM      7  C   UNL     1      -0.827   1.901  23.211  0.00  0.00    +0.070 C 
ATOM      8  C   UNL     1       0.290   2.465  24.105  0.00  0.00    +0.028 C 
ATOM      9  C   UNL     1      -0.315   0.522  22.774  0.00  0.00    +0.096 C 
ATOM     10  C   UNL     1       1.351   1.373  24.149  0.00  0.00    +0.085 C 
BRANCH   2  12
ATOM     12  C   UNL     1       1.825  -0.620  22.851  0.00  0.00    +0.139 C 
BRANCH  12  15
ATOM      5  N   UNL     1       3.880   0.683  22.831  0.00  0.00    -0.259 NA
ATOM     15  C   UNL     1       3.288  -0.482  23.178  0.00  0.00    +0.055 A 
ATOM     18  C   UNL     1       3.945  -1.529  23.805  0.00  0.00    +0.024 A 
ATOM     22  C   UNL     1       5.296  -1.370  24.093  0.00  0.00    +0.003 A 
ATOM     23  C   UNL     1       5.194   0.801  23.128  0.00  0.00    +0.111 A 
ATOM     24  C   UNL     1       5.940  -0.186  23.752  0.00  0.00    +0.020 A 
ENDBRANCH  12  15
ENDBRANCH   2  12
ENDBRANCH  11   7
TORSDOF 4
ENDMDL
