MODEL 1
REMARK VINA RESULT:       6.6      0.000      0.000
REMARK  Name = 11866179
REMARK  4 active torsions:
REMARK  status: ('A' for Active; 'I' for Inactive)
REMARK    1  A    between atoms: N_6  and  C_23
REMARK    2  A    between atoms: C_8  and  C_16
REMARK    3  A    between atoms: C_13  and  C_20
REMARK    4  A    between atoms: C_15  and  C_21
REMARK                            x       y       z     vdW  Elec       q    Type
REMARK                         _______ _______ _______ _____ _____    ______ ____
ROOT
ATOM      1  S   UNL     1      -0.326  -1.499  22.566  0.00  0.00    -0.057 S 
ATOM      3  O   UNL     1      -2.907   4.075  25.725  0.00  0.00    -0.461 OA
ATOM      4  O   UNL     1      -3.875   6.017  26.485  0.00  0.00    -0.251 OA
ATOM      5  N   UNL     1       0.848   0.423  23.838  0.00  0.00    -0.229 NA
ATOM      6  N   UNL     1       2.297  -1.080  22.726  0.00  0.00    -0.294 N 
ATOM      7  C   UNL     1      -2.629   1.809  24.657  0.00  0.00    +0.045 C 
ATOM      8  C   UNL     1      -3.330   0.381  24.653  0.00  0.00    -0.021 C 
ATOM      9  C   UNL     1      -3.326   2.710  25.690  0.00  0.00    +0.184 C 
ATOM     10  C   UNL     1      -4.800   2.848  25.359  0.00  0.00    +0.044 C 
ATOM     11  C   UNL     1      -4.873   0.528  24.484  0.00  0.00    +0.008 C 
ATOM     12  C   UNL     1      -5.519   1.518  25.465  0.00  0.00    +0.008 C 
ATOM     13  C   UNL     1      -1.070   1.718  24.836  0.00  0.00    +0.043 C 
ATOM     14  C   UNL     1      -2.785  -0.450  23.452  0.00  0.00    +0.051 C 
ATOM     15  C   UNL     1      -5.195   3.965  26.305  0.00  0.00    +0.101 C 
ATOM     16  C   UNL     1      -3.064  -0.406  25.964  0.00  0.00    +0.012 C 
ATOM     17  C   UNL     1      -0.515   0.588  24.003  0.00  0.00    +0.057 A 
ATOM     18  C   UNL     1      -1.298  -0.376  23.399  0.00  0.00    +0.015 A 
ATOM     19  C   UNL     1      -3.955   4.833  26.198  0.00  0.00    +0.311 C 
ATOM     20  C   UNL     1      -0.362   3.034  24.489  0.00  0.00    +0.014 C 
ATOM     21  C   UNL     1      -6.457   4.693  25.879  0.00  0.00    +0.019 C 
ATOM     22  C   UNL     1       1.064  -0.639  23.091  0.00  0.00    +0.163 A 
ATOM     29  H   UNL     1       2.337  -1.817  22.026  0.00  0.00    +0.154 HD
ENDROOT
BRANCH   6  23
ATOM      2  F   UNL     1       7.315   0.646  24.312  0.00  0.00    -0.205 F 
ATOM     23  C   UNL     1       3.582  -0.638  23.132  0.00  0.00    +0.033 A 
ATOM     24  C   UNL     1       3.998   0.650  22.816  0.00  0.00    +0.026 A 
ATOM     25  C   UNL     1       4.413  -1.496  23.844  0.00  0.00    +0.026 A 
ATOM     26  C   UNL     1       5.263   1.085  23.215  0.00  0.00    +0.040 A 
ATOM     27  C   UNL     1       5.676  -1.062  24.243  0.00  0.00    +0.040 A 
ATOM     28  C   UNL     1       6.102   0.230  23.929  0.00  0.00    +0.124 A 
ENDBRANCH   6  23
TORSDOF 1
ENDMDL
