MODEL 1
REMARK VINA RESULT:       9.8      0.000      0.000
REMARK  Name = 25313506
REMARK  8 active torsions:
REMARK  status: ('A' for Active; 'I' for Inactive)
REMARK    1  A    between atoms: O_4  and  C_25
REMARK    2  A    between atoms: O_4  and  C_33
REMARK    3  A    between atoms: N_7  and  C_23
REMARK    4  A    between atoms: C_9  and  C_13
REMARK    5  A    between atoms: C_10  and  C_15
REMARK    6  A    between atoms: C_13  and  C_16
REMARK    7  A    between atoms: C_15  and  C_17
REMARK    8  A    between atoms: C_24  and  C_27
REMARK                            x       y       z     vdW  Elec       q    Type
REMARK                         _______ _______ _______ _____ _____    ______ ____
ROOT
ATOM      5  N   UNL     1      -6.576   2.712  25.086  0.00  0.00    -0.316 NA
ATOM      9  C   UNL     1      -3.878   1.519  25.080  0.00  0.00    +0.004 C 
ATOM     10  C   UNL     1      -4.116   3.047  25.115  0.00  0.00    +0.012 C 
ATOM     11  C   UNL     1      -5.114   0.805  25.654  0.00  0.00    +0.019 C 
ATOM     12  C   UNL     1      -5.459   3.427  24.469  0.00  0.00    +0.085 C 
ATOM     14  C   UNL     1      -6.413   1.263  24.993  0.00  0.00    +0.081 C 
ATOM     37  H   UNL     1      -7.446   2.984  24.627  0.00  0.00    +0.122 HD
ENDROOT
BRANCH   9  13
ATOM     13  C   UNL     1      -3.530   0.973  23.690  0.00  0.00    +0.100 C 
BRANCH  13  16
ATOM      2  O   UNL     1      -3.521  -1.391  23.518  0.00  0.00    -0.276 OA
ATOM      6  N   UNL     1      -1.560  -0.397  24.263  0.00  0.00    -0.298 N 
ATOM      7  N   UNL     1       1.243  -0.477  23.943  0.00  0.00    -0.324 N 
ATOM     16  C   UNL     1      -2.878  -0.380  23.814  0.00  0.00    +0.216 C 
ATOM     18  C   UNL     1      -0.763   0.779  24.624  0.00  0.00    +0.126 C 
ATOM     19  C   UNL     1      -0.856  -1.665  24.436  0.00  0.00    +0.126 C 
ATOM     20  C   UNL     1       0.543   0.810  23.830  0.00  0.00    +0.124 C 
ATOM     21  C   UNL     1       0.445  -1.675  23.637  0.00  0.00    +0.124 C 
BRANCH   7  23
ATOM     23  C   UNL     1       2.622  -0.537  23.708  0.00  0.00    +0.072 A 
ATOM     25  C   UNL     1       3.308   0.576  23.225  0.00  0.00    +0.141 A 
ATOM     26  C   UNL     1       3.308  -1.724  23.964  0.00  0.00    +0.027 A 
ATOM     28  C   UNL     1       4.683   0.503  22.996  0.00  0.00    +0.047 A 
ATOM     29  C   UNL     1       4.683  -1.797  23.735  0.00  0.00    +0.002 A 
ATOM     30  C   UNL     1       5.369  -0.684  23.251  0.00  0.00    +0.004 A 
BRANCH  25   4
ATOM      4  O   UNL     1       2.655   1.745  22.968  0.00  0.00    -0.493 OA
ATOM     33  C   UNL     1       3.401   2.776  22.327  0.00  0.00    +0.277 C 
ENDBRANCH  25   4
ENDBRANCH   7  23
ENDBRANCH  13  16
ENDBRANCH   9  13
BRANCH  10  15
ATOM     15  C   UNL     1      -2.973   3.846  24.487  0.00  0.00    +0.064 C 
BRANCH  15  17
ATOM      3  O   UNL     1       0.419   3.768  25.691  0.00  0.00    -0.354 OA
ATOM      8  N   UNL     1      -0.535   4.054  24.724  0.00  0.00    -0.083 NA
ATOM     17  C   UNL     1      -1.699   3.680  25.264  0.00  0.00    +0.085 A 
ATOM     22  C   UNL     1      -1.541   3.157  26.560  0.00  0.00    +0.076 A 
ATOM     24  C   UNL     1      -0.192   3.234  26.780  0.00  0.00    +0.167 A 
BRANCH  24  27
ATOM      1  F   UNL     1       3.164   1.888  31.008  0.00  0.00    -0.205 F 
ATOM     27  C   UNL     1       0.673   2.886  27.870  0.00  0.00    +0.020 A 
ATOM     31  C   UNL     1       0.131   2.444  29.076  0.00  0.00    +0.014 A 
ATOM     32  C   UNL     1       2.057   2.990  27.723  0.00  0.00    +0.014 A 
ATOM     34  C   UNL     1       0.972   2.107  30.137  0.00  0.00    +0.039 A 
ATOM     35  C   UNL     1       2.897   2.653  28.784  0.00  0.00    +0.039 A 
ATOM     36  C   UNL     1       2.356   2.211  29.990  0.00  0.00    +0.123 A 
ENDBRANCH  24  27
ENDBRANCH  15  17
ENDBRANCH  10  15
TORSDOF 7
ENDMDL
MODEL 2
REMARK VINA RESULT:      10.0      2.520      6.066
REMARK  Name = 25313506
REMARK  8 active torsions:
REMARK  status: ('A' for Active; 'I' for Inactive)
REMARK    1  A    between atoms: O_4  and  C_25
REMARK    2  A    between atoms: O_4  and  C_33
REMARK    3  A    between atoms: N_7  and  C_23
REMARK    4  A    between atoms: C_9  and  C_13
REMARK    5  A    between atoms: C_10  and  C_15
REMARK    6  A    between atoms: C_13  and  C_16
REMARK    7  A    between atoms: C_15  and  C_17
REMARK    8  A    between atoms: C_24  and  C_27
REMARK                            x       y       z     vdW  Elec       q    Type
REMARK                         _______ _______ _______ _____ _____    ______ ____
ROOT
ATOM      5  N   UNL     1      -2.050  -1.387  26.703  0.00  0.00    -0.316 NA
ATOM      9  C   UNL     1      -2.947  -2.427  24.092  0.00  0.00    +0.004 C 
ATOM     10  C   UNL     1      -1.716  -1.504  24.245  0.00  0.00    +0.012 C 
ATOM     11  C   UNL     1      -3.192  -3.162  25.420  0.00  0.00    +0.019 C 
ATOM     12  C   UNL     1      -1.833  -0.604  25.487  0.00  0.00    +0.085 C 
ATOM     14  C   UNL     1      -3.255  -2.209  26.613  0.00  0.00    +0.081 C 
ATOM     37  H   UNL     1      -2.131  -0.757  27.501  0.00  0.00    +0.122 HD
ENDROOT
BRANCH   9  13
ATOM     13  C   UNL     1      -4.217  -1.703  23.628  0.00  0.00    +0.100 C 
BRANCH  13  16
ATOM      2  O   UNL     1      -5.185  -1.104  25.706  0.00  0.00    -0.276 OA
ATOM      6  N   UNL     1      -4.416   0.639  24.379  0.00  0.00    -0.298 N 
ATOM      7  N   UNL     1      -2.959   3.053  24.493  0.00  0.00    -0.324 N 
ATOM     16  C   UNL     1      -4.653  -0.703  24.668  0.00  0.00    +0.216 C 
ATOM     18  C   UNL     1      -3.787   1.154  23.161  0.00  0.00    +0.126 C 
ATOM     19  C   UNL     1      -4.826   1.678  25.320  0.00  0.00    +0.126 C 
ATOM     20  C   UNL     1      -2.584   2.033  23.504  0.00  0.00    +0.124 C 
ATOM     21  C   UNL     1      -3.640   2.561  25.701  0.00  0.00    +0.124 C 
BRANCH   7  23
ATOM     23  C   UNL     1      -2.193   4.219  24.608  0.00  0.00    +0.072 A 
ATOM     25  C   UNL     1      -0.806   4.147  24.732  0.00  0.00    +0.141 A 
ATOM     26  C   UNL     1      -2.829   5.460  24.594  0.00  0.00    +0.027 A 
ATOM     28  C   UNL     1      -0.054   5.317  24.845  0.00  0.00    +0.047 A 
ATOM     29  C   UNL     1      -2.077   6.630  24.706  0.00  0.00    +0.002 A 
ATOM     30  C   UNL     1      -0.691   6.558  24.831  0.00  0.00    +0.004 A 
BRANCH  25   4
ATOM      4  O   UNL     1      -0.165   2.944  24.748  0.00  0.00    -0.493 OA
ATOM     33  C   UNL     1       0.168   2.405  26.025  0.00  0.00    +0.277 C 
ENDBRANCH  25   4
ENDBRANCH   7  23
ENDBRANCH  13  16
ENDBRANCH   9  13
BRANCH  10  15
ATOM     15  C   UNL     1      -1.438  -0.664  22.998  0.00  0.00    +0.064 C 
BRANCH  15  17
ATOM      3  O   UNL     1       1.871  -0.278  21.632  0.00  0.00    -0.354 OA
ATOM      8  N   UNL     1       0.491  -0.376  21.502  0.00  0.00    -0.083 NA
ATOM     17  C   UNL     1       0.036  -0.524  22.750  0.00  0.00    +0.085 A 
ATOM     22  C   UNL     1       1.073  -0.526  23.700  0.00  0.00    +0.076 A 
ATOM     24  C   UNL     1       2.205  -0.368  22.945  0.00  0.00    +0.167 A 
BRANCH  24  27
ATOM      1  F   UNL     1       7.641  -0.033  24.079  0.00  0.00    -0.205 F 
ATOM     27  C   UNL     1       3.607  -0.283  23.237  0.00  0.00    +0.020 A 
ATOM     31  C   UNL     1       4.269  -1.370  23.805  0.00  0.00    +0.014 A 
ATOM     32  C   UNL     1       4.308   0.890  22.952  0.00  0.00    +0.014 A 
ATOM     34  C   UNL     1       5.632  -1.286  24.090  0.00  0.00    +0.039 A 
ATOM     35  C   UNL     1       5.671   0.973  23.237  0.00  0.00    +0.039 A 
ATOM     36  C   UNL     1       6.333  -0.115  23.806  0.00  0.00    +0.123 A 
ENDBRANCH  24  27
ENDBRANCH  15  17
ENDBRANCH  10  15
TORSDOF 7
ENDMDL
MODEL 3
REMARK VINA RESULT:      10.3      3.130      4.935
REMARK  Name = 25313506
REMARK  8 active torsions:
REMARK  status: ('A' for Active; 'I' for Inactive)
REMARK    1  A    between atoms: O_4  and  C_25
REMARK    2  A    between atoms: O_4  and  C_33
REMARK    3  A    between atoms: N_7  and  C_23
REMARK    4  A    between atoms: C_9  and  C_13
REMARK    5  A    between atoms: C_10  and  C_15
REMARK    6  A    between atoms: C_13  and  C_16
REMARK    7  A    between atoms: C_15  and  C_17
REMARK    8  A    between atoms: C_24  and  C_27
REMARK                            x       y       z     vdW  Elec       q    Type
REMARK                         _______ _______ _______ _____ _____    ______ ____
ROOT
ATOM      5  N   UNL     1      -0.754   5.160  25.524  0.00  0.00    -0.316 NA
ATOM      9  C   UNL     1      -2.590   3.900  23.589  0.00  0.00    +0.004 C 
ATOM     10  C   UNL     1      -3.087   4.761  24.773  0.00  0.00    +0.012 C 
ATOM     11  C   UNL     1      -1.150   4.310  23.239  0.00  0.00    +0.019 C 
ATOM     12  C   UNL     1      -2.092   4.743  25.945  0.00  0.00    +0.085 C 
ATOM     14  C   UNL     1      -0.229   4.309  24.459  0.00  0.00    +0.081 C 
ATOM     37  H   UNL     1      -0.122   5.127  26.324  0.00  0.00    +0.122 HD
ENDROOT
BRANCH   9  13
ATOM     13  C   UNL     1      -2.682   2.389  23.834  0.00  0.00    +0.100 C 
BRANCH  13  16
ATOM      2  O   UNL     1      -2.451   1.835  21.541  0.00  0.00    -0.276 OA
ATOM      6  N   UNL     1      -1.021   0.757  23.018  0.00  0.00    -0.298 N 
ATOM      7  N   UNL     1       1.675  -0.008  23.355  0.00  0.00    -0.324 N 
ATOM     16  C   UNL     1      -2.047   1.639  22.691  0.00  0.00    +0.216 C 
ATOM     18  C   UNL     1      -0.513   0.497  24.367  0.00  0.00    +0.126 C 
ATOM     19  C   UNL     1      -0.364  -0.029  21.976  0.00  0.00    +0.126 C 
ATOM     20  C   UNL     1       0.997   0.729  24.430  0.00  0.00    +0.124 C 
ATOM     21  C   UNL     1       1.146   0.198  21.998  0.00  0.00    +0.124 C 
BRANCH   7  23
ATOM     23  C   UNL     1       3.033  -0.322  23.483  0.00  0.00    +0.072 A 
ATOM     25  C   UNL     1       4.006   0.667  23.348  0.00  0.00    +0.141 A 
ATOM     26  C   UNL     1       3.409  -1.639  23.748  0.00  0.00    +0.027 A 
ATOM     28  C   UNL     1       5.356   0.341  23.479  0.00  0.00    +0.047 A 
ATOM     29  C   UNL     1       4.759  -1.965  23.879  0.00  0.00    +0.002 A 
ATOM     30  C   UNL     1       5.732  -0.976  23.745  0.00  0.00    +0.004 A 
BRANCH  25   4
ATOM      4  O   UNL     1       3.659   1.960  23.088  0.00  0.00    -0.493 OA
ATOM     33  C   UNL     1       3.973   2.466  21.793  0.00  0.00    +0.277 C 
ENDBRANCH  25   4
ENDBRANCH   7  23
ENDBRANCH  13  16
ENDBRANCH   9  13
BRANCH  10  15
ATOM     15  C   UNL     1      -4.486   4.372  25.252  0.00  0.00    +0.064 C 
BRANCH  15  17
ATOM      3  O   UNL     1      -5.822   1.051  24.868  0.00  0.00    -0.354 OA
ATOM      8  N   UNL     1      -5.964   2.429  24.963  0.00  0.00    -0.083 NA
ATOM     17  C   UNL     1      -4.721   2.895  25.114  0.00  0.00    +0.085 A 
ATOM     22  C   UNL     1      -3.762   1.866  25.119  0.00  0.00    +0.076 A 
ATOM     24  C   UNL     1      -4.506   0.728  24.962  0.00  0.00    +0.167 A 
BRANCH  24  27
ATOM      1  F   UNL     1      -3.324  -4.699  24.637  0.00  0.00    -0.205 F 
ATOM     27  C   UNL     1      -4.202  -0.671  24.879  0.00  0.00    +0.020 A 
ATOM     31  C   UNL     1      -3.517  -1.299  25.919  0.00  0.00    +0.014 A 
ATOM     32  C   UNL     1      -4.591  -1.405  23.757  0.00  0.00    +0.014 A 
ATOM     34  C   UNL     1      -3.220  -2.660  25.837  0.00  0.00    +0.039 A 
ATOM     35  C   UNL     1      -4.294  -2.765  23.676  0.00  0.00    +0.039 A 
ATOM     36  C   UNL     1      -3.609  -3.393  24.716  0.00  0.00    +0.123 A 
ENDBRANCH  24  27
ENDBRANCH  15  17
ENDBRANCH  10  15
TORSDOF 7
ENDMDL
MODEL 4
REMARK VINA RESULT:      11.5      2.765      4.573
REMARK  Name = 25313506
REMARK  8 active torsions:
REMARK  status: ('A' for Active; 'I' for Inactive)
REMARK    1  A    between atoms: O_4  and  C_25
REMARK    2  A    between atoms: O_4  and  C_33
REMARK    3  A    between atoms: N_7  and  C_23
REMARK    4  A    between atoms: C_9  and  C_13
REMARK    5  A    between atoms: C_10  and  C_15
REMARK    6  A    between atoms: C_13  and  C_16
REMARK    7  A    between atoms: C_15  and  C_17
REMARK    8  A    between atoms: C_24  and  C_27
REMARK                            x       y       z     vdW  Elec       q    Type
REMARK                         _______ _______ _______ _____ _____    ______ ____
ROOT
ATOM      5  N   UNL     1      -6.373   5.089  25.713  0.00  0.00    -0.316 NA
ATOM      9  C   UNL     1      -4.742   2.956  24.492  0.00  0.00    +0.004 C 
ATOM     10  C   UNL     1      -6.203   2.733  24.948  0.00  0.00    +0.012 C 
ATOM     11  C   UNL     1      -4.530   4.451  24.198  0.00  0.00    +0.019 C 
ATOM     12  C   UNL     1      -6.595   3.692  26.085  0.00  0.00    +0.085 C 
ATOM     14  C   UNL     1      -4.980   5.342  25.355  0.00  0.00    +0.081 C 
ATOM     37  H   UNL     1      -6.636   5.692  26.493  0.00  0.00    +0.122 HD
ENDROOT
BRANCH   9  13
ATOM     13  C   UNL     1      -3.692   2.441  25.484  0.00  0.00    +0.100 C 
BRANCH  13  16
ATOM      2  O   UNL     1      -2.365   4.268  26.204  0.00  0.00    -0.276 OA
ATOM      6  N   UNL     1      -1.493   2.961  24.495  0.00  0.00    -0.298 N 
ATOM      7  N   UNL     1       0.889   1.720  23.630  0.00  0.00    -0.324 N 
ATOM     16  C   UNL     1      -2.462   3.310  25.432  0.00  0.00    +0.216 C 
ATOM     18  C   UNL     1      -1.570   1.834  23.563  0.00  0.00    +0.126 C 
ATOM     19  C   UNL     1      -0.278   3.761  24.358  0.00  0.00    +0.126 C 
ATOM     20  C   UNL     1      -0.346   0.929  23.707  0.00  0.00    +0.124 C 
ATOM     21  C   UNL     1       0.965   2.889  24.521  0.00  0.00    +0.124 C 
BRANCH   7  23
ATOM     23  C   UNL     1       2.090   1.093  23.277  0.00  0.00    +0.072 A 
ATOM     25  C   UNL     1       2.083  -0.145  22.637  0.00  0.00    +0.141 A 
ATOM     26  C   UNL     1       3.301   1.720  23.571  0.00  0.00    +0.027 A 
ATOM     28  C   UNL     1       3.287  -0.759  22.290  0.00  0.00    +0.047 A 
ATOM     29  C   UNL     1       4.505   1.107  23.224  0.00  0.00    +0.002 A 
ATOM     30  C   UNL     1       4.498  -0.132  22.584  0.00  0.00    +0.004 A 
BRANCH  25   4
ATOM      4  O   UNL     1       0.910  -0.775  22.342  0.00  0.00    -0.493 OA
ATOM     33  C   UNL     1       0.595  -0.943  20.962  0.00  0.00    +0.277 C 
ENDBRANCH  25   4
ENDBRANCH   7  23
ENDBRANCH  13  16
ENDBRANCH   9  13
BRANCH  10  15
ATOM     15  C   UNL     1      -6.493   1.285  25.344  0.00  0.00    +0.064 C 
BRANCH  15  17
ATOM      3  O   UNL     1      -4.157  -1.017  23.857  0.00  0.00    -0.354 OA
ATOM      8  N   UNL     1      -5.345  -0.298  23.853  0.00  0.00    -0.083 NA
ATOM     17  C   UNL     1      -5.341   0.383  25.003  0.00  0.00    +0.085 A 
ATOM     22  C   UNL     1      -4.186   0.136  25.765  0.00  0.00    +0.076 A 
ATOM     24  C   UNL     1      -3.475  -0.751  25.001  0.00  0.00    +0.167 A 
BRANCH  24  27
ATOM      1  F   UNL     1       1.400  -3.369  25.563  0.00  0.00    -0.205 F 
ATOM     27  C   UNL     1      -2.219  -1.426  25.146  0.00  0.00    +0.020 A 
ATOM     31  C   UNL     1      -1.294  -0.981  26.090  0.00  0.00    +0.014 A 
ATOM     32  C   UNL     1      -1.922  -2.528  24.343  0.00  0.00    +0.014 A 
ATOM     34  C   UNL     1      -0.070  -1.637  26.231  0.00  0.00    +0.039 A 
ATOM     35  C   UNL     1      -0.699  -3.184  24.485  0.00  0.00    +0.039 A 
ATOM     36  C   UNL     1       0.227  -2.739  25.429  0.00  0.00    +0.123 A 
ENDBRANCH  24  27
ENDBRANCH  15  17
ENDBRANCH  10  15
TORSDOF 7
ENDMDL
MODEL 5
REMARK VINA RESULT:      11.5      3.027      6.136
REMARK  Name = 25313506
REMARK  8 active torsions:
REMARK  status: ('A' for Active; 'I' for Inactive)
REMARK    1  A    between atoms: O_4  and  C_25
REMARK    2  A    between atoms: O_4  and  C_33
REMARK    3  A    between atoms: N_7  and  C_23
REMARK    4  A    between atoms: C_9  and  C_13
REMARK    5  A    between atoms: C_10  and  C_15
REMARK    6  A    between atoms: C_13  and  C_16
REMARK    7  A    between atoms: C_15  and  C_17
REMARK    8  A    between atoms: C_24  and  C_27
REMARK                            x       y       z     vdW  Elec       q    Type
REMARK                         _______ _______ _______ _____ _____    ______ ____
ROOT
ATOM      5  N   UNL     1      -0.315   5.969  24.593  0.00  0.00    -0.316 NA
ATOM      9  C   UNL     1      -2.539   4.176  25.331  0.00  0.00    +0.004 C 
ATOM     10  C   UNL     1      -1.330   3.705  24.489  0.00  0.00    +0.012 C 
ATOM     11  C   UNL     1      -2.119   5.390  26.178  0.00  0.00    +0.019 C 
ATOM     12  C   UNL     1      -0.695   4.867  23.708  0.00  0.00    +0.085 C 
ATOM     14  C   UNL     1      -1.459   6.485  25.341  0.00  0.00    +0.081 C 
ATOM     37  H   UNL     1       0.093   6.722  24.039  0.00  0.00    +0.122 HD
ENDROOT
BRANCH   9  13
ATOM     13  C   UNL     1      -3.790   4.495  24.504  0.00  0.00    +0.100 C 
BRANCH  13  16
ATOM      2  O   UNL     1      -6.073   3.987  24.887  0.00  0.00    -0.276 OA
ATOM      6  N   UNL     1      -4.556   2.260  25.214  0.00  0.00    -0.298 N 
ATOM      7  N   UNL     1      -4.154  -0.483  24.689  0.00  0.00    -0.324 N 
ATOM     16  C   UNL     1      -4.913   3.565  24.884  0.00  0.00    +0.216 C 
ATOM     18  C   UNL     1      -3.194   1.721  25.223  0.00  0.00    +0.126 C 
ATOM     19  C   UNL     1      -5.578   1.296  25.618  0.00  0.00    +0.126 C 
ATOM     20  C   UNL     1      -3.099   0.478  24.338  0.00  0.00    +0.124 C 
ATOM     21  C   UNL     1      -5.524   0.050  24.737  0.00  0.00    +0.124 C 
BRANCH   7  23
ATOM     23  C   UNL     1      -3.994  -1.835  24.360  0.00  0.00    +0.072 A 
ATOM     25  C   UNL     1      -2.892  -2.553  24.824  0.00  0.00    +0.141 A 
ATOM     26  C   UNL     1      -4.950  -2.462  23.562  0.00  0.00    +0.027 A 
ATOM     28  C   UNL     1      -2.746  -3.899  24.490  0.00  0.00    +0.047 A 
ATOM     29  C   UNL     1      -4.803  -3.809  23.228  0.00  0.00    +0.002 A 
ATOM     30  C   UNL     1      -3.702  -4.527  23.692  0.00  0.00    +0.004 A 
BRANCH  25   4
ATOM      4  O   UNL     1      -1.946  -1.957  25.605  0.00  0.00    -0.493 OA
ATOM     33  C   UNL     1      -0.592  -2.054  25.169  0.00  0.00    +0.277 C 
ENDBRANCH  25   4
ENDBRANCH   7  23
ENDBRANCH  13  16
ENDBRANCH   9  13
BRANCH  10  15
ATOM     15  C   UNL     1      -1.669   2.548  23.549  0.00  0.00    +0.064 C 
BRANCH  15  17
ATOM      3  O   UNL     1       0.648  -0.048  22.624  0.00  0.00    -0.354 OA
ATOM      8  N   UNL     1      -0.621   0.515  22.647  0.00  0.00    -0.083 NA
ATOM     17  C   UNL     1      -0.480   1.659  23.324  0.00  0.00    +0.085 A 
ATOM     22  C   UNL     1       0.844   1.868  23.747  0.00  0.00    +0.076 A 
ATOM     24  C   UNL     1       1.512   0.767  23.283  0.00  0.00    +0.167 A 
BRANCH  24  27
ATOM      1  F   UNL     1       6.785  -0.991  23.515  0.00  0.00    -0.205 F 
ATOM     27  C   UNL     1       2.871   0.313  23.342  0.00  0.00    +0.020 A 
ATOM     31  C   UNL     1       3.152  -1.004  23.704  0.00  0.00    +0.014 A 
ATOM     32  C   UNL     1       3.914   1.190  23.037  0.00  0.00    +0.014 A 
ATOM     34  C   UNL     1       4.474  -1.445  23.763  0.00  0.00    +0.039 A 
ATOM     35  C   UNL     1       5.235   0.748  23.096  0.00  0.00    +0.039 A 
ATOM     36  C   UNL     1       5.516  -0.569  23.459  0.00  0.00    +0.123 A 
ENDBRANCH  24  27
ENDBRANCH  15  17
ENDBRANCH  10  15
TORSDOF 7
ENDMDL
MODEL 6
REMARK VINA RESULT:      11.6      3.166      7.172
REMARK  Name = 25313506
REMARK  8 active torsions:
REMARK  status: ('A' for Active; 'I' for Inactive)
REMARK    1  A    between atoms: O_4  and  C_25
REMARK    2  A    between atoms: O_4  and  C_33
REMARK    3  A    between atoms: N_7  and  C_23
REMARK    4  A    between atoms: C_9  and  C_13
REMARK    5  A    between atoms: C_10  and  C_15
REMARK    6  A    between atoms: C_13  and  C_16
REMARK    7  A    between atoms: C_15  and  C_17
REMARK    8  A    between atoms: C_24  and  C_27
REMARK                            x       y       z     vdW  Elec       q    Type
REMARK                         _______ _______ _______ _____ _____    ______ ____
ROOT
ATOM      5  N   UNL     1      -1.073   0.198  26.288  0.00  0.00    -0.316 NA
ATOM      9  C   UNL     1      -0.333  -2.104  24.598  0.00  0.00    +0.004 C 
ATOM     10  C   UNL     1       0.332  -0.715  24.455  0.00  0.00    +0.012 C 
ATOM     11  C   UNL     1      -0.889  -2.251  26.024  0.00  0.00    +0.019 C 
ATOM     12  C   UNL     1      -0.605   0.413  24.918  0.00  0.00    +0.085 C 
ATOM     14  C   UNL     1      -1.777  -1.075  26.429  0.00  0.00    +0.081 C 
ATOM     37  H   UNL     1      -1.697   0.959  26.555  0.00  0.00    +0.122 HD
ENDROOT
BRANCH   9  13
ATOM     13  C   UNL     1      -1.423  -2.385  23.557  0.00  0.00    +0.100 C 
BRANCH  13  16
ATOM      2  O   UNL     1      -3.203  -3.203  24.890  0.00  0.00    -0.276 OA
ATOM      6  N   UNL     1      -3.496  -1.104  23.942  0.00  0.00    -0.298 N 
ATOM      7  N   UNL     1      -4.406   1.501  24.530  0.00  0.00    -0.324 N 
ATOM     16  C   UNL     1      -2.786  -2.276  24.192  0.00  0.00    +0.216 C 
ATOM     18  C   UNL     1      -3.036   0.017  23.121  0.00  0.00    +0.126 C 
ATOM     19  C   UNL     1      -4.835  -0.922  24.498  0.00  0.00    +0.126 C 
ATOM     20  C   UNL     1      -3.084   1.323  23.914  0.00  0.00    +0.124 C 
ATOM     21  C   UNL     1      -4.910   0.364  25.317  0.00  0.00    +0.124 C 
BRANCH   7  23
ATOM     23  C   UNL     1      -4.830   2.784  24.897  0.00  0.00    +0.072 A 
ATOM     25  C   UNL     1      -3.952   3.865  24.841  0.00  0.00    +0.141 A 
ATOM     26  C   UNL     1      -6.146   2.975  25.319  0.00  0.00    +0.027 A 
ATOM     28  C   UNL     1      -4.389   5.139  25.207  0.00  0.00    +0.047 A 
ATOM     29  C   UNL     1      -6.583   4.248  25.686  0.00  0.00    +0.002 A 
ATOM     30  C   UNL     1      -5.704   5.329  25.630  0.00  0.00    +0.004 A 
BRANCH  25   4
ATOM      4  O   UNL     1      -2.662   3.700  24.431  0.00  0.00    -0.493 OA
ATOM     33  C   UNL     1      -1.648   4.315  25.222  0.00  0.00    +0.277 C 
ENDBRANCH  25   4
ENDBRANCH   7  23
ENDBRANCH  13  16
ENDBRANCH   9  13
BRANCH  10  15
ATOM     15  C   UNL     1       0.846  -0.439  23.042  0.00  0.00    +0.064 C 
BRANCH  15  17
ATOM      3  O   UNL     1       3.932   1.415  23.030  0.00  0.00    -0.354 OA
ATOM      8  N   UNL     1       2.546   1.336  22.989  0.00  0.00    -0.083 NA
ATOM     17  C   UNL     1       2.272   0.029  23.060  0.00  0.00    +0.085 A 
ATOM     22  C   UNL     1       3.436  -0.756  23.148  0.00  0.00    +0.076 A 
ATOM     24  C   UNL     1       4.451   0.163  23.124  0.00  0.00    +0.167 A 
BRANCH  24  27
ATOM      1  F   UNL     1      10.002  -0.135  23.324  0.00  0.00    -0.205 F 
ATOM     27  C   UNL     1       5.882   0.086  23.177  0.00  0.00    +0.020 A 
ATOM     31  C   UNL     1       6.606   1.040  23.891  0.00  0.00    +0.014 A 
ATOM     32  C   UNL     1       6.550  -0.943  22.512  0.00  0.00    +0.014 A 
ATOM     34  C   UNL     1       7.998   0.966  23.941  0.00  0.00    +0.039 A 
ATOM     35  C   UNL     1       7.941  -1.017  22.562  0.00  0.00    +0.039 A 
ATOM     36  C   UNL     1       8.666  -0.063  23.277  0.00  0.00    +0.123 A 
ENDBRANCH  24  27
ENDBRANCH  15  17
ENDBRANCH  10  15
TORSDOF 7
ENDMDL
MODEL 7
REMARK VINA RESULT:      11.6      2.898      5.496
REMARK  Name = 25313506
REMARK  8 active torsions:
REMARK  status: ('A' for Active; 'I' for Inactive)
REMARK    1  A    between atoms: O_4  and  C_25
REMARK    2  A    between atoms: O_4  and  C_33
REMARK    3  A    between atoms: N_7  and  C_23
REMARK    4  A    between atoms: C_9  and  C_13
REMARK    5  A    between atoms: C_10  and  C_15
REMARK    6  A    between atoms: C_13  and  C_16
REMARK    7  A    between atoms: C_15  and  C_17
REMARK    8  A    between atoms: C_24  and  C_27
REMARK                            x       y       z     vdW  Elec       q    Type
REMARK                         _______ _______ _______ _____ _____    ______ ____
ROOT
ATOM      5  N   UNL     1      -5.049   6.738  22.909  0.00  0.00    -0.316 NA
ATOM      9  C   UNL     1      -3.663   4.588  24.380  0.00  0.00    +0.004 C 
ATOM     10  C   UNL     1      -5.204   4.698  24.316  0.00  0.00    +0.012 C 
ATOM     11  C   UNL     1      -3.058   5.297  23.156  0.00  0.00    +0.019 C 
ATOM     12  C   UNL     1      -5.662   6.151  24.101  0.00  0.00    +0.085 C 
ATOM     14  C   UNL     1      -3.590   6.719  22.982  0.00  0.00    +0.081 C 
ATOM     37  H   UNL     1      -5.369   7.701  22.805  0.00  0.00    +0.122 HD
ENDROOT
BRANCH   9  13
ATOM     13  C   UNL     1      -3.051   5.127  25.678  0.00  0.00    +0.100 C 
BRANCH  13  16
ATOM      2  O   UNL     1      -2.818   3.500  27.385  0.00  0.00    -0.276 OA
ATOM      6  N   UNL     1      -1.064   3.678  25.875  0.00  0.00    -0.298 N 
ATOM      7  N   UNL     1       0.702   2.126  24.313  0.00  0.00    -0.324 N 
ATOM     16  C   UNL     1      -2.307   4.029  26.395  0.00  0.00    +0.216 C 
ATOM     18  C   UNL     1      -0.424   4.282  24.704  0.00  0.00    +0.126 C 
ATOM     19  C   UNL     1      -0.262   2.640  26.519  0.00  0.00    +0.126 C 
ATOM     20  C   UNL     1      -0.058   3.210  23.676  0.00  0.00    +0.124 C 
ATOM     21  C   UNL     1       0.101   1.542  25.523  0.00  0.00    +0.124 C 
BRANCH   7  23
ATOM     23  C   UNL     1       1.519   1.303  23.531  0.00  0.00    +0.072 A 
ATOM     25  C   UNL     1       1.016   0.129  22.971  0.00  0.00    +0.141 A 
ATOM     26  C   UNL     1       2.847   1.667  23.311  0.00  0.00    +0.027 A 
ATOM     28  C   UNL     1       1.842  -0.683  22.192  0.00  0.00    +0.047 A 
ATOM     29  C   UNL     1       3.673   0.856  22.532  0.00  0.00    +0.002 A 
ATOM     30  C   UNL     1       3.170  -0.318  21.972  0.00  0.00    +0.004 A 
BRANCH  25   4
ATOM      4  O   UNL     1      -0.279  -0.245  23.175  0.00  0.00    -0.493 OA
ATOM     33  C   UNL     1      -0.514  -1.267  24.141  0.00  0.00    +0.277 C 
ENDBRANCH  25   4
ENDBRANCH   7  23
ENDBRANCH  13  16
ENDBRANCH   9  13
BRANCH  10  15
ATOM     15  C   UNL     1      -5.899   4.093  25.537  0.00  0.00    +0.064 C 
BRANCH  15  17
ATOM      3  O   UNL     1      -5.708   0.617  26.458  0.00  0.00    -0.354 OA
ATOM      8  N   UNL     1      -6.160   1.917  26.650  0.00  0.00    -0.083 NA
ATOM     17  C   UNL     1      -5.622   2.621  25.650  0.00  0.00    +0.085 A 
ATOM     22  C   UNL     1      -4.831   1.826  24.803  0.00  0.00    +0.076 A 
ATOM     24  C   UNL     1      -4.918   0.576  25.355  0.00  0.00    +0.167 A 
BRANCH  24  27
ATOM      1  F   UNL     1      -2.808  -4.412  24.084  0.00  0.00    -0.205 F 
ATOM     27  C   UNL     1      -4.374  -0.711  25.028  0.00  0.00    +0.020 A 
ATOM     31  C   UNL     1      -3.624  -1.411  25.972  0.00  0.00    +0.014 A 
ATOM     32  C   UNL     1      -4.596  -1.261  23.765  0.00  0.00    +0.014 A 
ATOM     34  C   UNL     1      -3.094  -2.662  25.653  0.00  0.00    +0.039 A 
ATOM     35  C   UNL     1      -4.067  -2.511  23.447  0.00  0.00    +0.039 A 
ATOM     36  C   UNL     1      -3.316  -3.212  24.390  0.00  0.00    +0.123 A 
ENDBRANCH  24  27
ENDBRANCH  15  17
ENDBRANCH  10  15
TORSDOF 7
ENDMDL
MODEL 8
REMARK VINA RESULT:      12.2      2.883      5.902
REMARK  Name = 25313506
REMARK  8 active torsions:
REMARK  status: ('A' for Active; 'I' for Inactive)
REMARK    1  A    between atoms: O_4  and  C_25
REMARK    2  A    between atoms: O_4  and  C_33
REMARK    3  A    between atoms: N_7  and  C_23
REMARK    4  A    between atoms: C_9  and  C_13
REMARK    5  A    between atoms: C_10  and  C_15
REMARK    6  A    between atoms: C_13  and  C_16
REMARK    7  A    between atoms: C_15  and  C_17
REMARK    8  A    between atoms: C_24  and  C_27
REMARK                            x       y       z     vdW  Elec       q    Type
REMARK                         _______ _______ _______ _____ _____    ______ ____
ROOT
ATOM      5  N   UNL     1      -3.688   3.751  22.431  0.00  0.00    -0.316 NA
ATOM      9  C   UNL     1      -2.605   4.927  24.910  0.00  0.00    +0.004 C 
ATOM     10  C   UNL     1      -1.963   3.703  24.216  0.00  0.00    +0.012 C 
ATOM     11  C   UNL     1      -3.396   5.738  23.869  0.00  0.00    +0.019 C 
ATOM     12  C   UNL     1      -2.997   2.905  23.403  0.00  0.00    +0.085 C 
ATOM     14  C   UNL     1      -4.371   4.872  23.073  0.00  0.00    +0.081 C 
ATOM     37  H   UNL     1      -4.369   3.190  21.918  0.00  0.00    +0.122 HD
ENDROOT
BRANCH   9  13
ATOM     13  C   UNL     1      -3.491   4.571  26.110  0.00  0.00    +0.100 C 
BRANCH  13  16
ATOM      2  O   UNL     1      -5.652   4.341  25.166  0.00  0.00    -0.276 OA
ATOM      6  N   UNL     1      -4.593   2.383  25.822  0.00  0.00    -0.298 N 
ATOM      7  N   UNL     1      -4.070  -0.260  24.980  0.00  0.00    -0.324 N 
ATOM     16  C   UNL     1      -4.679   3.763  25.656  0.00  0.00    +0.216 C 
ATOM     18  C   UNL     1      -3.457   1.659  26.397  0.00  0.00    +0.126 C 
ATOM     19  C   UNL     1      -5.707   1.522  25.431  0.00  0.00    +0.126 C 
ATOM     20  C   UNL     1      -2.956   0.585  25.432  0.00  0.00    +0.124 C 
ATOM     21  C   UNL     1      -5.243   0.451  24.447  0.00  0.00    +0.124 C 
BRANCH   7  23
ATOM     23  C   UNL     1      -3.808  -1.543  24.487  0.00  0.00    +0.072 A 
ATOM     25  C   UNL     1      -2.589  -2.168  24.745  0.00  0.00    +0.141 A 
ATOM     26  C   UNL     1      -4.782  -2.199  23.734  0.00  0.00    +0.027 A 
ATOM     28  C   UNL     1      -2.342  -3.448  24.249  0.00  0.00    +0.047 A 
ATOM     29  C   UNL     1      -4.535  -3.479  23.237  0.00  0.00    +0.002 A 
ATOM     30  C   UNL     1      -3.315  -4.104  23.495  0.00  0.00    +0.004 A 
BRANCH  25   4
ATOM      4  O   UNL     1      -1.624  -1.544  25.479  0.00  0.00    -0.493 OA
ATOM     33  C   UNL     1      -0.273  -1.932  25.235  0.00  0.00    +0.277 C 
ENDBRANCH  25   4
ENDBRANCH   7  23
ENDBRANCH  13  16
ENDBRANCH   9  13
BRANCH  10  15
ATOM     15  C   UNL     1      -1.220   2.785  25.187  0.00  0.00    +0.064 C 
BRANCH  15  17
ATOM      3  O   UNL     1       0.632   0.538  23.070  0.00  0.00    -0.354 OA
ATOM      8  N   UNL     1      -0.549   1.128  23.499  0.00  0.00    -0.083 NA
ATOM     17  C   UNL     1      -0.184   1.962  24.478  0.00  0.00    +0.085 A 
ATOM     22  C   UNL     1       1.204   1.940  24.706  0.00  0.00    +0.076 A 
ATOM     24  C   UNL     1       1.669   1.029  23.796  0.00  0.00    +0.167 A 
BRANCH  24  27
ATOM      1  F   UNL     1       6.690  -0.989  22.507  0.00  0.00    -0.205 F 
ATOM     27  C   UNL     1       2.963   0.509  23.463  0.00  0.00    +0.020 A 
ATOM     31  C   UNL     1       3.300  -0.799  23.813  0.00  0.00    +0.014 A 
ATOM     32  C   UNL     1       3.886   1.310  22.789  0.00  0.00    +0.014 A 
ATOM     34  C   UNL     1       4.559  -1.304  23.490  0.00  0.00    +0.039 A 
ATOM     35  C   UNL     1       5.144   0.804  22.467  0.00  0.00    +0.039 A 
ATOM     36  C   UNL     1       5.482  -0.504  22.816  0.00  0.00    +0.123 A 
ENDBRANCH  24  27
ENDBRANCH  15  17
ENDBRANCH  10  15
TORSDOF 7
ENDMDL
MODEL 9
REMARK VINA RESULT:      12.7      3.024      5.356
REMARK  Name = 25313506
REMARK  8 active torsions:
REMARK  status: ('A' for Active; 'I' for Inactive)
REMARK    1  A    between atoms: O_4  and  C_25
REMARK    2  A    between atoms: O_4  and  C_33
REMARK    3  A    between atoms: N_7  and  C_23
REMARK    4  A    between atoms: C_9  and  C_13
REMARK    5  A    between atoms: C_10  and  C_15
REMARK    6  A    between atoms: C_13  and  C_16
REMARK    7  A    between atoms: C_15  and  C_17
REMARK    8  A    between atoms: C_24  and  C_27
REMARK                            x       y       z     vdW  Elec       q    Type
REMARK                         _______ _______ _______ _____ _____    ______ ____
ROOT
ATOM      5  N   UNL     1      -6.215   3.293  25.725  0.00  0.00    -0.316 NA
ATOM      9  C   UNL     1      -4.488   5.387  24.569  0.00  0.00    +0.004 C 
ATOM     10  C   UNL     1      -4.685   4.005  23.904  0.00  0.00    +0.012 C 
ATOM     11  C   UNL     1      -5.705   5.695  25.458  0.00  0.00    +0.019 C 
ATOM     12  C   UNL     1      -5.039   2.923  24.937  0.00  0.00    +0.085 C 
ATOM     14  C   UNL     1      -6.022   4.558  26.429  0.00  0.00    +0.081 C 
ATOM     37  H   UNL     1      -6.414   2.557  26.403  0.00  0.00    +0.122 HD
ENDROOT
BRANCH   9  13
ATOM     13  C   UNL     1      -3.185   5.516  25.368  0.00  0.00    +0.100 C 
BRANCH  13  16
ATOM      2  O   UNL     1      -3.674   3.595  26.667  0.00  0.00    -0.276 OA
ATOM      6  N   UNL     1      -1.538   3.721  25.765  0.00  0.00    -0.298 N 
ATOM      7  N   UNL     1       0.414   2.181  24.432  0.00  0.00    -0.324 N 
ATOM     16  C   UNL     1      -2.829   4.192  25.995  0.00  0.00    +0.216 C 
ATOM     18  C   UNL     1      -0.508   4.399  24.974  0.00  0.00    +0.126 C 
ATOM     19  C   UNL     1      -1.099   2.458  26.354  0.00  0.00    +0.126 C 
ATOM     20  C   UNL     1       0.018   3.480  23.872  0.00  0.00    +0.124 C 
ATOM     21  C   UNL     1      -0.588   1.508  25.273  0.00  0.00    +0.124 C 
BRANCH   7  23
ATOM     23  C   UNL     1       1.324   1.377  23.735  0.00  0.00    +0.072 A 
ATOM     25  C   UNL     1       1.045   0.031  23.498  0.00  0.00    +0.141 A 
ATOM     26  C   UNL     1       2.517   1.933  23.275  0.00  0.00    +0.027 A 
ATOM     28  C   UNL     1       1.960  -0.759  22.802  0.00  0.00    +0.047 A 
ATOM     29  C   UNL     1       3.432   1.143  22.579  0.00  0.00    +0.002 A 
ATOM     30  C   UNL     1       3.153  -0.202  22.342  0.00  0.00    +0.004 A 
BRANCH  25   4
ATOM      4  O   UNL     1      -0.115  -0.532  23.940  0.00  0.00    -0.493 OA
ATOM     33  C   UNL     1      -0.001  -1.706  24.742  0.00  0.00    +0.277 C 
ENDBRANCH  25   4
ENDBRANCH   7  23
ENDBRANCH  13  16
ENDBRANCH   9  13
BRANCH  10  15
ATOM     15  C   UNL     1      -3.486   3.570  23.061  0.00  0.00    +0.064 C 
BRANCH  15  17
ATOM      3  O   UNL     1      -2.497   0.139  22.596  0.00  0.00    -0.354 OA
ATOM      8  N   UNL     1      -2.442   1.488  22.272  0.00  0.00    -0.083 NA
ATOM     17  C   UNL     1      -3.286   2.083  23.121  0.00  0.00    +0.085 A 
ATOM     22  C   UNL     1      -3.895   1.166  23.996  0.00  0.00    +0.076 A 
ATOM     24  C   UNL     1      -3.365  -0.041  23.624  0.00  0.00    +0.167 A 
BRANCH  24  27
ATOM      1  F   UNL     1      -3.996  -5.287  25.363  0.00  0.00    -0.205 F 
ATOM     27  C   UNL     1      -3.527  -1.394  24.071  0.00  0.00    +0.020 A 
ATOM     31  C   UNL     1      -4.152  -2.330  23.248  0.00  0.00    +0.014 A 
ATOM     32  C   UNL     1      -3.061  -1.772  25.331  0.00  0.00    +0.014 A 
ATOM     34  C   UNL     1      -4.311  -3.646  23.685  0.00  0.00    +0.039 A 
ATOM     35  C   UNL     1      -3.220  -3.087  25.766  0.00  0.00    +0.039 A 
ATOM     36  C   UNL     1      -3.844  -4.025  24.944  0.00  0.00    +0.123 A 
ENDBRANCH  24  27
ENDBRANCH  15  17
ENDBRANCH  10  15
TORSDOF 7
ENDMDL
MODEL 10
REMARK VINA RESULT:      12.8      1.478      1.952
REMARK  Name = 25313506
REMARK  8 active torsions:
REMARK  status: ('A' for Active; 'I' for Inactive)
REMARK    1  A    between atoms: O_4  and  C_25
REMARK    2  A    between atoms: O_4  and  C_33
REMARK    3  A    between atoms: N_7  and  C_23
REMARK    4  A    between atoms: C_9  and  C_13
REMARK    5  A    between atoms: C_10  and  C_15
REMARK    6  A    between atoms: C_13  and  C_16
REMARK    7  A    between atoms: C_15  and  C_17
REMARK    8  A    between atoms: C_24  and  C_27
REMARK                            x       y       z     vdW  Elec       q    Type
REMARK                         _______ _______ _______ _____ _____    ______ ____
ROOT
ATOM      5  N   UNL     1      -2.835   1.133  22.115  0.00  0.00    -0.316 NA
ATOM      9  C   UNL     1      -4.520   1.003  24.533  0.00  0.00    +0.004 C 
ATOM     10  C   UNL     1      -4.077   2.340  23.895  0.00  0.00    +0.012 C 
ATOM     11  C   UNL     1      -4.504  -0.097  23.458  0.00  0.00    +0.019 C 
ATOM     12  C   UNL     1      -2.755   2.189  23.123  0.00  0.00    +0.085 C 
ATOM     14  C   UNL     1      -3.175  -0.159  22.706  0.00  0.00    +0.081 C 
ATOM     37  H   UNL     1      -1.940   1.058  21.632  0.00  0.00    +0.122 HD
ENDROOT
BRANCH   9  13
ATOM     13  C   UNL     1      -3.688   0.586  25.751  0.00  0.00    +0.100 C 
BRANCH  13  16
ATOM      2  O   UNL     1      -3.522  -1.723  25.241  0.00  0.00    -0.276 OA
ATOM      6  N   UNL     1      -1.525  -0.550  25.405  0.00  0.00    -0.298 N 
ATOM      7  N   UNL     1       0.971  -0.208  24.135  0.00  0.00    -0.324 N 
ATOM     16  C   UNL     1      -2.912  -0.670  25.443  0.00  0.00    +0.216 C 
ATOM     18  C   UNL     1      -0.765   0.679  25.640  0.00  0.00    +0.126 C 
ATOM     19  C   UNL     1      -0.692  -1.721  25.138  0.00  0.00    +0.126 C 
ATOM     20  C   UNL     1       0.162   0.974  24.460  0.00  0.00    +0.124 C 
ATOM     21  C   UNL     1       0.231  -1.466  23.948  0.00  0.00    +0.124 C 
BRANCH   7  23
ATOM     23  C   UNL     1       2.173  -0.052  23.435  0.00  0.00    +0.072 A 
ATOM     25  C   UNL     1       2.178   0.042  22.044  0.00  0.00    +0.141 A 
ATOM     26  C   UNL     1       3.374   0.013  24.142  0.00  0.00    +0.027 A 
ATOM     28  C   UNL     1       3.383   0.199  21.359  0.00  0.00    +0.047 A 
ATOM     29  C   UNL     1       4.579   0.170  23.457  0.00  0.00    +0.002 A 
ATOM     30  C   UNL     1       4.583   0.263  22.066  0.00  0.00    +0.004 A 
BRANCH  25   4
ATOM      4  O   UNL     1       1.015  -0.019  21.334  0.00  0.00    -0.493 OA
ATOM     33  C   UNL     1       0.719  -1.252  20.682  0.00  0.00    +0.277 C 
ENDBRANCH  25   4
ENDBRANCH   7  23
ENDBRANCH  13  16
ENDBRANCH   9  13
BRANCH  10  15
ATOM     15  C   UNL     1      -3.981   3.484  24.905  0.00  0.00    +0.064 C 
BRANCH  15  17
ATOM      3  O   UNL     1      -0.550   4.126  25.789  0.00  0.00    -0.354 OA
ATOM      8  N   UNL     1      -1.659   4.289  24.969  0.00  0.00    -0.083 NA
ATOM     17  C   UNL     1      -2.618   3.548  25.532  0.00  0.00    +0.085 A 
ATOM     22  C   UNL     1      -2.175   2.901  26.699  0.00  0.00    +0.076 A 
ATOM     24  C   UNL     1      -0.870   3.297  26.816  0.00  0.00    +0.167 A 
BRANCH  24  27
ATOM      1  F   UNL     1       3.217   2.278  30.449  0.00  0.00    -0.205 F 
ATOM     27  C   UNL     1       0.184   3.033  27.753  0.00  0.00    +0.020 A 
ATOM     31  C   UNL     1      -0.122   2.752  29.084  0.00  0.00    +0.014 A 
ATOM     32  C   UNL     1       1.514   3.060  27.332  0.00  0.00    +0.014 A 
ATOM     34  C   UNL     1       0.904   2.497  29.995  0.00  0.00    +0.039 A 
ATOM     35  C   UNL     1       2.538   2.804  28.244  0.00  0.00    +0.039 A 
ATOM     36  C   UNL     1       2.234   2.522  29.575  0.00  0.00    +0.123 A 
ENDBRANCH  24  27
ENDBRANCH  15  17
ENDBRANCH  10  15
TORSDOF 7
ENDMDL
