MODEL 1
REMARK VINA RESULT:       3.6      0.000      0.000
REMARK  Name = 56773963
REMARK  8 active torsions:
REMARK  status: ('A' for Active; 'I' for Inactive)
REMARK    1  A    between atoms: S_1  and  N_7
REMARK    2  A    between atoms: S_1  and  C_20
REMARK    3  A    between atoms: O_4  and  C_18
REMARK    4  A    between atoms: C_10  and  C_15
REMARK    5  A    between atoms: C_11  and  C_16
REMARK    6  A    between atoms: C_15  and  C_17
REMARK    7  A    between atoms: C_16  and  C_18
REMARK    8  A    between atoms: C_32  and  C_33
REMARK                            x       y       z     vdW  Elec       q    Type
REMARK                         _______ _______ _______ _____ _____    ______ ____
ROOT
ATOM      7  N   UNL     1      -0.958  -1.790  23.718  0.00  0.00    -0.176 NA
ATOM     10  C   UNL     1       0.749   0.009  23.877  0.00  0.00    +0.014 C 
ATOM     11  C   UNL     1       1.560  -0.692  22.761  0.00  0.00    +0.006 C 
ATOM     12  C   UNL     1      -0.077  -1.030  24.653  0.00  0.00    +0.113 C 
ATOM     13  C   UNL     1       0.656  -1.554  21.867  0.00  0.00    +0.021 C 
ATOM     14  C   UNL     1      -0.174  -2.533  22.690  0.00  0.00    +0.110 C 
ENDROOT
BRANCH   7   1
ATOM      1  S   UNL     1      -2.221  -2.679  24.461  0.00  0.00    +0.061 S 
ATOM      2  O   UNL     1      -1.763  -3.164  25.745  0.00  0.00    -0.153 OA
ATOM      3  O   UNL     1      -2.796  -3.579  23.486  0.00  0.00    -0.153 OA
BRANCH   1  20
ATOM     20  C   UNL     1      -3.380  -1.382  24.755  0.00  0.00    +0.106 A 
ATOM     25  C   UNL     1      -3.435  -0.765  26.005  0.00  0.00    +0.029 A 
ATOM     26  C   UNL     1      -4.243  -0.974  23.738  0.00  0.00    +0.029 A 
ATOM     30  C   UNL     1      -4.353   0.258  26.239  0.00  0.00    +0.015 A 
ATOM     31  C   UNL     1      -5.161   0.051  23.972  0.00  0.00    +0.015 A 
ATOM     32  C   UNL     1      -5.216   0.666  25.222  0.00  0.00    +0.037 A 
BRANCH  32  33
ATOM      6  O   UNL     1      -6.918   2.155  24.564  0.00  0.00    -0.270 OA
ATOM      9  N   UNL     1      -6.244   2.260  26.753  0.00  0.00    -0.325 N 
ATOM     33  C   UNL     1      -6.173   1.733  25.466  0.00  0.00    +0.242 C 
ATOM     35  H   UNL     1      -5.680   1.974  27.544  0.00  0.00    +0.145 HD
ATOM     36  H   UNL     1      -6.908   3.001  26.951  0.00  0.00    +0.145 HD
ENDBRANCH  32  33
ENDBRANCH   1  20
ENDBRANCH   7   1
BRANCH  10  15
ATOM     15  C   UNL     1      -0.150   1.146  23.377  0.00  0.00    +0.060 C 
BRANCH  15  17
ATOM      8  N   UNL     1       0.440   2.237  25.434  0.00  0.00    -0.287 NA
ATOM     17  C   UNL     1      -0.454   2.096  24.511  0.00  0.00    +0.044 C 
ATOM     19  C   UNL     1      -1.754   2.814  24.516  0.00  0.00    -0.001 A 
ATOM     21  C   UNL     1      -2.164   3.367  25.735  0.00  0.00    -0.037 A 
ATOM     22  C   UNL     1       0.173   3.205  26.504  0.00  0.00    +0.146 C 
ATOM     23  C   UNL     1      -1.287   3.191  26.938  0.00  0.00    +0.059 C 
ATOM     24  C   UNL     1      -2.555   2.932  23.378  0.00  0.00    +0.010 A 
ATOM     27  C   UNL     1      -3.397   4.020  25.816  0.00  0.00    +0.004 A 
ATOM     28  C   UNL     1      -3.778   3.599  23.466  0.00  0.00    +0.001 A 
ATOM     29  C   UNL     1      -4.199   4.139  24.681  0.00  0.00    +0.000 A 
ENDBRANCH  15  17
ENDBRANCH  10  15
BRANCH  11  16
ATOM     16  C   UNL     1       2.384   0.280  21.916  0.00  0.00    +0.124 C 
BRANCH  16  18
ATOM      5  O   UNL     1       4.540   0.054  23.030  0.00  0.00    -0.251 OA
ATOM     18  C   UNL     1       3.611   0.749  22.649  0.00  0.00    +0.305 C 
BRANCH  18   4
ATOM      4  O   UNL     1       3.547   2.093  22.835  0.00  0.00    -0.481 OA
ATOM     34  H   UNL     1       4.223   2.568  22.305  0.00  0.00    +0.295 HD
ENDBRANCH  18   4
ENDBRANCH  16  18
ENDBRANCH  11  16
TORSDOF 8
ENDMDL
MODEL 2
REMARK VINA RESULT:       3.8      1.161      2.198
REMARK  Name = 56773963
REMARK  8 active torsions:
REMARK  status: ('A' for Active; 'I' for Inactive)
REMARK    1  A    between atoms: S_1  and  N_7
REMARK    2  A    between atoms: S_1  and  C_20
REMARK    3  A    between atoms: O_4  and  C_18
REMARK    4  A    between atoms: C_10  and  C_15
REMARK    5  A    between atoms: C_11  and  C_16
REMARK    6  A    between atoms: C_15  and  C_17
REMARK    7  A    between atoms: C_16  and  C_18
REMARK    8  A    between atoms: C_32  and  C_33
REMARK                            x       y       z     vdW  Elec       q    Type
REMARK                         _______ _______ _______ _____ _____    ______ ____
ROOT
ATOM      7  N   UNL     1      -0.533  -1.098  24.053  0.00  0.00    -0.176 NA
ATOM     10  C   UNL     1       0.340   1.229  24.067  0.00  0.00    +0.014 C 
ATOM     11  C   UNL     1       1.764   0.673  23.827  0.00  0.00    +0.006 C 
ATOM     12  C   UNL     1      -0.509   0.187  24.813  0.00  0.00    +0.113 C 
ATOM     13  C   UNL     1       1.723  -0.698  23.136  0.00  0.00    +0.021 C 
ATOM     14  C   UNL     1       0.832  -1.678  23.892  0.00  0.00    +0.110 C 
ENDROOT
BRANCH   7   1
ATOM      1  S   UNL     1      -1.750  -2.208  24.527  0.00  0.00    +0.061 S 
ATOM      2  O   UNL     1      -1.387  -2.788  25.802  0.00  0.00    -0.153 OA
ATOM      3  O   UNL     1      -2.087  -3.044  23.396  0.00  0.00    -0.153 OA
BRANCH   1  20
ATOM     20  C   UNL     1      -3.092  -1.095  24.801  0.00  0.00    +0.106 A 
ATOM     25  C   UNL     1      -4.111  -0.985  23.855  0.00  0.00    +0.029 A 
ATOM     26  C   UNL     1      -3.132  -0.324  25.963  0.00  0.00    +0.029 A 
ATOM     30  C   UNL     1      -5.170  -0.103  24.069  0.00  0.00    +0.015 A 
ATOM     31  C   UNL     1      -4.193   0.557  26.178  0.00  0.00    +0.015 A 
ATOM     32  C   UNL     1      -5.211   0.668  25.231  0.00  0.00    +0.037 A 
BRANCH  32  33
ATOM      6  O   UNL     1      -7.180   1.786  24.583  0.00  0.00    -0.270 OA
ATOM      9  N   UNL     1      -6.387   2.227  26.689  0.00  0.00    -0.325 N 
ATOM     33  C   UNL     1      -6.315   1.587  25.455  0.00  0.00    +0.242 C 
ATOM     35  H   UNL     1      -5.731   2.120  27.453  0.00  0.00    +0.145 HD
ATOM     36  H   UNL     1      -7.152   2.868  26.872  0.00  0.00    +0.145 HD
ENDBRANCH  32  33
ENDBRANCH   1  20
ENDBRANCH   7   1
BRANCH  10  15
ATOM     15  C   UNL     1      -0.375   1.690  22.790  0.00  0.00    +0.060 C 
BRANCH  15  17
ATOM      8  N   UNL     1      -2.686   2.054  22.248  0.00  0.00    -0.287 NA
ATOM     17  C   UNL     1      -1.754   2.202  23.131  0.00  0.00    +0.044 C 
ATOM     19  C   UNL     1      -1.971   2.851  24.449  0.00  0.00    -0.001 A 
ATOM     21  C   UNL     1      -3.118   3.643  24.580  0.00  0.00    -0.037 A 
ATOM     22  C   UNL     1      -4.039   2.496  22.602  0.00  0.00    +0.146 C 
ATOM     23  C   UNL     1      -4.029   3.794  23.400  0.00  0.00    +0.059 C 
ATOM     24  C   UNL     1      -1.083   2.707  25.517  0.00  0.00    +0.010 A 
ATOM     27  C   UNL     1      -3.360   4.314  25.783  0.00  0.00    +0.004 A 
ATOM     28  C   UNL     1      -1.341   3.368  26.719  0.00  0.00    +0.001 A 
ATOM     29  C   UNL     1      -2.474   4.171  26.851  0.00  0.00    +0.000 A 
ENDBRANCH  15  17
ENDBRANCH  10  15
BRANCH  11  16
ATOM     16  C   UNL     1       2.664   1.639  23.056  0.00  0.00    +0.124 C 
BRANCH  16  18
ATOM      5  O   UNL     1       4.927   0.827  23.452  0.00  0.00    -0.251 OA
ATOM     18  C   UNL     1       3.981   1.006  22.701  0.00  0.00    +0.305 C 
BRANCH  18   4
ATOM      4  O   UNL     1       3.978   0.648  21.391  0.00  0.00    -0.481 OA
ATOM     34  H   UNL     1       3.350  -0.086  21.215  0.00  0.00    +0.295 HD
ENDBRANCH  18   4
ENDBRANCH  16  18
ENDBRANCH  11  16
TORSDOF 8
ENDMDL
MODEL 3
REMARK VINA RESULT:       3.9      1.539      1.966
REMARK  Name = 56773963
REMARK  8 active torsions:
REMARK  status: ('A' for Active; 'I' for Inactive)
REMARK    1  A    between atoms: S_1  and  N_7
REMARK    2  A    between atoms: S_1  and  C_20
REMARK    3  A    between atoms: O_4  and  C_18
REMARK    4  A    between atoms: C_10  and  C_15
REMARK    5  A    between atoms: C_11  and  C_16
REMARK    6  A    between atoms: C_15  and  C_17
REMARK    7  A    between atoms: C_16  and  C_18
REMARK    8  A    between atoms: C_32  and  C_33
REMARK                            x       y       z     vdW  Elec       q    Type
REMARK                         _______ _______ _______ _____ _____    ______ ____
ROOT
ATOM      7  N   UNL     1      -1.198  -0.839  23.788  0.00  0.00    -0.176 NA
ATOM     10  C   UNL     1       0.990   0.252  24.234  0.00  0.00    +0.014 C 
ATOM     11  C   UNL     1       1.604  -0.550  23.061  0.00  0.00    +0.006 C 
ATOM     12  C   UNL     1      -0.186  -0.530  24.842  0.00  0.00    +0.113 C 
ATOM     13  C   UNL     1       0.534  -0.952  22.035  0.00  0.00    +0.021 C 
ATOM     14  C   UNL     1      -0.630  -1.682  22.697  0.00  0.00    +0.110 C 
ENDROOT
BRANCH   7   1
ATOM      1  S   UNL     1      -2.734  -1.331  24.369  0.00  0.00    +0.061 S 
ATOM      2  O   UNL     1      -2.578  -1.898  25.691  0.00  0.00    -0.153 OA
ATOM      3  O   UNL     1      -3.420  -2.055  23.322  0.00  0.00    -0.153 OA
BRANCH   1  20
ATOM     20  C   UNL     1      -3.515   0.242  24.544  0.00  0.00    +0.106 A 
ATOM     25  C   UNL     1      -3.147   1.300  23.713  0.00  0.00    +0.029 A 
ATOM     26  C   UNL     1      -4.498   0.428  25.516  0.00  0.00    +0.029 A 
ATOM     30  C   UNL     1      -3.762   2.545  23.854  0.00  0.00    +0.015 A 
ATOM     31  C   UNL     1      -5.114   1.673  25.656  0.00  0.00    +0.015 A 
ATOM     32  C   UNL     1      -4.745   2.731  24.825  0.00  0.00    +0.037 A 
BRANCH  32  33
ATOM      6  O   UNL     1      -5.047   5.000  24.274  0.00  0.00    -0.270 OA
ATOM      9  N   UNL     1      -6.409   4.144  25.908  0.00  0.00    -0.325 N 
ATOM     33  C   UNL     1      -5.385   4.027  24.972  0.00  0.00    +0.242 C 
ATOM     35  H   UNL     1      -6.749   3.405  26.511  0.00  0.00    +0.145 HD
ATOM     36  H   UNL     1      -6.877   5.037  26.025  0.00  0.00    +0.145 HD
ENDBRANCH  32  33
ENDBRANCH   1  20
ENDBRANCH   7   1
BRANCH  10  15
ATOM     15  C   UNL     1       0.554   1.674  23.859  0.00  0.00    +0.060 C 
BRANCH  15  17
ATOM      8  N   UNL     1      -0.112   1.692  26.166  0.00  0.00    -0.287 NA
ATOM     17  C   UNL     1      -0.085   2.345  25.051  0.00  0.00    +0.044 C 
ATOM     19  C   UNL     1      -0.651   3.708  24.886  0.00  0.00    -0.001 A 
ATOM     21  C   UNL     1      -1.557   4.136  25.865  0.00  0.00    -0.037 A 
ATOM     22  C   UNL     1      -0.678   2.368  27.340  0.00  0.00    +0.146 C 
ATOM     23  C   UNL     1      -1.901   3.204  26.987  0.00  0.00    +0.059 C 
ATOM     24  C   UNL     1      -0.325   4.537  23.811  0.00  0.00    +0.010 A 
ATOM     27  C   UNL     1      -2.157   5.393  25.747  0.00  0.00    +0.004 A 
ATOM     28  C   UNL     1      -0.918   5.796  23.710  0.00  0.00    +0.001 A 
ATOM     29  C   UNL     1      -1.833   6.222  24.672  0.00  0.00    +0.000 A 
ENDBRANCH  15  17
ENDBRANCH  10  15
BRANCH  11  16
ATOM     16  C   UNL     1       2.761   0.177  22.377  0.00  0.00    +0.124 C 
BRANCH  16  18
ATOM      5  O   UNL     1       4.848   0.972  23.353  0.00  0.00    -0.251 OA
ATOM     18  C   UNL     1       4.029   0.083  23.181  0.00  0.00    +0.305 C 
BRANCH  18   4
ATOM      4  O   UNL     1       4.144  -1.163  23.709  0.00  0.00    -0.481 OA
ATOM     34  H   UNL     1       3.922  -1.177  24.665  0.00  0.00    +0.295 HD
ENDBRANCH  18   4
ENDBRANCH  16  18
ENDBRANCH  11  16
TORSDOF 8
ENDMDL
MODEL 4
REMARK VINA RESULT:       4.8      2.623      4.705
REMARK  Name = 56773963
REMARK  8 active torsions:
REMARK  status: ('A' for Active; 'I' for Inactive)
REMARK    1  A    between atoms: S_1  and  N_7
REMARK    2  A    between atoms: S_1  and  C_20
REMARK    3  A    between atoms: O_4  and  C_18
REMARK    4  A    between atoms: C_10  and  C_15
REMARK    5  A    between atoms: C_11  and  C_16
REMARK    6  A    between atoms: C_15  and  C_17
REMARK    7  A    between atoms: C_16  and  C_18
REMARK    8  A    between atoms: C_32  and  C_33
REMARK                            x       y       z     vdW  Elec       q    Type
REMARK                         _______ _______ _______ _____ _____    ______ ____
ROOT
ATOM      7  N   UNL     1      -0.425   3.345  24.209  0.00  0.00    -0.176 NA
ATOM     10  C   UNL     1      -0.294   0.937  23.607  0.00  0.00    +0.014 C 
ATOM     11  C   UNL     1       1.111   1.186  23.007  0.00  0.00    +0.006 C 
ATOM     12  C   UNL     1      -1.133   2.223  23.524  0.00  0.00    +0.113 C 
ATOM     13  C   UNL     1       1.787   2.406  23.649  0.00  0.00    +0.021 C 
ATOM     14  C   UNL     1       0.895   3.641  23.581  0.00  0.00    +0.110 C 
ENDROOT
BRANCH   7   1
ATOM      1  S   UNL     1      -1.392   4.715  24.563  0.00  0.00    +0.061 S 
ATOM      2  O   UNL     1      -1.531   5.515  23.365  0.00  0.00    -0.153 OA
ATOM      3  O   UNL     1      -0.937   5.302  25.804  0.00  0.00    -0.153 OA
BRANCH   1  20
ATOM     20  C   UNL     1      -2.941   3.927  24.869  0.00  0.00    +0.106 A 
ATOM     25  C   UNL     1      -3.426   3.824  26.173  0.00  0.00    +0.029 A 
ATOM     26  C   UNL     1      -3.681   3.406  23.808  0.00  0.00    +0.029 A 
ATOM     30  C   UNL     1      -4.649   3.199  26.417  0.00  0.00    +0.015 A 
ATOM     31  C   UNL     1      -4.905   2.781  24.050  0.00  0.00    +0.015 A 
ATOM     32  C   UNL     1      -5.388   2.678  25.355  0.00  0.00    +0.037 A 
BRANCH  32  33
ATOM      6  O   UNL     1      -7.415   1.687  24.677  0.00  0.00    -0.270 OA
ATOM      9  N   UNL     1      -7.010   1.774  26.932  0.00  0.00    -0.325 N 
ATOM     33  C   UNL     1      -6.663   2.026  25.608  0.00  0.00    +0.242 C 
ATOM     35  H   UNL     1      -6.458   2.010  27.747  0.00  0.00    +0.145 HD
ATOM     36  H   UNL     1      -7.892   1.314  27.135  0.00  0.00    +0.145 HD
ENDBRANCH  32  33
ENDBRANCH   1  20
ENDBRANCH   7   1
BRANCH  10  15
ATOM     15  C   UNL     1      -0.275   0.400  25.043  0.00  0.00    +0.060 C 
BRANCH  15  17
ATOM      8  N   UNL     1       0.039  -1.956  25.389  0.00  0.00    -0.287 NA
ATOM     17  C   UNL     1      -0.791  -1.019  25.067  0.00  0.00    +0.044 C 
ATOM     19  C   UNL     1      -2.213  -1.269  24.717  0.00  0.00    -0.001 A 
ATOM     21  C   UNL     1      -2.555  -2.583  24.374  0.00  0.00    -0.037 A 
ATOM     22  C   UNL     1      -0.477  -3.327  25.472  0.00  0.00    +0.146 C 
ATOM     23  C   UNL     1      -1.483  -3.630  24.368  0.00  0.00    +0.059 C 
ATOM     24  C   UNL     1      -3.177  -0.260  24.709  0.00  0.00    +0.010 A 
ATOM     27  C   UNL     1      -3.868  -2.877  23.996  0.00  0.00    +0.004 A 
ATOM     28  C   UNL     1      -4.489  -0.566  24.344  0.00  0.00    +0.001 A 
ATOM     29  C   UNL     1      -4.833  -1.869  23.986  0.00  0.00    +0.000 A 
ENDBRANCH  15  17
ENDBRANCH  10  15
BRANCH  11  16
ATOM     16  C   UNL     1       2.022  -0.039  23.084  0.00  0.00    +0.124 C 
BRANCH  16  18
ATOM      5  O   UNL     1       4.433   0.317  23.140  0.00  0.00    -0.251 OA
ATOM     18  C   UNL     1       3.385   0.248  22.516  0.00  0.00    +0.305 C 
BRANCH  18   4
ATOM      4  O   UNL     1       3.293   0.422  21.173  0.00  0.00    -0.481 OA
ATOM     34  H   UNL     1       2.957  -0.382  20.722  0.00  0.00    +0.295 HD
ENDBRANCH  18   4
ENDBRANCH  16  18
ENDBRANCH  11  16
TORSDOF 8
ENDMDL
MODEL 5
REMARK VINA RESULT:       6.6      2.486      4.727
REMARK  Name = 56773963
REMARK  8 active torsions:
REMARK  status: ('A' for Active; 'I' for Inactive)
REMARK    1  A    between atoms: S_1  and  N_7
REMARK    2  A    between atoms: S_1  and  C_20
REMARK    3  A    between atoms: O_4  and  C_18
REMARK    4  A    between atoms: C_10  and  C_15
REMARK    5  A    between atoms: C_11  and  C_16
REMARK    6  A    between atoms: C_15  and  C_17
REMARK    7  A    between atoms: C_16  and  C_18
REMARK    8  A    between atoms: C_32  and  C_33
REMARK                            x       y       z     vdW  Elec       q    Type
REMARK                         _______ _______ _______ _____ _____    ______ ____
ROOT
ATOM      7  N   UNL     1       0.228   2.660  24.049  0.00  0.00    -0.176 NA
ATOM     10  C   UNL     1       0.085   0.261  23.414  0.00  0.00    +0.014 C 
ATOM     11  C   UNL     1       1.542   0.334  22.897  0.00  0.00    +0.006 C 
ATOM     12  C   UNL     1      -0.577   1.645  23.307  0.00  0.00    +0.113 C 
ATOM     13  C   UNL     1       2.331   1.451  23.596  0.00  0.00    +0.021 C 
ATOM     14  C   UNL     1       1.608   2.791  23.499  0.00  0.00    +0.110 C 
ENDROOT
BRANCH   7   1
ATOM      1  S   UNL     1      -0.575   4.139  24.371  0.00  0.00    +0.061 S 
ATOM      2  O   UNL     1      -0.595   4.937  23.164  0.00  0.00    -0.153 OA
ATOM      3  O   UNL     1      -0.076   4.681  25.616  0.00  0.00    -0.153 OA
BRANCH   1  20
ATOM     20  C   UNL     1      -2.213   3.545  24.654  0.00  0.00    +0.106 A 
ATOM     25  C   UNL     1      -2.832   3.766  25.884  0.00  0.00    +0.029 A 
ATOM     26  C   UNL     1      -2.887   2.853  23.648  0.00  0.00    +0.029 A 
ATOM     30  C   UNL     1      -4.126   3.294  26.109  0.00  0.00    +0.015 A 
ATOM     31  C   UNL     1      -4.181   2.382  23.873  0.00  0.00    +0.015 A 
ATOM     32  C   UNL     1      -4.800   2.602  25.103  0.00  0.00    +0.037 A 
BRANCH  32  33
ATOM      6  O   UNL     1      -6.867   1.719  24.401  0.00  0.00    -0.270 OA
ATOM      9  N   UNL     1      -6.605   2.072  26.652  0.00  0.00    -0.325 N 
ATOM     33  C   UNL     1      -6.147   2.110  25.338  0.00  0.00    +0.242 C 
ATOM     35  H   UNL     1      -6.086   2.365  27.470  0.00  0.00    +0.145 HD
ATOM     36  H   UNL     1      -7.540   1.727  26.843  0.00  0.00    +0.145 HD
ENDBRANCH  32  33
ENDBRANCH   1  20
ENDBRANCH   7   1
BRANCH  10  15
ATOM     15  C   UNL     1      -0.046  -0.288  24.840  0.00  0.00    +0.060 C 
BRANCH  15  17
ATOM      8  N   UNL     1      -2.148   0.249  25.869  0.00  0.00    -0.287 NA
ATOM     17  C   UNL     1      -1.494  -0.594  25.141  0.00  0.00    +0.044 C 
ATOM     19  C   UNL     1      -2.090  -1.840  24.595  0.00  0.00    -0.001 A 
ATOM     21  C   UNL     1      -3.276  -2.285  25.193  0.00  0.00    -0.037 A 
ATOM     22  C   UNL     1      -3.571  -0.016  26.111  0.00  0.00    +0.146 C 
ATOM     23  C   UNL     1      -3.849  -1.498  26.332  0.00  0.00    +0.059 C 
ATOM     24  C   UNL     1      -1.510  -2.561  23.549  0.00  0.00    +0.010 A 
ATOM     27  C   UNL     1      -3.866  -3.473  24.753  0.00  0.00    +0.004 A 
ATOM     28  C   UNL     1      -2.115  -3.738  23.107  0.00  0.00    +0.001 A 
ATOM     29  C   UNL     1      -3.287  -4.194  23.708  0.00  0.00    +0.000 A 
ENDBRANCH  15  17
ENDBRANCH  10  15
BRANCH  11  16
ATOM     16  C   UNL     1       2.284  -0.999  23.003  0.00  0.00    +0.124 C 
BRANCH  16  18
ATOM      5  O   UNL     1       4.451   0.093  22.774  0.00  0.00    -0.251 OA
ATOM     18  C   UNL     1       3.755  -0.797  23.240  0.00  0.00    +0.305 C 
BRANCH  18   4
ATOM      4  O   UNL     1       4.223  -1.765  24.069  0.00  0.00    -0.481 OA
ATOM     34  H   UNL     1       3.790  -1.733  24.949  0.00  0.00    +0.295 HD
ENDBRANCH  18   4
ENDBRANCH  16  18
ENDBRANCH  11  16
TORSDOF 8
ENDMDL
MODEL 6
REMARK VINA RESULT:       6.6      2.975      7.403
REMARK  Name = 56773963
REMARK  8 active torsions:
REMARK  status: ('A' for Active; 'I' for Inactive)
REMARK    1  A    between atoms: S_1  and  N_7
REMARK    2  A    between atoms: S_1  and  C_20
REMARK    3  A    between atoms: O_4  and  C_18
REMARK    4  A    between atoms: C_10  and  C_15
REMARK    5  A    between atoms: C_11  and  C_16
REMARK    6  A    between atoms: C_15  and  C_17
REMARK    7  A    between atoms: C_16  and  C_18
REMARK    8  A    between atoms: C_32  and  C_33
REMARK                            x       y       z     vdW  Elec       q    Type
REMARK                         _______ _______ _______ _____ _____    ______ ____
ROOT
ATOM      7  N   UNL     1      -1.731   3.466  24.682  0.00  0.00    -0.176 NA
ATOM     10  C   UNL     1      -3.700   2.074  25.284  0.00  0.00    +0.014 C 
ATOM     11  C   UNL     1      -4.525   3.367  25.487  0.00  0.00    +0.006 C 
ATOM     12  C   UNL     1      -2.213   2.355  25.555  0.00  0.00    +0.113 C 
ATOM     13  C   UNL     1      -3.957   4.531  24.661  0.00  0.00    +0.021 C 
ATOM     14  C   UNL     1      -2.470   4.737  24.934  0.00  0.00    +0.110 C 
ENDROOT
BRANCH   7   1
ATOM      1  S   UNL     1      -0.028   3.620  24.564  0.00  0.00    +0.061 S 
ATOM      2  O   UNL     1       0.307   5.017  24.391  0.00  0.00    -0.153 OA
ATOM      3  O   UNL     1       0.470   2.615  23.652  0.00  0.00    -0.153 OA
BRANCH   1  20
ATOM     20  C   UNL     1       0.437   3.150  26.200  0.00  0.00    +0.106 A 
ATOM     25  C   UNL     1      -0.396   2.322  26.951  0.00  0.00    +0.029 A 
ATOM     26  C   UNL     1       1.638   3.608  26.742  0.00  0.00    +0.029 A 
ATOM     30  C   UNL     1      -0.030   1.953  28.246  0.00  0.00    +0.015 A 
ATOM     31  C   UNL     1       2.005   3.238  28.036  0.00  0.00    +0.015 A 
ATOM     32  C   UNL     1       1.171   2.411  28.788  0.00  0.00    +0.037 A 
BRANCH  32  33
ATOM      6  O   UNL     1       0.851   2.325  31.120  0.00  0.00    -0.270 OA
ATOM      9  N   UNL     1       2.724   1.292  30.295  0.00  0.00    -0.325 N 
ATOM     33  C   UNL     1       1.553   2.026  30.137  0.00  0.00    +0.242 C 
ATOM     35  H   UNL     1       3.350   1.003  29.553  0.00  0.00    +0.145 HD
ATOM     36  H   UNL     1       3.010   1.005  31.226  0.00  0.00    +0.145 HD
ENDBRANCH  32  33
ENDBRANCH   1  20
ENDBRANCH   7   1
BRANCH  10  15
ATOM     15  C   UNL     1      -3.882   1.425  23.906  0.00  0.00    +0.060 C 
BRANCH  15  17
ATOM      8  N   UNL     1      -4.780  -0.802  23.906  0.00  0.00    -0.287 NA
ATOM     17  C   UNL     1      -3.720  -0.072  24.018  0.00  0.00    +0.044 C 
ATOM     19  C   UNL     1      -2.363  -0.629  24.256  0.00  0.00    -0.001 A 
ATOM     21  C   UNL     1      -2.298  -1.944  24.734  0.00  0.00    -0.037 A 
ATOM     22  C   UNL     1      -4.615  -2.259  23.954  0.00  0.00    +0.146 C 
ATOM     23  C   UNL     1      -3.576  -2.686  24.983  0.00  0.00    +0.059 C 
ATOM     24  C   UNL     1      -1.196   0.105  24.037  0.00  0.00    +0.010 A 
ATOM     27  C   UNL     1      -1.053  -2.513  25.017  0.00  0.00    +0.004 A 
ATOM     28  C   UNL     1       0.043  -0.478  24.308  0.00  0.00    +0.001 A 
ATOM     29  C   UNL     1       0.115  -1.781  24.798  0.00  0.00    +0.000 A 
ENDBRANCH  15  17
ENDBRANCH  10  15
BRANCH  11  16
ATOM     16  C   UNL     1      -6.015   3.180  25.201  0.00  0.00    +0.124 C 
BRANCH  16  18
ATOM      5  O   UNL     1      -6.453   1.546  26.955  0.00  0.00    -0.251 OA
ATOM     18  C   UNL     1      -6.536   1.897  25.788  0.00  0.00    +0.305 C 
BRANCH  18   4
ATOM      4  O   UNL     1      -7.131   1.158  24.817  0.00  0.00    -0.481 OA
ATOM     34  H   UNL     1      -7.354   1.700  24.030  0.00  0.00    +0.295 HD
ENDBRANCH  18   4
ENDBRANCH  16  18
ENDBRANCH  11  16
TORSDOF 8
ENDMDL
MODEL 7
REMARK VINA RESULT:       6.7      1.621      6.332
REMARK  Name = 56773963
REMARK  8 active torsions:
REMARK  status: ('A' for Active; 'I' for Inactive)
REMARK    1  A    between atoms: S_1  and  N_7
REMARK    2  A    between atoms: S_1  and  C_20
REMARK    3  A    between atoms: O_4  and  C_18
REMARK    4  A    between atoms: C_10  and  C_15
REMARK    5  A    between atoms: C_11  and  C_16
REMARK    6  A    between atoms: C_15  and  C_17
REMARK    7  A    between atoms: C_16  and  C_18
REMARK    8  A    between atoms: C_32  and  C_33
REMARK                            x       y       z     vdW  Elec       q    Type
REMARK                         _______ _______ _______ _____ _____    ______ ____
ROOT
ATOM      7  N   UNL     1      -2.488  -1.030  24.519  0.00  0.00    -0.176 NA
ATOM     10  C   UNL     1      -4.159   0.376  23.332  0.00  0.00    +0.014 C 
ATOM     11  C   UNL     1      -4.771   0.764  24.700  0.00  0.00    +0.006 C 
ATOM     12  C   UNL     1      -3.507  -1.013  23.427  0.00  0.00    +0.113 C 
ATOM     13  C   UNL     1      -3.739   0.643  25.832  0.00  0.00    +0.021 C 
ATOM     14  C   UNL     1      -3.091  -0.737  25.851  0.00  0.00    +0.110 C 
ENDROOT
BRANCH   7   1
ATOM      1  S   UNL     1      -1.397  -2.351  24.482  0.00  0.00    +0.061 S 
ATOM      2  O   UNL     1      -1.809  -3.273  23.445  0.00  0.00    -0.153 OA
ATOM      3  O   UNL     1      -1.167  -2.805  25.836  0.00  0.00    -0.153 OA
BRANCH   1  20
ATOM     20  C   UNL     1       0.063  -1.530  23.928  0.00  0.00    +0.106 A 
ATOM     25  C   UNL     1      -0.016  -0.573  22.917  0.00  0.00    +0.029 A 
ATOM     26  C   UNL     1       1.297  -1.839  24.500  0.00  0.00    +0.029 A 
ATOM     30  C   UNL     1       1.138   0.075  22.475  0.00  0.00    +0.015 A 
ATOM     31  C   UNL     1       2.452  -1.191  24.060  0.00  0.00    +0.015 A 
ATOM     32  C   UNL     1       2.372  -0.235  23.047  0.00  0.00    +0.037 A 
BRANCH  32  33
ATOM      6  O   UNL     1       3.731   0.746  21.392  0.00  0.00    -0.270 OA
ATOM      9  N   UNL     1       4.546   0.752  23.536  0.00  0.00    -0.325 N 
ATOM     33  C   UNL     1       3.575   0.440  22.588  0.00  0.00    +0.242 C 
ATOM     35  H   UNL     1       4.498   0.545  24.526  0.00  0.00    +0.145 HD
ATOM     36  H   UNL     1       5.392   1.229  23.242  0.00  0.00    +0.145 HD
ENDBRANCH  32  33
ENDBRANCH   1  20
ENDBRANCH   7   1
BRANCH  10  15
ATOM     15  C   UNL     1      -3.162   1.402  22.780  0.00  0.00    +0.060 C 
BRANCH  15  17
ATOM      8  N   UNL     1      -3.939   3.476  23.708  0.00  0.00    -0.287 NA
ATOM     17  C   UNL     1      -3.030   2.558  23.743  0.00  0.00    +0.044 C 
ATOM     19  C   UNL     1      -1.870   2.589  24.670  0.00  0.00    -0.001 A 
ATOM     21  C   UNL     1      -1.566   3.823  25.258  0.00  0.00    -0.037 A 
ATOM     22  C   UNL     1      -3.845   4.568  24.684  0.00  0.00    +0.146 C 
ATOM     23  C   UNL     1      -2.406   5.015  24.909  0.00  0.00    +0.059 C 
ATOM     24  C   UNL     1      -1.095   1.461  24.948  0.00  0.00    +0.010 A 
ATOM     27  C   UNL     1      -0.462   3.928  26.109  0.00  0.00    +0.004 A 
ATOM     28  C   UNL     1      -0.004   1.573  25.811  0.00  0.00    +0.001 A 
ATOM     29  C   UNL     1       0.313   2.802  26.387  0.00  0.00    +0.000 A 
ENDBRANCH  15  17
ENDBRANCH  10  15
BRANCH  11  16
ATOM     16  C   UNL     1      -5.411   2.153  24.700  0.00  0.00    +0.124 C 
BRANCH  16  18
ATOM      5  O   UNL     1      -6.631   1.590  26.733  0.00  0.00    -0.251 OA
ATOM     18  C   UNL     1      -6.149   2.424  25.982  0.00  0.00    +0.305 C 
BRANCH  18   4
ATOM      4  O   UNL     1      -6.210   3.762  26.200  0.00  0.00    -0.481 OA
ATOM     34  H   UNL     1      -5.375   4.109  26.582  0.00  0.00    +0.295 HD
ENDBRANCH  18   4
ENDBRANCH  16  18
ENDBRANCH  11  16
TORSDOF 8
ENDMDL
MODEL 8
REMARK VINA RESULT:       7.5      2.279      5.673
REMARK  Name = 56773963
REMARK  8 active torsions:
REMARK  status: ('A' for Active; 'I' for Inactive)
REMARK    1  A    between atoms: S_1  and  N_7
REMARK    2  A    between atoms: S_1  and  C_20
REMARK    3  A    between atoms: O_4  and  C_18
REMARK    4  A    between atoms: C_10  and  C_15
REMARK    5  A    between atoms: C_11  and  C_16
REMARK    6  A    between atoms: C_15  and  C_17
REMARK    7  A    between atoms: C_16  and  C_18
REMARK    8  A    between atoms: C_32  and  C_33
REMARK                            x       y       z     vdW  Elec       q    Type
REMARK                         _______ _______ _______ _____ _____    ______ ____
ROOT
ATOM      7  N   UNL     1      -4.600   2.768  25.482  0.00  0.00    -0.176 NA
ATOM     10  C   UNL     1      -2.419   3.450  24.504  0.00  0.00    +0.014 C 
ATOM     11  C   UNL     1      -2.750   4.922  24.849  0.00  0.00    +0.006 C 
ATOM     12  C   UNL     1      -3.720   2.661  24.280  0.00  0.00    +0.113 C 
ATOM     13  C   UNL     1      -3.737   5.016  26.022  0.00  0.00    +0.021 C 
ATOM     14  C   UNL     1      -4.988   4.180  25.768  0.00  0.00    +0.110 C 
ENDROOT
BRANCH   7   1
ATOM      1  S   UNL     1      -5.878   1.628  25.558  0.00  0.00    +0.061 S 
ATOM      2  O   UNL     1      -6.849   1.940  24.531  0.00  0.00    -0.153 OA
ATOM      3  O   UNL     1      -6.278   1.465  26.938  0.00  0.00    -0.153 OA
BRANCH   1  20
ATOM     20  C   UNL     1      -5.018   0.168  25.064  0.00  0.00    +0.106 A 
ATOM     25  C   UNL     1      -4.952  -0.179  23.715  0.00  0.00    +0.029 A 
ATOM     26  C   UNL     1      -4.406  -0.639  26.023  0.00  0.00    +0.029 A 
ATOM     30  C   UNL     1      -4.275  -1.335  23.325  0.00  0.00    +0.015 A 
ATOM     31  C   UNL     1      -3.728  -1.794  25.633  0.00  0.00    +0.015 A 
ATOM     32  C   UNL     1      -3.663  -2.142  24.284  0.00  0.00    +0.037 A 
BRANCH  32  33
ATOM      6  O   UNL     1      -1.763  -3.313  23.533  0.00  0.00    -0.270 OA
ATOM      9  N   UNL     1      -3.659  -4.549  23.902  0.00  0.00    -0.325 N 
ATOM     33  C   UNL     1      -2.958  -3.346  23.877  0.00  0.00    +0.242 C 
ATOM     35  H   UNL     1      -4.627  -4.666  24.172  0.00  0.00    +0.145 HD
ATOM     36  H   UNL     1      -3.187  -5.405  23.629  0.00  0.00    +0.145 HD
ENDBRANCH  32  33
ENDBRANCH   1  20
ENDBRANCH   7   1
BRANCH  10  15
ATOM     15  C   UNL     1      -1.537   2.747  25.543  0.00  0.00    +0.060 C 
BRANCH  15  17
ATOM      8  N   UNL     1       0.154   2.309  23.895  0.00  0.00    -0.287 NA
ATOM     17  C   UNL     1      -0.568   1.820  24.849  0.00  0.00    +0.044 C 
ATOM     19  C   UNL     1      -0.494   0.403  25.288  0.00  0.00    -0.001 A 
ATOM     21  C   UNL     1       0.103  -0.501  24.400  0.00  0.00    -0.037 A 
ATOM     22  C   UNL     1       1.139   1.424  23.261  0.00  0.00    +0.146 C 
ATOM     23  C   UNL     1       0.608   0.008  23.084  0.00  0.00    +0.059 C 
ATOM     24  C   UNL     1      -1.001  -0.036  26.512  0.00  0.00    +0.010 A 
ATOM     27  C   UNL     1       0.168  -1.856  24.736  0.00  0.00    +0.004 A 
ATOM     28  C   UNL     1      -0.918  -1.389  26.845  0.00  0.00    +0.001 A 
ATOM     29  C   UNL     1      -0.338  -2.297  25.959  0.00  0.00    +0.000 A 
ENDBRANCH  15  17
ENDBRANCH  10  15
BRANCH  11  16
ATOM     16  C   UNL     1      -1.506   5.768  25.123  0.00  0.00    +0.124 C 
BRANCH  16  18
ATOM      5  O   UNL     1      -0.112   5.267  23.188  0.00  0.00    -0.251 OA
ATOM     18  C   UNL     1      -0.303   5.237  24.394  0.00  0.00    +0.305 C 
BRANCH  18   4
ATOM      4  O   UNL     1       0.573   4.705  25.284  0.00  0.00    -0.481 OA
ATOM     34  H   UNL     1       1.421   4.454  24.858  0.00  0.00    +0.295 HD
ENDBRANCH  18   4
ENDBRANCH  16  18
ENDBRANCH  11  16
TORSDOF 8
ENDMDL
