MODEL 1
REMARK VINA RESULT:      -2.6      0.000      0.000
REMARK  Name = 28960844
REMARK  9 active torsions:
REMARK  status: ('A' for Active; 'I' for Inactive)
REMARK    1  A    between atoms: N_3  and  C_13
REMARK    2  A    between atoms: N_4  and  C_8
REMARK    3  A    between atoms: N_7  and  C_23
REMARK    4  A    between atoms: N_7  and  C_28
REMARK    5  A    between atoms: N_7  and  C_29
REMARK    6  A    between atoms: C_9  and  C_12
REMARK    7  A    between atoms: C_14  and  C_16
REMARK    8  A    between atoms: C_15  and  C_17
REMARK    9  A    between atoms: C_17  and  C_20
REMARK                            x       y       z     vdW  Elec       q    Type
REMARK                         _______ _______ _______ _____ _____    ______ ____
ROOT
ATOM      3  N   UNL     1      15.017  -9.534  27.182  0.00  0.00    -0.293 NA
ATOM      8  C   UNL     1      16.874  -9.195  25.813  0.00  0.00    +0.089 C 
ATOM      9  C   UNL     1      16.158  -9.912  28.037  0.00  0.00    +0.147 C 
ATOM     10  C   UNL     1      17.404  -9.550  27.203  0.00  0.00    +0.052 C 
ATOM     11  C   UNL     1      15.459  -9.756  25.802  0.00  0.00    +0.107 C 
ATOM     13  C   UNL     1      13.800 -10.275  27.489  0.00  0.00    +0.105 C 
ENDROOT
BRANCH   9  12
ATOM      1  O   UNL     1      17.324  -8.687  29.802  0.00  0.00    -0.336 OA
ATOM      5  N   UNL     1      15.166  -9.093  30.242  0.00  0.00    -0.194 NA
ATOM      6  N   UNL     1      17.072  -8.129  31.063  0.00  0.00    -0.061 NA
ATOM     12  C   UNL     1      16.150  -9.233  29.391  0.00  0.00    +0.245 A 
ATOM     15  C   UNL     1      15.779  -8.410  31.251  0.00  0.00    +0.176 A 
BRANCH  15  17
ATOM     17  C   UNL     1      15.067  -8.009  32.470  0.00  0.00    +0.114 C 
BRANCH  17  20
ATOM     20  C   UNL     1      13.912  -7.037  32.245  0.00  0.00    -0.040 A 
ATOM     24  C   UNL     1      14.150  -5.662  32.225  0.00  0.00    +0.004 A 
ATOM     25  C   UNL     1      12.619  -7.523  32.060  0.00  0.00    +0.004 A 
ATOM     26  C   UNL     1      13.094  -4.774  32.019  0.00  0.00    +0.000 A 
ATOM     27  C   UNL     1      11.562  -6.636  31.855  0.00  0.00    +0.000 A 
ATOM     30  C   UNL     1      11.800  -5.262  31.834  0.00  0.00    +0.000 A 
ENDBRANCH  17  20
ENDBRANCH  15  17
ENDBRANCH   9  12
BRANCH   8   4
ATOM      2  O   UNL     1      17.405  -7.846  23.335  0.00  0.00    -0.270 OA
ATOM      4  N   UNL     1      16.876  -7.769  25.592  0.00  0.00    -0.307 N 
ATOM     14  C   UNL     1      17.146  -7.209  24.353  0.00  0.00    +0.244 C 
ATOM     31  H   UNL     1      16.660  -7.181  26.389  0.00  0.00    +0.149 HD
BRANCH  14  16
ATOM     16  C   UNL     1      17.135  -5.725  24.297  0.00  0.00    +0.037 A 
ATOM     18  C   UNL     1      16.889  -4.984  25.453  0.00  0.00    +0.015 A 
ATOM     19  C   UNL     1      17.368  -5.071  23.087  0.00  0.00    +0.015 A 
ATOM     21  C   UNL     1      16.878  -3.591  25.401  0.00  0.00    +0.024 A 
ATOM     22  C   UNL     1      17.356  -3.677  23.034  0.00  0.00    +0.024 A 
ATOM     23  C   UNL     1      17.111  -2.937  24.191  0.00  0.00    +0.029 A 
BRANCH  23   7
ATOM      7  N   UNL     1      17.099  -1.528  24.136  0.00  0.00    -0.336 N 
ATOM     28  C   UNL     1      16.887  -0.749  25.340  0.00  0.00    +0.129 C 
ATOM     29  C   UNL     1      17.308  -0.840  22.878  0.00  0.00    +0.129 C 
ENDBRANCH  23   7
ENDBRANCH  14  16
ENDBRANCH   8   4
TORSDOF 6
ENDMDL
MODEL 2
REMARK VINA RESULT:      -2.1      1.504      2.050
REMARK  Name = 28960844
REMARK  9 active torsions:
REMARK  status: ('A' for Active; 'I' for Inactive)
REMARK    1  A    between atoms: N_3  and  C_13
REMARK    2  A    between atoms: N_4  and  C_8
REMARK    3  A    between atoms: N_7  and  C_23
REMARK    4  A    between atoms: N_7  and  C_28
REMARK    5  A    between atoms: N_7  and  C_29
REMARK    6  A    between atoms: C_9  and  C_12
REMARK    7  A    between atoms: C_14  and  C_16
REMARK    8  A    between atoms: C_15  and  C_17
REMARK    9  A    between atoms: C_17  and  C_20
REMARK                            x       y       z     vdW  Elec       q    Type
REMARK                         _______ _______ _______ _____ _____    ______ ____
ROOT
ATOM      3  N   UNL     1      15.162  -8.966  26.881  0.00  0.00    -0.293 NA
ATOM      8  C   UNL     1      17.349  -8.475  26.238  0.00  0.00    +0.089 C 
ATOM      9  C   UNL     1      15.939  -9.130  28.124  0.00  0.00    +0.147 C 
ATOM     10  C   UNL     1      17.361  -8.663  27.756  0.00  0.00    +0.052 C 
ATOM     11  C   UNL     1      16.101  -9.218  25.783  0.00  0.00    +0.107 C 
ATOM     13  C   UNL     1      13.997  -9.840  26.812  0.00  0.00    +0.105 C 
ENDROOT
BRANCH   9  12
ATOM      1  O   UNL     1      15.811  -7.099  29.478  0.00  0.00    -0.336 OA
ATOM      5  N   UNL     1      14.490  -8.760  30.192  0.00  0.00    -0.194 NA
ATOM      6  N   UNL     1      15.150  -6.611  30.612  0.00  0.00    -0.061 NA
ATOM     12  C   UNL     1      15.364  -8.370  29.301  0.00  0.00    +0.245 A 
ATOM     15  C   UNL     1      14.389  -7.647  30.975  0.00  0.00    +0.176 A 
BRANCH  15  17
ATOM     17  C   UNL     1      13.505  -7.590  32.144  0.00  0.00    +0.114 C 
BRANCH  17  20
ATOM     20  C   UNL     1      12.309  -8.536  32.088  0.00  0.00    -0.040 A 
ATOM     24  C   UNL     1      11.018  -8.024  31.967  0.00  0.00    +0.004 A 
ATOM     25  C   UNL     1      12.508  -9.915  32.159  0.00  0.00    +0.004 A 
ATOM     26  C   UNL     1       9.925  -8.889  31.916  0.00  0.00    +0.000 A 
ATOM     27  C   UNL     1      11.416 -10.781  32.108  0.00  0.00    +0.000 A 
ATOM     30  C   UNL     1      10.125 -10.268  31.986  0.00  0.00    +0.000 A 
ENDBRANCH  17  20
ENDBRANCH  15  17
ENDBRANCH   9  12
BRANCH   8   4
ATOM      2  O   UNL     1      17.376  -7.390  23.580  0.00  0.00    -0.270 OA
ATOM      4  N   UNL     1      17.290  -7.078  25.877  0.00  0.00    -0.307 N 
ATOM     14  C   UNL     1      17.309  -6.650  24.558  0.00  0.00    +0.244 C 
ATOM     31  H   UNL     1      17.224  -6.411  26.636  0.00  0.00    +0.149 HD
BRANCH  14  16
ATOM     16  C   UNL     1      17.268  -5.180  24.354  0.00  0.00    +0.037 A 
ATOM     18  C   UNL     1      17.237  -4.323  25.455  0.00  0.00    +0.015 A 
ATOM     19  C   UNL     1      17.258  -4.655  23.062  0.00  0.00    +0.015 A 
ATOM     21  C   UNL     1      17.198  -2.942  25.263  0.00  0.00    +0.024 A 
ATOM     22  C   UNL     1      17.218  -3.274  22.870  0.00  0.00    +0.024 A 
ATOM     23  C   UNL     1      17.188  -2.417  23.971  0.00  0.00    +0.029 A 
BRANCH  23   7
ATOM      7  N   UNL     1      17.148  -1.021  23.776  0.00  0.00    -0.336 N 
ATOM     28  C   UNL     1      17.236  -0.120  24.907  0.00  0.00    +0.129 C 
ATOM     29  C   UNL     1      17.027  -0.470  22.441  0.00  0.00    +0.129 C 
ENDBRANCH  23   7
ENDBRANCH  14  16
ENDBRANCH   8   4
TORSDOF 6
ENDMDL
