MODEL 1
REMARK VINA RESULT:      -2.6      0.000      0.000
REMARK  Name = 38029393
REMARK  12 active torsions:
REMARK  status: ('A' for Active; 'I' for Inactive)
REMARK    1  A    between atoms: N_3  and  C_13
REMARK    2  A    between atoms: N_4  and  C_20
REMARK    3  A    between atoms: C_6  and  C_10
REMARK    4  A    between atoms: C_7  and  C_13
REMARK    5  A    between atoms: C_9  and  C_14
REMARK    6  A    between atoms: C_10  and  C_15
REMARK    7  A    between atoms: C_10  and  C_16
REMARK    8  A    between atoms: C_11  and  C_17
REMARK    9  A    between atoms: C_14  and  C_18
REMARK   10  A    between atoms: C_19  and  C_21
REMARK   11  A    between atoms: C_20  and  C_22
REMARK   12  A    between atoms: C_32  and  C_33
REMARK                            x       y       z     vdW  Elec       q    Type
REMARK                         _______ _______ _______ _____ _____    ______ ____
ROOT
ATOM      6  C   UNL     1      -1.961   0.149  24.925  0.00  0.00    +0.000 C 
ATOM      7  C   UNL     1      -1.005  -1.002  24.525  0.00  0.00    +0.032 C 
ATOM      8  C   UNL     1      -3.042  -0.362  25.890  0.00  0.00    +0.012 C 
ATOM      9  C   UNL     1      -3.880  -1.500  25.276  0.00  0.00    +0.023 C 
ATOM     11  C   UNL     1      -3.007  -2.550  24.619  0.00  0.00    -0.073 C 
ATOM     12  C   UNL     1      -1.721  -2.315  24.304  0.00  0.00    -0.022 C 
ATOM     17  C   UNL     1      -3.633  -3.895  24.375  0.00  0.00    +0.039 C 
ENDROOT
BRANCH   6  10
ATOM     10  C   UNL     1      -1.206   1.318  25.566  0.00  0.00    -0.013 C 
ATOM     15  C   UNL     1      -0.378   2.055  24.518  0.00  0.00    +0.007 C 
ATOM     16  C   UNL     1      -0.320   0.819  26.703  0.00  0.00    +0.007 C 
ENDBRANCH   6  10
BRANCH   7  13
ATOM     13  C   UNL     1      -0.199  -0.642  23.272  0.00  0.00    +0.112 C 
BRANCH  13   3
ATOM      2  O   UNL     1       1.935  -0.193  21.405  0.00  0.00    -0.270 OA
ATOM      3  N   UNL     1       1.192  -0.532  23.578  0.00  0.00    -0.311 N 
ATOM     19  C   UNL     1       2.167  -0.313  22.605  0.00  0.00    +0.244 C 
ATOM     34  H   UNL     1       1.459  -0.629  24.551  0.00  0.00    +0.149 HD
BRANCH  19  21
ATOM     21  C   UNL     1       3.573  -0.248  23.083  0.00  0.00    +0.037 A 
ATOM     23  C   UNL     1       4.156  -1.360  23.689  0.00  0.00    +0.013 A 
ATOM     24  C   UNL     1       4.308   0.926  22.925  0.00  0.00    +0.013 A 
ATOM     27  C   UNL     1       5.476  -1.299  24.137  0.00  0.00    +0.001 A 
ATOM     28  C   UNL     1       5.628   0.988  23.373  0.00  0.00    +0.001 A 
ATOM     29  C   UNL     1       6.212  -0.124  23.979  0.00  0.00    +0.000 A 
ENDBRANCH  19  21
ENDBRANCH  13   3
ENDBRANCH   7  13
BRANCH   9  14
ATOM     14  C   UNL     1      -4.915  -0.952  24.287  0.00  0.00    +0.103 C 
BRANCH  14  18
ATOM      1  O   UNL     1      -4.212   1.224  23.496  0.00  0.00    -0.276 OA
ATOM      4  N   UNL     1      -5.819   1.078  25.168  0.00  0.00    -0.311 N 
ATOM     18  C   UNL     1      -4.920   0.560  24.249  0.00  0.00    +0.214 C 
ATOM     35  H   UNL     1      -6.366   0.446  25.747  0.00  0.00    +0.149 HD
BRANCH   4  20
ATOM     20  C   UNL     1      -6.033   2.495  25.351  0.00  0.00    +0.139 C 
BRANCH  20  22
ATOM     22  C   UNL     1      -4.754   3.275  25.240  0.00  0.00    -0.030 A 
ATOM     25  C   UNL     1      -4.341   3.763  24.000  0.00  0.00    +0.006 A 
ATOM     26  C   UNL     1      -3.980   3.511  26.376  0.00  0.00    +0.006 A 
ATOM     30  C   UNL     1      -3.154   4.487  23.897  0.00  0.00    +0.019 A 
ATOM     31  C   UNL     1      -2.793   4.236  26.272  0.00  0.00    +0.019 A 
ATOM     32  C   UNL     1      -2.380   4.724  25.032  0.00  0.00    +0.052 A 
BRANCH  32  33
ATOM      5  N   UNL     1      -0.175   6.068  24.840  0.00  0.00    -0.191 NA
ATOM     33  C   UNL     1      -1.163   5.466  24.926  0.00  0.00    +0.099 C 
ENDBRANCH  32  33
ENDBRANCH  20  22
ENDBRANCH   4  20
ENDBRANCH  14  18
ENDBRANCH   9  14
TORSDOF 9
ENDMDL
MODEL 2
REMARK VINA RESULT:      -1.3      1.798      7.565
REMARK  Name = 38029393
REMARK  12 active torsions:
REMARK  status: ('A' for Active; 'I' for Inactive)
REMARK    1  A    between atoms: N_3  and  C_13
REMARK    2  A    between atoms: N_4  and  C_20
REMARK    3  A    between atoms: C_6  and  C_10
REMARK    4  A    between atoms: C_7  and  C_13
REMARK    5  A    between atoms: C_9  and  C_14
REMARK    6  A    between atoms: C_10  and  C_15
REMARK    7  A    between atoms: C_10  and  C_16
REMARK    8  A    between atoms: C_11  and  C_17
REMARK    9  A    between atoms: C_14  and  C_18
REMARK   10  A    between atoms: C_19  and  C_21
REMARK   11  A    between atoms: C_20  and  C_22
REMARK   12  A    between atoms: C_32  and  C_33
REMARK                            x       y       z     vdW  Elec       q    Type
REMARK                         _______ _______ _______ _____ _____    ______ ____
ROOT
ATOM      6  C   UNL     1      -3.602   3.465  25.612  0.00  0.00    +0.000 C 
ATOM      7  C   UNL     1      -3.600   3.853  24.112  0.00  0.00    +0.032 C 
ATOM      8  C   UNL     1      -2.502   4.229  26.365  0.00  0.00    +0.012 C 
ATOM      9  C   UNL     1      -1.100   3.947  25.791  0.00  0.00    +0.023 C 
ATOM     11  C   UNL     1      -1.081   4.048  24.278  0.00  0.00    -0.073 C 
ATOM     12  C   UNL     1      -2.208   4.018  23.546  0.00  0.00    -0.022 C 
ATOM     17  C   UNL     1       0.263   4.230  23.629  0.00  0.00    +0.039 C 
ENDROOT
BRANCH   6  10
ATOM     10  C   UNL     1      -4.961   3.735  26.267  0.00  0.00    -0.013 C 
ATOM     15  C   UNL     1      -5.684   2.423  26.553  0.00  0.00    +0.007 C 
ATOM     16  C   UNL     1      -5.809   4.637  25.377  0.00  0.00    +0.007 C 
ENDBRANCH   6  10
BRANCH   7  13
ATOM     13  C   UNL     1      -4.374   2.828  23.275  0.00  0.00    +0.112 C 
BRANCH  13   3
ATOM      2  O   UNL     1      -5.989   0.822  24.544  0.00  0.00    -0.270 OA
ATOM      3  N   UNL     1      -3.976   1.497  23.608  0.00  0.00    -0.311 N 
ATOM     19  C   UNL     1      -4.827   0.582  24.226  0.00  0.00    +0.244 C 
ATOM     34  H   UNL     1      -3.024   1.230  23.381  0.00  0.00    +0.149 HD
BRANCH  19  21
ATOM     21  C   UNL     1      -4.253  -0.755  24.529  0.00  0.00    +0.037 A 
ATOM     23  C   UNL     1      -3.652  -0.993  25.764  0.00  0.00    +0.013 A 
ATOM     24  C   UNL     1      -4.315  -1.771  23.576  0.00  0.00    +0.013 A 
ATOM     27  C   UNL     1      -3.113  -2.248  26.048  0.00  0.00    +0.001 A 
ATOM     28  C   UNL     1      -3.777  -3.027  23.859  0.00  0.00    +0.001 A 
ATOM     29  C   UNL     1      -3.175  -3.265  25.095  0.00  0.00    +0.000 A 
ENDBRANCH  19  21
ENDBRANCH  13   3
ENDBRANCH   7  13
BRANCH   9  14
ATOM     14  C   UNL     1      -0.576   2.584  26.256  0.00  0.00    +0.103 C 
BRANCH  14  18
ATOM      1  O   UNL     1      -1.565   0.937  24.784  0.00  0.00    -0.276 OA
ATOM      4  N   UNL     1       0.693   1.447  24.579  0.00  0.00    -0.311 N 
ATOM     18  C   UNL     1      -0.571   1.566  25.137  0.00  0.00    +0.214 C 
ATOM     35  H   UNL     1       1.456   2.015  24.938  0.00  0.00    +0.149 HD
BRANCH   4  20
ATOM     20  C   UNL     1       0.994   0.546  23.491  0.00  0.00    +0.139 C 
BRANCH  20  22
ATOM     22  C   UNL     1       2.470   0.305  23.352  0.00  0.00    -0.030 A 
ATOM     25  C   UNL     1       3.004  -0.945  23.663  0.00  0.00    +0.006 A 
ATOM     26  C   UNL     1       3.305   1.331  22.911  0.00  0.00    +0.006 A 
ATOM     30  C   UNL     1       4.375  -1.169  23.534  0.00  0.00    +0.019 A 
ATOM     31  C   UNL     1       4.675   1.107  22.782  0.00  0.00    +0.019 A 
ATOM     32  C   UNL     1       5.210  -0.143  23.093  0.00  0.00    +0.052 A 
BRANCH  32  33
ATOM      5  N   UNL     1       7.755  -0.559  22.853  0.00  0.00    -0.191 NA
ATOM     33  C   UNL     1       6.615  -0.373  22.961  0.00  0.00    +0.099 C 
ENDBRANCH  32  33
ENDBRANCH  20  22
ENDBRANCH   4  20
ENDBRANCH  14  18
ENDBRANCH   9  14
TORSDOF 9
ENDMDL
MODEL 3
REMARK VINA RESULT:       0.4      1.765      5.011
REMARK  Name = 38029393
REMARK  12 active torsions:
REMARK  status: ('A' for Active; 'I' for Inactive)
REMARK    1  A    between atoms: N_3  and  C_13
REMARK    2  A    between atoms: N_4  and  C_20
REMARK    3  A    between atoms: C_6  and  C_10
REMARK    4  A    between atoms: C_7  and  C_13
REMARK    5  A    between atoms: C_9  and  C_14
REMARK    6  A    between atoms: C_10  and  C_15
REMARK    7  A    between atoms: C_10  and  C_16
REMARK    8  A    between atoms: C_11  and  C_17
REMARK    9  A    between atoms: C_14  and  C_18
REMARK   10  A    between atoms: C_19  and  C_21
REMARK   11  A    between atoms: C_20  and  C_22
REMARK   12  A    between atoms: C_32  and  C_33
REMARK                            x       y       z     vdW  Elec       q    Type
REMARK                         _______ _______ _______ _____ _____    ______ ____
ROOT
ATOM      6  C   UNL     1      -2.583   2.613  23.482  0.00  0.00    +0.000 C 
ATOM      7  C   UNL     1      -1.060   2.341  23.404  0.00  0.00    +0.032 C 
ATOM      8  C   UNL     1      -2.854   4.124  23.550  0.00  0.00    +0.012 C 
ATOM      9  C   UNL     1      -2.179   4.783  24.768  0.00  0.00    +0.023 C 
ATOM     11  C   UNL     1      -0.734   4.347  24.914  0.00  0.00    -0.073 C 
ATOM     12  C   UNL     1      -0.249   3.262  24.286  0.00  0.00    -0.022 C 
ATOM     17  C   UNL     1       0.153   5.216  25.763  0.00  0.00    +0.039 C 
ENDROOT
BRANCH   6  10
ATOM     10  C   UNL     1      -3.330   2.006  22.290  0.00  0.00    -0.013 C 
ATOM     15  C   UNL     1      -2.342   1.479  21.254  0.00  0.00    +0.007 C 
ATOM     16  C   UNL     1      -4.266   3.038  21.668  0.00  0.00    +0.007 C 
ENDBRANCH   6  10
BRANCH   7  13
ATOM     13  C   UNL     1      -0.740   0.883  23.756  0.00  0.00    +0.112 C 
BRANCH  13   3
ATOM      2  O   UNL     1       0.972  -0.336  21.801  0.00  0.00    -0.270 OA
ATOM      3  N   UNL     1       0.670   0.685  23.863  0.00  0.00    -0.311 N 
ATOM     19  C   UNL     1       1.430   0.081  22.861  0.00  0.00    +0.244 C 
ATOM     34  H   UNL     1       1.117   0.999  24.718  0.00  0.00    +0.149 HD
BRANCH  19  21
ATOM     21  C   UNL     1       2.882  -0.074  23.136  0.00  0.00    +0.037 A 
ATOM     23  C   UNL     1       3.373  -1.282  23.631  0.00  0.00    +0.013 A 
ATOM     24  C   UNL     1       3.753   0.989  22.901  0.00  0.00    +0.013 A 
ATOM     27  C   UNL     1       4.737  -1.427  23.890  0.00  0.00    +0.001 A 
ATOM     28  C   UNL     1       5.116   0.844  23.158  0.00  0.00    +0.001 A 
ATOM     29  C   UNL     1       5.608  -0.364  23.653  0.00  0.00    +0.000 A 
ENDBRANCH  19  21
ENDBRANCH  13   3
ENDBRANCH   7  13
BRANCH   9  14
ATOM     14  C   UNL     1      -2.966   4.507  26.053  0.00  0.00    +0.103 C 
BRANCH  14  18
ATOM      1  O   UNL     1      -5.285   4.130  25.470  0.00  0.00    -0.276 OA
ATOM      4  N   UNL     1      -3.923   2.317  25.978  0.00  0.00    -0.311 N 
ATOM     18  C   UNL     1      -4.196   3.664  25.796  0.00  0.00    +0.214 C 
ATOM     35  H   UNL     1      -2.986   2.027  26.246  0.00  0.00    +0.149 HD
BRANCH   4  20
ATOM     20  C   UNL     1      -4.913   1.280  25.803  0.00  0.00    +0.139 C 
BRANCH  20  22
ATOM     22  C   UNL     1      -4.315   0.020  25.248  0.00  0.00    -0.030 A 
ATOM     25  C   UNL     1      -3.235  -0.582  25.895  0.00  0.00    +0.006 A 
ATOM     26  C   UNL     1      -4.838  -0.550  24.088  0.00  0.00    +0.006 A 
ATOM     30  C   UNL     1      -2.679  -1.753  25.380  0.00  0.00    +0.019 A 
ATOM     31  C   UNL     1      -4.282  -1.720  23.573  0.00  0.00    +0.019 A 
ATOM     32  C   UNL     1      -3.203  -2.322  24.219  0.00  0.00    +0.052 A 
BRANCH  32  33
ATOM      5  N   UNL     1      -2.170  -4.496  23.264  0.00  0.00    -0.191 NA
ATOM     33  C   UNL     1      -2.632  -3.523  23.692  0.00  0.00    +0.099 C 
ENDBRANCH  32  33
ENDBRANCH  20  22
ENDBRANCH   4  20
ENDBRANCH  14  18
ENDBRANCH   9  14
TORSDOF 9
ENDMDL
MODEL 4
REMARK VINA RESULT:       0.4      2.056      5.431
REMARK  Name = 38029393
REMARK  12 active torsions:
REMARK  status: ('A' for Active; 'I' for Inactive)
REMARK    1  A    between atoms: N_3  and  C_13
REMARK    2  A    between atoms: N_4  and  C_20
REMARK    3  A    between atoms: C_6  and  C_10
REMARK    4  A    between atoms: C_7  and  C_13
REMARK    5  A    between atoms: C_9  and  C_14
REMARK    6  A    between atoms: C_10  and  C_15
REMARK    7  A    between atoms: C_10  and  C_16
REMARK    8  A    between atoms: C_11  and  C_17
REMARK    9  A    between atoms: C_14  and  C_18
REMARK   10  A    between atoms: C_19  and  C_21
REMARK   11  A    between atoms: C_20  and  C_22
REMARK   12  A    between atoms: C_32  and  C_33
REMARK                            x       y       z     vdW  Elec       q    Type
REMARK                         _______ _______ _______ _____ _____    ______ ____
ROOT
ATOM      6  C   UNL     1      -2.586   1.883  24.571  0.00  0.00    +0.000 C 
ATOM      7  C   UNL     1      -1.891   2.035  23.195  0.00  0.00    +0.032 C 
ATOM      8  C   UNL     1      -2.838   3.262  25.199  0.00  0.00    +0.012 C 
ATOM      9  C   UNL     1      -1.535   4.060  25.396  0.00  0.00    +0.023 C 
ATOM     11  C   UNL     1      -0.663   4.030  24.157  0.00  0.00    -0.073 C 
ATOM     12  C   UNL     1      -0.846   3.127  23.177  0.00  0.00    -0.022 C 
ATOM     17  C   UNL     1       0.395   5.092  24.047  0.00  0.00    +0.039 C 
ENDROOT
BRANCH   6  10
ATOM     10  C   UNL     1      -3.907   1.116  24.459  0.00  0.00    -0.013 C 
ATOM     15  C   UNL     1      -3.990   0.391  23.119  0.00  0.00    +0.007 C 
ATOM     16  C   UNL     1      -5.089   2.064  24.635  0.00  0.00    +0.007 C 
ENDBRANCH   6  10
BRANCH   7  13
ATOM     13  C   UNL     1      -1.256   0.713  22.747  0.00  0.00    +0.112 C 
BRANCH  13   3
ATOM      2  O   UNL     1       0.796  -0.709  21.330  0.00  0.00    -0.270 OA
ATOM      3  N   UNL     1       0.136   0.686  23.063  0.00  0.00    -0.311 N 
ATOM     19  C   UNL     1       1.070  -0.034  22.319  0.00  0.00    +0.244 C 
ATOM     34  H   UNL     1       0.436   1.216  23.875  0.00  0.00    +0.149 HD
BRANCH  19  21
ATOM     21  C   UNL     1       2.477   0.020  22.793  0.00  0.00    +0.037 A 
ATOM     23  C   UNL     1       3.224   1.186  22.631  0.00  0.00    +0.013 A 
ATOM     24  C   UNL     1       3.051  -1.098  23.398  0.00  0.00    +0.013 A 
ATOM     27  C   UNL     1       4.546   1.236  23.076  0.00  0.00    +0.001 A 
ATOM     28  C   UNL     1       4.373  -1.048  23.844  0.00  0.00    +0.001 A 
ATOM     29  C   UNL     1       5.120   0.119  23.683  0.00  0.00    +0.000 A 
ENDBRANCH  19  21
ENDBRANCH  13   3
ENDBRANCH   7  13
BRANCH   9  14
ATOM     14  C   UNL     1      -0.761   3.560  26.621  0.00  0.00    +0.103 C 
BRANCH  14  18
ATOM      1  O   UNL     1       0.914   2.080  25.695  0.00  0.00    -0.276 OA
ATOM      4  N   UNL     1      -0.796   1.199  26.999  0.00  0.00    -0.311 N 
ATOM     18  C   UNL     1      -0.102   2.223  26.370  0.00  0.00    +0.214 C 
ATOM     35  H   UNL     1      -1.628   1.417  27.541  0.00  0.00    +0.149 HD
BRANCH   4  20
ATOM     20  C   UNL     1      -0.395  -0.186  26.929  0.00  0.00    +0.139 C 
BRANCH  20  22
ATOM     22  C   UNL     1      -1.351  -1.008  26.114  0.00  0.00    -0.030 A 
ATOM     25  C   UNL     1      -2.699  -1.063  26.467  0.00  0.00    +0.006 A 
ATOM     26  C   UNL     1      -0.891  -1.715  25.003  0.00  0.00    +0.006 A 
ATOM     30  C   UNL     1      -3.587  -1.827  25.710  0.00  0.00    +0.019 A 
ATOM     31  C   UNL     1      -1.780  -2.478  24.246  0.00  0.00    +0.019 A 
ATOM     32  C   UNL     1      -3.128  -2.534  24.599  0.00  0.00    +0.052 A 
BRANCH  32  33
ATOM      5  N   UNL     1      -4.777  -3.952  23.193  0.00  0.00    -0.191 NA
ATOM     33  C   UNL     1      -4.038  -3.316  23.823  0.00  0.00    +0.099 C 
ENDBRANCH  32  33
ENDBRANCH  20  22
ENDBRANCH   4  20
ENDBRANCH  14  18
ENDBRANCH   9  14
TORSDOF 9
ENDMDL
MODEL 5
REMARK VINA RESULT:       0.5      1.582      4.833
REMARK  Name = 38029393
REMARK  12 active torsions:
REMARK  status: ('A' for Active; 'I' for Inactive)
REMARK    1  A    between atoms: N_3  and  C_13
REMARK    2  A    between atoms: N_4  and  C_20
REMARK    3  A    between atoms: C_6  and  C_10
REMARK    4  A    between atoms: C_7  and  C_13
REMARK    5  A    between atoms: C_9  and  C_14
REMARK    6  A    between atoms: C_10  and  C_15
REMARK    7  A    between atoms: C_10  and  C_16
REMARK    8  A    between atoms: C_11  and  C_17
REMARK    9  A    between atoms: C_14  and  C_18
REMARK   10  A    between atoms: C_19  and  C_21
REMARK   11  A    between atoms: C_20  and  C_22
REMARK   12  A    between atoms: C_32  and  C_33
REMARK                            x       y       z     vdW  Elec       q    Type
REMARK                         _______ _______ _______ _____ _____    ______ ____
ROOT
ATOM      6  C   UNL     1      -2.886   2.798  23.488  0.00  0.00    +0.000 C 
ATOM      7  C   UNL     1      -1.597   2.626  24.329  0.00  0.00    +0.032 C 
ATOM      8  C   UNL     1      -3.555   4.145  23.802  0.00  0.00    +0.012 C 
ATOM      9  C   UNL     1      -3.923   4.280  25.292  0.00  0.00    +0.023 C 
ATOM     11  C   UNL     1      -2.777   3.866  26.194  0.00  0.00    -0.073 C 
ATOM     12  C   UNL     1      -1.740   3.140  25.743  0.00  0.00    -0.022 C 
ATOM     17  C   UNL     1      -2.829   4.348  27.618  0.00  0.00    +0.039 C 
ENDROOT
BRANCH   6  10
ATOM     10  C   UNL     1      -2.603   2.698  21.986  0.00  0.00    -0.013 C 
ATOM     15  C   UNL     1      -3.699   3.399  21.190  0.00  0.00    +0.007 C 
ATOM     16  C   UNL     1      -2.479   1.237  21.565  0.00  0.00    +0.007 C 
ENDBRANCH   6  10
BRANCH   7  13
ATOM     13  C   UNL     1      -1.148   1.161  24.360  0.00  0.00    +0.112 C 
BRANCH  13   3
ATOM      2  O   UNL     1       0.228  -0.627  22.586  0.00  0.00    -0.270 OA
ATOM      3  N   UNL     1       0.265   1.059  24.180  0.00  0.00    -0.311 N 
ATOM     19  C   UNL     1       0.854   0.158  23.292  0.00  0.00    +0.244 C 
ATOM     34  H   UNL     1       0.847   1.673  24.738  0.00  0.00    +0.149 HD
BRANCH  19  21
ATOM     21  C   UNL     1       2.339   0.158  23.239  0.00  0.00    +0.037 A 
ATOM     23  C   UNL     1       3.022   1.290  22.797  0.00  0.00    +0.013 A 
ATOM     24  C   UNL     1       3.049  -0.977  23.630  0.00  0.00    +0.013 A 
ATOM     27  C   UNL     1       4.416   1.289  22.747  0.00  0.00    +0.001 A 
ATOM     28  C   UNL     1       4.443  -0.979  23.580  0.00  0.00    +0.001 A 
ATOM     29  C   UNL     1       5.127   0.154  23.139  0.00  0.00    +0.000 A 
ENDBRANCH  19  21
ENDBRANCH  13   3
ENDBRANCH   7  13
BRANCH   9  14
ATOM     14  C   UNL     1      -5.193   3.488  25.622  0.00  0.00    +0.103 C 
BRANCH  14  18
ATOM      1  O   UNL     1      -5.574   2.197  23.610  0.00  0.00    -0.276 OA
ATOM      4  N   UNL     1      -5.041   1.102  25.590  0.00  0.00    -0.311 N 
ATOM     18  C   UNL     1      -5.297   2.218  24.807  0.00  0.00    +0.214 C 
ATOM     35  H   UNL     1      -4.816   1.220  26.574  0.00  0.00    +0.149 HD
BRANCH   4  20
ATOM     20  C   UNL     1      -5.073  -0.247  25.075  0.00  0.00    +0.139 C 
BRANCH  20  22
ATOM     22  C   UNL     1      -3.729  -0.913  25.161  0.00  0.00    -0.030 A 
ATOM     25  C   UNL     1      -2.835  -0.551  26.169  0.00  0.00    +0.006 A 
ATOM     26  C   UNL     1      -3.376  -1.894  24.234  0.00  0.00    +0.006 A 
ATOM     30  C   UNL     1      -1.587  -1.169  26.248  0.00  0.00    +0.019 A 
ATOM     31  C   UNL     1      -2.129  -2.512  24.315  0.00  0.00    +0.019 A 
ATOM     32  C   UNL     1      -1.234  -2.149  25.322  0.00  0.00    +0.052 A 
BRANCH  32  33
ATOM      5  N   UNL     1       1.083  -3.297  25.470  0.00  0.00    -0.191 NA
ATOM     33  C   UNL     1       0.045  -2.783  25.404  0.00  0.00    +0.099 C 
ENDBRANCH  32  33
ENDBRANCH  20  22
ENDBRANCH   4  20
ENDBRANCH  14  18
ENDBRANCH   9  14
TORSDOF 9
ENDMDL
MODEL 6
REMARK VINA RESULT:       0.8      1.915      3.540
REMARK  Name = 38029393
REMARK  12 active torsions:
REMARK  status: ('A' for Active; 'I' for Inactive)
REMARK    1  A    between atoms: N_3  and  C_13
REMARK    2  A    between atoms: N_4  and  C_20
REMARK    3  A    between atoms: C_6  and  C_10
REMARK    4  A    between atoms: C_7  and  C_13
REMARK    5  A    between atoms: C_9  and  C_14
REMARK    6  A    between atoms: C_10  and  C_15
REMARK    7  A    between atoms: C_10  and  C_16
REMARK    8  A    between atoms: C_11  and  C_17
REMARK    9  A    between atoms: C_14  and  C_18
REMARK   10  A    between atoms: C_19  and  C_21
REMARK   11  A    between atoms: C_20  and  C_22
REMARK   12  A    between atoms: C_32  and  C_33
REMARK                            x       y       z     vdW  Elec       q    Type
REMARK                         _______ _______ _______ _____ _____    ______ ____
ROOT
ATOM      6  C   UNL     1      -3.957  -0.359  25.307  0.00  0.00    +0.000 C 
ATOM      7  C   UNL     1      -2.709   0.173  24.560  0.00  0.00    +0.032 C 
ATOM      8  C   UNL     1      -5.233  -0.041  24.515  0.00  0.00    +0.012 C 
ATOM      9  C   UNL     1      -5.413   1.472  24.283  0.00  0.00    +0.023 C 
ATOM     11  C   UNL     1      -4.134   2.123  23.796  0.00  0.00    -0.073 C 
ATOM     12  C   UNL     1      -2.936   1.522  23.915  0.00  0.00    -0.022 C 
ATOM     17  C   UNL     1      -4.268   3.462  23.125  0.00  0.00    +0.039 C 
ENDROOT
BRANCH   6  10
ATOM     10  C   UNL     1      -3.867  -1.868  25.560  0.00  0.00    -0.013 C 
ATOM     15  C   UNL     1      -2.804  -2.169  26.613  0.00  0.00    +0.007 C 
ATOM     16  C   UNL     1      -3.565  -2.607  24.261  0.00  0.00    +0.007 C 
ENDBRANCH   6  10
BRANCH   7  13
ATOM     13  C   UNL     1      -1.496   0.252  25.494  0.00  0.00    +0.112 C 
BRANCH  13   3
ATOM      2  O   UNL     1      -0.398  -1.384  23.406  0.00  0.00    -0.270 OA
ATOM      3  N   UNL     1      -0.301   0.503  24.753  0.00  0.00    -0.311 N 
ATOM     19  C   UNL     1       0.164  -0.348  23.750  0.00  0.00    +0.244 C 
ATOM     34  H   UNL     1       0.221   1.340  24.989  0.00  0.00    +0.149 HD
BRANCH  19  21
ATOM     21  C   UNL     1       1.437   0.041  23.090  0.00  0.00    +0.037 A 
ATOM     23  C   UNL     1       1.782  -0.511  21.857  0.00  0.00    +0.013 A 
ATOM     24  C   UNL     1       2.288   0.958  23.706  0.00  0.00    +0.013 A 
ATOM     27  C   UNL     1       2.978  -0.146  21.238  0.00  0.00    +0.001 A 
ATOM     28  C   UNL     1       3.484   1.324  23.087  0.00  0.00    +0.001 A 
ATOM     29  C   UNL     1       3.829   0.772  21.853  0.00  0.00    +0.000 A 
ENDBRANCH  19  21
ENDBRANCH  13   3
ENDBRANCH   7  13
BRANCH   9  14
ATOM     14  C   UNL     1      -5.934   2.167  25.546  0.00  0.00    +0.103 C 
BRANCH  14  18
ATOM      1  O   UNL     1      -5.515   4.545  25.699  0.00  0.00    -0.276 OA
ATOM      4  N   UNL     1      -3.903   3.048  26.447  0.00  0.00    -0.311 N 
ATOM     18  C   UNL     1      -5.125   3.396  25.892  0.00  0.00    +0.214 C 
ATOM     35  H   UNL     1      -3.670   2.067  26.571  0.00  0.00    +0.149 HD
BRANCH   4  20
ATOM     20  C   UNL     1      -2.923   4.021  26.873  0.00  0.00    +0.139 C 
BRANCH  20  22
ATOM     22  C   UNL     1      -1.988   4.400  25.761  0.00  0.00    -0.030 A 
ATOM     25  C   UNL     1      -2.118   5.638  25.132  0.00  0.00    +0.006 A 
ATOM     26  C   UNL     1      -0.989   3.514  25.358  0.00  0.00    +0.006 A 
ATOM     30  C   UNL     1      -1.250   5.990  24.098  0.00  0.00    +0.019 A 
ATOM     31  C   UNL     1      -0.120   3.867  24.325  0.00  0.00    +0.019 A 
ATOM     32  C   UNL     1      -0.250   5.104  23.695  0.00  0.00    +0.052 A 
BRANCH  32  33
ATOM      5  N   UNL     1       1.362   5.760  21.778  0.00  0.00    -0.191 NA
ATOM     33  C   UNL     1       0.640   5.466  22.637  0.00  0.00    +0.099 C 
ENDBRANCH  32  33
ENDBRANCH  20  22
ENDBRANCH   4  20
ENDBRANCH  14  18
ENDBRANCH   9  14
TORSDOF 9
ENDMDL
MODEL 7
REMARK VINA RESULT:       1.0      2.181      6.084
REMARK  Name = 38029393
REMARK  12 active torsions:
REMARK  status: ('A' for Active; 'I' for Inactive)
REMARK    1  A    between atoms: N_3  and  C_13
REMARK    2  A    between atoms: N_4  and  C_20
REMARK    3  A    between atoms: C_6  and  C_10
REMARK    4  A    between atoms: C_7  and  C_13
REMARK    5  A    between atoms: C_9  and  C_14
REMARK    6  A    between atoms: C_10  and  C_15
REMARK    7  A    between atoms: C_10  and  C_16
REMARK    8  A    between atoms: C_11  and  C_17
REMARK    9  A    between atoms: C_14  and  C_18
REMARK   10  A    between atoms: C_19  and  C_21
REMARK   11  A    between atoms: C_20  and  C_22
REMARK   12  A    between atoms: C_32  and  C_33
REMARK                            x       y       z     vdW  Elec       q    Type
REMARK                         _______ _______ _______ _____ _____    ______ ____
ROOT
ATOM      6  C   UNL     1      -1.606   4.066  24.722  0.00  0.00    +0.000 C 
ATOM      7  C   UNL     1      -1.944   3.562  26.147  0.00  0.00    +0.032 C 
ATOM      8  C   UNL     1      -2.712   4.998  24.206  0.00  0.00    +0.012 C 
ATOM      9  C   UNL     1      -4.087   4.303  24.164  0.00  0.00    +0.023 C 
ATOM     11  C   UNL     1      -4.378   3.553  25.448  0.00  0.00    -0.073 C 
ATOM     12  C   UNL     1      -3.410   3.243  26.329  0.00  0.00    -0.022 C 
ATOM     17  C   UNL     1      -5.816   3.208  25.720  0.00  0.00    +0.039 C 
ENDROOT
BRANCH   6  10
ATOM     10  C   UNL     1      -0.257   4.791  24.681  0.00  0.00    -0.013 C 
ATOM     15  C   UNL     1      -0.423   6.248  25.101  0.00  0.00    +0.007 C 
ATOM     16  C   UNL     1       0.355   4.696  23.287  0.00  0.00    +0.007 C 
ENDBRANCH   6  10
BRANCH   7  13
ATOM     13  C   UNL     1      -1.104   2.333  26.514  0.00  0.00    +0.112 C 
BRANCH  13   3
ATOM      2  O   UNL     1      -0.614  -0.381  27.309  0.00  0.00    -0.270 OA
ATOM      3  N   UNL     1      -1.634   1.156  25.901  0.00  0.00    -0.311 N 
ATOM     19  C   UNL     1      -1.344  -0.131  26.353  0.00  0.00    +0.244 C 
ATOM     34  H   UNL     1      -2.240   1.286  25.099  0.00  0.00    +0.149 HD
BRANCH  19  21
ATOM     21  C   UNL     1      -1.953  -1.252  25.592  0.00  0.00    +0.037 A 
ATOM     23  C   UNL     1      -1.140  -2.161  24.917  0.00  0.00    +0.013 A 
ATOM     24  C   UNL     1      -3.340  -1.393  25.553  0.00  0.00    +0.013 A 
ATOM     27  C   UNL     1      -1.713  -3.213  24.201  0.00  0.00    +0.001 A 
ATOM     28  C   UNL     1      -3.914  -2.446  24.838  0.00  0.00    +0.001 A 
ATOM     29  C   UNL     1      -3.100  -3.356  24.162  0.00  0.00    +0.000 A 
ENDBRANCH  19  21
ENDBRANCH  13   3
ENDBRANCH   7  13
BRANCH   9  14
ATOM     14  C   UNL     1      -4.200   3.374  22.950  0.00  0.00    +0.103 C 
BRANCH  14  18
ATOM      1  O   UNL     1      -4.404   1.230  24.053  0.00  0.00    -0.276 OA
ATOM      4  N   UNL     1      -2.632   1.604  22.596  0.00  0.00    -0.311 N 
ATOM     18  C   UNL     1      -3.786   1.957  23.279  0.00  0.00    +0.214 C 
ATOM     35  H   UNL     1      -2.193   2.275  21.972  0.00  0.00    +0.149 HD
BRANCH   4  20
ATOM     20  C   UNL     1      -2.008   0.307  22.719  0.00  0.00    +0.139 C 
BRANCH  20  22
ATOM     22  C   UNL     1      -0.511   0.408  22.782  0.00  0.00    -0.030 A 
ATOM     25  C   UNL     1       0.090   1.316  23.654  0.00  0.00    +0.006 A 
ATOM     26  C   UNL     1       0.278  -0.406  21.970  0.00  0.00    +0.006 A 
ATOM     30  C   UNL     1       1.481   1.410  23.712  0.00  0.00    +0.019 A 
ATOM     31  C   UNL     1       1.668  -0.312  22.028  0.00  0.00    +0.019 A 
ATOM     32  C   UNL     1       2.269   0.596  22.899  0.00  0.00    +0.052 A 
BRANCH  32  33
ATOM      5  N   UNL     1       4.851   0.772  23.009  0.00  0.00    -0.191 NA
ATOM     33  C   UNL     1       3.695   0.693  22.960  0.00  0.00    +0.099 C 
ENDBRANCH  32  33
ENDBRANCH  20  22
ENDBRANCH   4  20
ENDBRANCH  14  18
ENDBRANCH   9  14
TORSDOF 9
ENDMDL
