MODEL 1
REMARK VINA RESULT:      -4.8      0.000      0.000
REMARK  Name = 75536107
REMARK  9 active torsions:
REMARK  status: ('A' for Active; 'I' for Inactive)
REMARK    1  A    between atoms: O_1  and  C_9
REMARK    2  A    between atoms: O_2  and  C_11
REMARK    3  A    between atoms: O_3  and  C_19
REMARK    4  A    between atoms: O_3  and  C_27
REMARK    5  A    between atoms: N_4  and  C_7
REMARK    6  A    between atoms: N_4  and  C_13
REMARK    7  A    between atoms: N_5  and  C_22
REMARK    8  A    between atoms: C_8  and  C_12
REMARK    9  A    between atoms: C_13  and  C_16
REMARK                            x       y       z     vdW  Elec       q    Type
REMARK                         _______ _______ _______ _____ _____    ______ ____
ROOT
ATOM      7  C   UNL     1      -7.453 -10.485  10.973  0.00  0.00    +0.093 C 
ATOM      8  C   UNL     1      -6.627  -9.172  11.128  0.00  0.00    +0.041 C 
ATOM      9  C   UNL     1      -8.320 -10.268   9.722  0.00  0.00    +0.160 C 
ATOM     10  C   UNL     1      -7.070  -8.255   9.971  0.00  0.00    +0.043 C 
ATOM     11  C   UNL     1      -8.469  -8.752   9.636  0.00  0.00    +0.145 C 
ENDROOT
BRANCH   8  12
ATOM     12  C   UNL     1      -5.129  -9.386  11.179  0.00  0.00    -0.042 A 
ATOM     14  C   UNL     1      -4.583 -10.261  12.119  0.00  0.00    +0.007 A 
ATOM     15  C   UNL     1      -4.296  -8.710  10.288  0.00  0.00    +0.007 A 
ATOM     17  C   UNL     1      -3.203 -10.459  12.167  0.00  0.00    +0.046 A 
ATOM     18  C   UNL     1      -2.916  -8.908  10.337  0.00  0.00    +0.046 A 
ATOM     19  C   UNL     1      -2.369  -9.783  11.276  0.00  0.00    +0.120 A 
BRANCH  19   3
ATOM      3  O   UNL     1      -1.024  -9.976  11.323  0.00  0.00    -0.495 OA
ATOM     27  C   UNL     1      -0.197  -8.871  10.959  0.00  0.00    +0.277 C 
ENDBRANCH  19   3
ENDBRANCH   8  12
BRANCH   9   1
ATOM      1  O   UNL     1      -7.611 -10.771   8.591  0.00  0.00    -0.388 OA
ATOM     29  H   UNL     1      -6.694 -10.936   8.871  0.00  0.00    +0.210 HD
ENDBRANCH   9   1
BRANCH  11   2
ATOM      2  O   UNL     1      -8.878  -8.317   8.355  0.00  0.00    -0.389 OA
ATOM     30  H   UNL     1      -8.850  -9.088   7.762  0.00  0.00    +0.210 HD
ENDBRANCH  11   2
BRANCH   7   4
ATOM      4  N   UNL     1      -8.310 -10.669  12.146  0.00  0.00    -0.304 NA
ATOM     28  H   UNL     1      -7.975 -11.465  12.688  0.00  0.00    +0.123 HD
BRANCH   4  13
ATOM     13  C   UNL     1      -8.288  -9.486  12.996  0.00  0.00    +0.156 C 
BRANCH  13  16
ATOM      5  N   UNL     1      -8.411  -9.660  15.502  0.00  0.00    -0.330 N 
ATOM      6  N   UNL     1      -6.455 -10.162  14.575  0.00  0.00    -0.231 NA
ATOM     16  C   UNL     1      -7.690  -9.777  14.346  0.00  0.00    +0.124 A 
ATOM     20  C   UNL     1      -7.587  -9.991  16.546  0.00  0.00    +0.069 A 
ATOM     21  C   UNL     1      -6.371 -10.302  15.942  0.00  0.00    +0.089 A 
ATOM     22  C   UNL     1      -9.795  -9.257  15.609  0.00  0.00    +0.150 C 
ATOM     23  C   UNL     1      -7.793 -10.046  17.924  0.00  0.00    +0.028 A 
ATOM     24  C   UNL     1      -5.286 -10.691  16.745  0.00  0.00    +0.030 A 
ATOM     25  C   UNL     1      -6.703 -10.435  18.709  0.00  0.00    +0.002 A 
ATOM     26  C   UNL     1      -5.470 -10.753  18.132  0.00  0.00    +0.002 A 
ENDBRANCH  13  16
ENDBRANCH   4  13
ENDBRANCH   7   4
TORSDOF 7
ENDMDL
MODEL 2
REMARK VINA RESULT:      -1.5     15.163     17.640
REMARK  Name = 75536107
REMARK  9 active torsions:
REMARK  status: ('A' for Active; 'I' for Inactive)
REMARK    1  A    between atoms: O_1  and  C_9
REMARK    2  A    between atoms: O_2  and  C_11
REMARK    3  A    between atoms: O_3  and  C_19
REMARK    4  A    between atoms: O_3  and  C_27
REMARK    5  A    between atoms: N_4  and  C_7
REMARK    6  A    between atoms: N_4  and  C_13
REMARK    7  A    between atoms: N_5  and  C_22
REMARK    8  A    between atoms: C_8  and  C_12
REMARK    9  A    between atoms: C_13  and  C_16
REMARK                            x       y       z     vdW  Elec       q    Type
REMARK                         _______ _______ _______ _____ _____    ______ ____
ROOT
ATOM      7  C   UNL     1      -3.259   3.668  25.555  0.00  0.00    +0.093 C 
ATOM      8  C   UNL     1      -4.060   3.092  24.348  0.00  0.00    +0.041 C 
ATOM      9  C   UNL     1      -4.295   4.427  26.399  0.00  0.00    +0.160 C 
ATOM     10  C   UNL     1      -5.514   3.562  24.544  0.00  0.00    +0.043 C 
ATOM     11  C   UNL     1      -5.374   4.816  25.393  0.00  0.00    +0.145 C 
ENDROOT
BRANCH   8  12
ATOM     12  C   UNL     1      -3.934   1.592  24.181  0.00  0.00    -0.042 A 
ATOM     14  C   UNL     1      -4.442   0.738  25.160  0.00  0.00    +0.007 A 
ATOM     15  C   UNL     1      -3.310   1.065  23.050  0.00  0.00    +0.007 A 
ATOM     17  C   UNL     1      -4.327  -0.644  25.007  0.00  0.00    +0.046 A 
ATOM     18  C   UNL     1      -3.195  -0.317  22.898  0.00  0.00    +0.046 A 
ATOM     19  C   UNL     1      -3.703  -1.171  23.876  0.00  0.00    +0.120 A 
BRANCH  19   3
ATOM      3  O   UNL     1      -3.590  -2.519  23.728  0.00  0.00    -0.495 OA
ATOM     27  C   UNL     1      -3.518  -3.299  24.920  0.00  0.00    +0.277 C 
ENDBRANCH  19   3
ENDBRANCH   8  12
BRANCH   9   1
ATOM      1  O   UNL     1      -4.819   3.532  27.380  0.00  0.00    -0.388 OA
ATOM     29  H   UNL     1      -5.566   3.980  27.814  0.00  0.00    +0.210 HD
ENDBRANCH   9   1
BRANCH  11   2
ATOM      2  O   UNL     1      -6.597   5.160  26.013  0.00  0.00    -0.389 OA
ATOM     30  H   UNL     1      -6.888   6.008  25.635  0.00  0.00    +0.210 HD
ENDBRANCH  11   2
BRANCH   7   4
ATOM      4  N   UNL     1      -2.236   4.596  25.070  0.00  0.00    -0.304 NA
ATOM     28  H   UNL     1      -2.410   5.523  25.458  0.00  0.00    +0.123 HD
BRANCH   4  13
ATOM     13  C   UNL     1      -0.906   4.163  25.476  0.00  0.00    +0.156 C 
BRANCH  13  16
ATOM      5  N   UNL     1      -0.166   2.080  24.276  0.00  0.00    -0.330 N 
ATOM      6  N   UNL     1      -1.123   1.787  26.260  0.00  0.00    -0.231 NA
ATOM     16  C   UNL     1      -0.745   2.671  25.365  0.00  0.00    +0.124 A 
ATOM     20  C   UNL     1      -0.172   0.725  24.482  0.00  0.00    +0.069 A 
ATOM     21  C   UNL     1      -0.774   0.566  25.728  0.00  0.00    +0.089 A 
ATOM     22  C   UNL     1       0.357   2.760  23.112  0.00  0.00    +0.150 C 
ATOM     23  C   UNL     1       0.284  -0.344  23.710  0.00  0.00    +0.028 A 
ATOM     24  C   UNL     1      -0.939  -0.728  26.249  0.00  0.00    +0.030 A 
ATOM     25  C   UNL     1       0.112  -1.625  24.244  0.00  0.00    +0.002 A 
ATOM     26  C   UNL     1      -0.489  -1.816  25.492  0.00  0.00    +0.002 A 
ENDBRANCH  13  16
ENDBRANCH   4  13
ENDBRANCH   7   4
TORSDOF 7
ENDMDL
MODEL 3
REMARK VINA RESULT:      -1.0     14.832     16.991
REMARK  Name = 75536107
REMARK  9 active torsions:
REMARK  status: ('A' for Active; 'I' for Inactive)
REMARK    1  A    between atoms: O_1  and  C_9
REMARK    2  A    between atoms: O_2  and  C_11
REMARK    3  A    between atoms: O_3  and  C_19
REMARK    4  A    between atoms: O_3  and  C_27
REMARK    5  A    between atoms: N_4  and  C_7
REMARK    6  A    between atoms: N_4  and  C_13
REMARK    7  A    between atoms: N_5  and  C_22
REMARK    8  A    between atoms: C_8  and  C_12
REMARK    9  A    between atoms: C_13  and  C_16
REMARK                            x       y       z     vdW  Elec       q    Type
REMARK                         _______ _______ _______ _____ _____    ______ ____
ROOT
ATOM      7  C   UNL     1      -3.191  -0.561  24.624  0.00  0.00    +0.093 C 
ATOM      8  C   UNL     1      -2.077  -1.322  23.843  0.00  0.00    +0.041 C 
ATOM      9  C   UNL     1      -3.604  -1.509  25.761  0.00  0.00    +0.160 C 
ATOM     10  C   UNL     1      -1.914  -2.679  24.556  0.00  0.00    +0.043 C 
ATOM     11  C   UNL     1      -3.263  -2.896  25.225  0.00  0.00    +0.145 C 
ENDROOT
BRANCH   8  12
ATOM     12  C   UNL     1      -0.778  -0.556  23.714  0.00  0.00    -0.042 A 
ATOM     14  C   UNL     1       0.107  -0.855  22.678  0.00  0.00    +0.007 A 
ATOM     15  C   UNL     1      -0.466   0.449  24.630  0.00  0.00    +0.007 A 
ATOM     17  C   UNL     1       1.304  -0.149  22.559  0.00  0.00    +0.046 A 
ATOM     18  C   UNL     1       0.731   1.154  24.510  0.00  0.00    +0.046 A 
ATOM     19  C   UNL     1       1.616   0.855  23.474  0.00  0.00    +0.120 A 
BRANCH  19   3
ATOM      3  O   UNL     1       2.784   1.543  23.359  0.00  0.00    -0.495 OA
ATOM     27  C   UNL     1       3.860   0.887  22.687  0.00  0.00    +0.277 C 
ENDBRANCH  19   3
ENDBRANCH   8  12
BRANCH   9   1
ATOM      1  O   UNL     1      -2.814  -1.204  26.910  0.00  0.00    -0.388 OA
ATOM     29  H   UNL     1      -2.117  -1.880  26.973  0.00  0.00    +0.210 HD
ENDBRANCH   9   1
BRANCH  11   2
ATOM      2  O   UNL     1      -3.182  -3.870  26.247  0.00  0.00    -0.389 OA
ATOM     30  H   UNL     1      -2.997  -4.725  25.821  0.00  0.00    +0.210 HD
ENDBRANCH  11   2
BRANCH   7   4
ATOM      4  N   UNL     1      -4.333  -0.317  23.741  0.00  0.00    -0.304 NA
ATOM     28  H   UNL     1      -5.032  -1.046  23.882  0.00  0.00    +0.123 HD
BRANCH   4  13
ATOM     13  C   UNL     1      -4.945   0.974  24.026  0.00  0.00    +0.156 C 
BRANCH  13  16
ATOM      5  N   UNL     1      -4.060   3.069  25.102  0.00  0.00    -0.330 N 
ATOM      6  N   UNL     1      -2.792   2.164  23.517  0.00  0.00    -0.231 NA
ATOM     16  C   UNL     1      -3.913   2.057  24.193  0.00  0.00    +0.124 A 
ATOM     20  C   UNL     1      -2.961   3.882  25.005  0.00  0.00    +0.069 A 
ATOM     21  C   UNL     1      -2.183   3.297  24.009  0.00  0.00    +0.089 A 
ATOM     22  C   UNL     1      -5.175   3.252  26.004  0.00  0.00    +0.150 C 
ATOM     23  C   UNL     1      -2.591   5.044  25.683  0.00  0.00    +0.028 A 
ATOM     24  C   UNL     1      -0.961   3.892  23.656  0.00  0.00    +0.030 A 
ATOM     25  C   UNL     1      -1.371   5.623  25.318  0.00  0.00    +0.002 A 
ATOM     26  C   UNL     1      -0.569   5.059  24.323  0.00  0.00    +0.002 A 
ENDBRANCH  13  16
ENDBRANCH   4  13
ENDBRANCH   7   4
TORSDOF 7
ENDMDL
MODEL 4
REMARK VINA RESULT:      -1.0      1.332      2.216
REMARK  Name = 75536107
REMARK  9 active torsions:
REMARK  status: ('A' for Active; 'I' for Inactive)
REMARK    1  A    between atoms: O_1  and  C_9
REMARK    2  A    between atoms: O_2  and  C_11
REMARK    3  A    between atoms: O_3  and  C_19
REMARK    4  A    between atoms: O_3  and  C_27
REMARK    5  A    between atoms: N_4  and  C_7
REMARK    6  A    between atoms: N_4  and  C_13
REMARK    7  A    between atoms: N_5  and  C_22
REMARK    8  A    between atoms: C_8  and  C_12
REMARK    9  A    between atoms: C_13  and  C_16
REMARK                            x       y       z     vdW  Elec       q    Type
REMARK                         _______ _______ _______ _____ _____    ______ ____
ROOT
ATOM      7  C   UNL     1      -5.445 -10.466  10.764  0.00  0.00    +0.093 C 
ATOM      8  C   UNL     1      -4.831  -9.039  10.900  0.00  0.00    +0.041 C 
ATOM      9  C   UNL     1      -6.366 -10.391   9.536  0.00  0.00    +0.160 C 
ATOM     10  C   UNL     1      -5.441  -8.207   9.755  0.00  0.00    +0.043 C 
ATOM     11  C   UNL     1      -6.752  -8.918   9.454  0.00  0.00    +0.145 C 
ENDROOT
BRANCH   8  12
ATOM     12  C   UNL     1      -3.317  -9.015  10.914  0.00  0.00    -0.042 A 
ATOM     14  C   UNL     1      -2.625  -9.430  12.052  0.00  0.00    +0.007 A 
ATOM     15  C   UNL     1      -2.615  -8.579   9.790  0.00  0.00    +0.007 A 
ATOM     17  C   UNL     1      -1.231  -9.409  12.065  0.00  0.00    +0.046 A 
ATOM     18  C   UNL     1      -1.220  -8.558   9.805  0.00  0.00    +0.046 A 
ATOM     19  C   UNL     1      -0.528  -8.973  10.942  0.00  0.00    +0.120 A 
BRANCH  19   3
ATOM      3  O   UNL     1       0.832  -8.951  10.956  0.00  0.00    -0.495 OA
ATOM     27  C   UNL     1       1.457  -7.900  11.692  0.00  0.00    +0.277 C 
ENDBRANCH  19   3
ENDBRANCH   8  12
BRANCH   9   1
ATOM      1  O   UNL     1      -5.614 -10.781   8.386  0.00  0.00    -0.388 OA
ATOM     29  H   UNL     1      -6.141 -10.549   7.601  0.00  0.00    +0.210 HD
ENDBRANCH   9   1
BRANCH  11   2
ATOM      2  O   UNL     1      -7.256  -8.557   8.184  0.00  0.00    -0.389 OA
ATOM     30  H   UNL     1      -6.578  -8.016   7.743  0.00  0.00    +0.210 HD
ENDBRANCH  11   2
BRANCH   7   4
ATOM      4  N   UNL     1      -6.233 -10.778  11.958  0.00  0.00    -0.304 NA
ATOM     28  H   UNL     1      -5.658 -11.309  12.612  0.00  0.00    +0.123 HD
BRANCH   4  13
ATOM     13  C   UNL     1      -6.683  -9.559  12.616  0.00  0.00    +0.156 C 
BRANCH  13  16
ATOM      5  N   UNL     1      -6.123 -10.214  14.979  0.00  0.00    -0.330 N 
ATOM      6  N   UNL     1      -8.237  -9.655  14.588  0.00  0.00    -0.231 NA
ATOM     16  C   UNL     1      -7.044  -9.802  14.057  0.00  0.00    +0.124 A 
ATOM     20  C   UNL     1      -6.763 -10.343  16.184  0.00  0.00    +0.069 A 
ATOM     21  C   UNL     1      -8.082  -9.988  15.915  0.00  0.00    +0.089 A 
ATOM     22  C   UNL     1      -4.722 -10.473  14.731  0.00  0.00    +0.150 C 
ATOM     23  C   UNL     1      -6.316 -10.727  17.449  0.00  0.00    +0.028 A 
ATOM     24  C   UNL     1      -9.025 -10.011  16.956  0.00  0.00    +0.030 A 
ATOM     25  C   UNL     1      -7.268 -10.744  18.474  0.00  0.00    +0.002 A 
ATOM     26  C   UNL     1      -8.599 -10.393  18.234  0.00  0.00    +0.002 A 
ENDBRANCH  13  16
ENDBRANCH   4  13
ENDBRANCH   7   4
TORSDOF 7
ENDMDL
MODEL 5
REMARK VINA RESULT:      -0.8     14.258     17.078
REMARK  Name = 75536107
REMARK  9 active torsions:
REMARK  status: ('A' for Active; 'I' for Inactive)
REMARK    1  A    between atoms: O_1  and  C_9
REMARK    2  A    between atoms: O_2  and  C_11
REMARK    3  A    between atoms: O_3  and  C_19
REMARK    4  A    between atoms: O_3  and  C_27
REMARK    5  A    between atoms: N_4  and  C_7
REMARK    6  A    between atoms: N_4  and  C_13
REMARK    7  A    between atoms: N_5  and  C_22
REMARK    8  A    between atoms: C_8  and  C_12
REMARK    9  A    between atoms: C_13  and  C_16
REMARK                            x       y       z     vdW  Elec       q    Type
REMARK                         _______ _______ _______ _____ _____    ______ ____
ROOT
ATOM      7  C   UNL     1       0.605   0.860  23.580  0.00  0.00    +0.093 C 
ATOM      8  C   UNL     1       0.587  -0.322  24.596  0.00  0.00    +0.041 C 
ATOM      9  C   UNL     1       1.825   0.598  22.682  0.00  0.00    +0.160 C 
ATOM     10  C   UNL     1       1.806  -1.198  24.247  0.00  0.00    +0.043 C 
ATOM     11  C   UNL     1       2.758  -0.229  23.560  0.00  0.00    +0.145 C 
ENDROOT
BRANCH   8  12
ATOM     12  C   UNL     1      -0.715  -1.095  24.623  0.00  0.00    -0.042 A 
ATOM     14  C   UNL     1      -0.918  -2.149  23.732  0.00  0.00    +0.007 A 
ATOM     15  C   UNL     1      -1.712  -0.752  25.537  0.00  0.00    +0.007 A 
ATOM     17  C   UNL     1      -2.117  -2.861  23.756  0.00  0.00    +0.046 A 
ATOM     18  C   UNL     1      -2.911  -1.465  25.560  0.00  0.00    +0.046 A 
ATOM     19  C   UNL     1      -3.113  -2.519  24.670  0.00  0.00    +0.120 A 
BRANCH  19   3
ATOM      3  O   UNL     1      -4.283  -3.213  24.693  0.00  0.00    -0.495 OA
ATOM     27  C   UNL     1      -5.113  -3.124  23.535  0.00  0.00    +0.277 C 
ENDBRANCH  19   3
ENDBRANCH   8  12
BRANCH   9   1
ATOM      1  O   UNL     1       1.395  -0.157  21.550  0.00  0.00    -0.388 OA
ATOM     29  H   UNL     1       2.190  -0.406  21.046  0.00  0.00    +0.210 HD
ENDBRANCH   9   1
BRANCH  11   2
ATOM      2  O   UNL     1       3.742  -0.915  22.814  0.00  0.00    -0.389 OA
ATOM     30  H   UNL     1       3.967  -0.360  22.047  0.00  0.00    +0.210 HD
ENDBRANCH  11   2
BRANCH   7   4
ATOM      4  N   UNL     1       0.778   2.124  24.298  0.00  0.00    -0.304 NA
ATOM     28  H   UNL     1       1.746   2.434  24.209  0.00  0.00    +0.123 HD
BRANCH   4  13
ATOM     13  C   UNL     1      -0.093   3.156  23.752  0.00  0.00    +0.156 C 
BRANCH  13  16
ATOM      5  N   UNL     1      -2.238   3.851  24.865  0.00  0.00    -0.330 N 
ATOM      6  N   UNL     1      -2.257   1.883  23.834  0.00  0.00    -0.231 NA
ATOM     16  C   UNL     1      -1.531   2.936  24.136  0.00  0.00    +0.124 A 
ATOM     20  C   UNL     1      -3.503   3.357  25.046  0.00  0.00    +0.069 A 
ATOM     21  C   UNL     1      -3.491   2.127  24.393  0.00  0.00    +0.089 A 
ATOM     22  C   UNL     1      -1.742   5.116  25.361  0.00  0.00    +0.150 C 
ATOM     23  C   UNL     1      -4.625   3.863  25.705  0.00  0.00    +0.028 A 
ATOM     24  C   UNL     1      -4.657   1.343  24.385  0.00  0.00    +0.030 A 
ATOM     25  C   UNL     1      -5.776   3.070  25.687  0.00  0.00    +0.002 A 
ATOM     26  C   UNL     1      -5.795   1.831  25.040  0.00  0.00    +0.002 A 
ENDBRANCH  13  16
ENDBRANCH   4  13
ENDBRANCH   7   4
TORSDOF 7
ENDMDL
