MODEL 1
REMARK VINA RESULT:      -4.1      0.000      0.000
REMARK  Name = 28961481
REMARK  13 active torsions:
REMARK  status: ('A' for Active; 'I' for Inactive)
REMARK    1  A    between atoms: O_4  and  C_13
REMARK    2  A    between atoms: O_5  and  C_16
REMARK    3  A    between atoms: N_7  and  C_11
REMARK    4  A    between atoms: N_7  and  C_17
REMARK    5  A    between atoms: N_7  and  C_18
REMARK    6  A    between atoms: N_8  and  C_15
REMARK    7  A    between atoms: N_9  and  C_19
REMARK    8  A    between atoms: N_9  and  C_21
REMARK    9  A    between atoms: N_9  and  C_22
REMARK   10  A    between atoms: N_10  and  C_23
REMARK   11  A    between atoms: C_12  and  C_15
REMARK   12  A    between atoms: C_14  and  C_16
REMARK   13  A    between atoms: C_17  and  C_19
REMARK                            x       y       z     vdW  Elec       q    Type
REMARK                         _______ _______ _______ _____ _____    ______ ____
ROOT
ATOM      3  O   UNL     1      -3.012  -0.693  23.177  0.00  0.00    -0.365 OA
ATOM     11  C   UNL     1      -4.423   0.771  24.417  0.00  0.00    +0.118 C 
ATOM     12  C   UNL     1      -3.247   0.711  23.432  0.00  0.00    +0.155 C 
ATOM     13  C   UNL     1      -4.338  -0.567  25.134  0.00  0.00    +0.165 C 
ATOM     14  C   UNL     1      -3.910  -1.475  23.987  0.00  0.00    +0.174 C 
ENDROOT
BRANCH  13   4
ATOM      4  O   UNL     1      -3.343  -0.552  26.150  0.00  0.00    -0.388 OA
ATOM     29  H   UNL     1      -2.608  -0.001  25.835  0.00  0.00    +0.210 HD
ENDBRANCH  13   4
BRANCH  11   7
ATOM      7  N   UNL     1      -4.476   1.936  25.282  0.00  0.00    -0.296 NA
ATOM     18  C   UNL     1      -5.788   2.046  25.928  0.00  0.00    +0.105 C 
BRANCH   7  17
ATOM     17  C   UNL     1      -4.181   3.159  24.530  0.00  0.00    +0.100 C 
BRANCH  17  19
ATOM     19  C   UNL     1      -3.449   4.159  25.419  0.00  0.00    +0.099 C 
BRANCH  19   9
ATOM      9  N   UNL     1      -2.007   4.040  25.230  0.00  0.00    -0.307 NA
ATOM     21  C   UNL     1      -1.392   3.363  26.371  0.00  0.00    +0.104 C 
ATOM     22  C   UNL     1      -1.403   5.359  25.035  0.00  0.00    +0.104 C 
ENDBRANCH  19   9
ENDBRANCH  17  19
ENDBRANCH   7  17
ENDBRANCH  11   7
BRANCH  12  15
ATOM     15  C   UNL     1      -1.928   1.311  23.905  0.00  0.00    +0.139 C 
BRANCH  15   8
ATOM      6  O   UNL     1       0.826   1.666  24.607  0.00  0.00    -0.253 OA
ATOM      8  N   UNL     1      -0.813   0.569  23.399  0.00  0.00    -0.297 N 
ATOM     10  N   UNL     1       1.386  -0.073  23.133  0.00  0.00    -0.267 N 
ATOM     20  C   UNL     1       0.516   0.801  23.791  0.00  0.00    +0.304 C 
ATOM     30  H   UNL     1      -0.995  -0.172  22.728  0.00  0.00    +0.150 HD
ATOM     32  H   UNL     1       0.966  -0.734  22.483  0.00  0.00    +0.156 HD
BRANCH  10  23
ATOM      1  F   UNL     1       3.027   2.106  22.568  0.00  0.00    -0.203 F 
ATOM      2  F   UNL     1       6.898  -0.403  23.618  0.00  0.00    -0.205 F 
ATOM     23  C   UNL     1       2.793  -0.155  23.256  0.00  0.00    +0.070 A 
ATOM     24  C   UNL     1       3.586   0.954  22.965  0.00  0.00    +0.147 A 
ATOM     25  C   UNL     1       3.386  -1.348  23.669  0.00  0.00    +0.029 A 
ATOM     26  C   UNL     1       4.973   0.871  23.088  0.00  0.00    +0.078 A 
ATOM     27  C   UNL     1       4.772  -1.431  23.791  0.00  0.00    +0.040 A 
ATOM     28  C   UNL     1       5.567  -0.322  23.500  0.00  0.00    +0.126 A 
ENDBRANCH  10  23
ENDBRANCH  15   8
ENDBRANCH  12  15
BRANCH  14  16
ATOM     16  C   UNL     1      -3.221  -2.765  24.396  0.00  0.00    +0.190 C 
BRANCH  16   5
ATOM      5  O   UNL     1      -1.822  -2.538  24.456  0.00  0.00    -0.392 OA
ATOM     31  H   UNL     1      -1.600  -1.924  23.736  0.00  0.00    +0.210 HD
ENDBRANCH  16   5
ENDBRANCH  14  16
TORSDOF 10
ENDMDL
MODEL 2
REMARK VINA RESULT:      -4.0      1.827      3.897
REMARK  Name = 28961481
REMARK  13 active torsions:
REMARK  status: ('A' for Active; 'I' for Inactive)
REMARK    1  A    between atoms: O_4  and  C_13
REMARK    2  A    between atoms: O_5  and  C_16
REMARK    3  A    between atoms: N_7  and  C_11
REMARK    4  A    between atoms: N_7  and  C_17
REMARK    5  A    between atoms: N_7  and  C_18
REMARK    6  A    between atoms: N_8  and  C_15
REMARK    7  A    between atoms: N_9  and  C_19
REMARK    8  A    between atoms: N_9  and  C_21
REMARK    9  A    between atoms: N_9  and  C_22
REMARK   10  A    between atoms: N_10  and  C_23
REMARK   11  A    between atoms: C_12  and  C_15
REMARK   12  A    between atoms: C_14  and  C_16
REMARK   13  A    between atoms: C_17  and  C_19
REMARK                            x       y       z     vdW  Elec       q    Type
REMARK                         _______ _______ _______ _____ _____    ______ ____
ROOT
ATOM      3  O   UNL     1      -1.222   3.075  25.152  0.00  0.00    -0.365 OA
ATOM     11  C   UNL     1      -3.329   1.995  25.401  0.00  0.00    +0.118 C 
ATOM     12  C   UNL     1      -1.907   1.839  24.847  0.00  0.00    +0.155 C 
ATOM     13  C   UNL     1      -3.539   3.501  25.388  0.00  0.00    +0.165 C 
ATOM     14  C   UNL     1      -2.148   3.982  25.781  0.00  0.00    +0.174 C 
ENDROOT
BRANCH  13   4
ATOM      4  O   UNL     1      -3.876   3.969  24.088  0.00  0.00    -0.388 OA
ATOM     29  H   UNL     1      -3.565   3.308  23.447  0.00  0.00    +0.210 HD
ENDBRANCH  13   4
BRANCH  11   7
ATOM      7  N   UNL     1      -4.364   1.219  24.741  0.00  0.00    -0.296 NA
ATOM     18  C   UNL     1      -5.694   1.755  25.049  0.00  0.00    +0.105 C 
BRANCH   7  17
ATOM     17  C   UNL     1      -4.288  -0.191  25.131  0.00  0.00    +0.100 C 
BRANCH  17  19
ATOM     19  C   UNL     1      -3.935  -1.053  23.922  0.00  0.00    +0.099 C 
BRANCH  19   9
ATOM      9  N   UNL     1      -2.911  -2.028  24.280  0.00  0.00    -0.307 NA
ATOM     21  C   UNL     1      -3.523  -3.302  24.659  0.00  0.00    +0.104 C 
ATOM     22  C   UNL     1      -2.076  -1.520  25.370  0.00  0.00    +0.104 C 
ENDBRANCH  19   9
ENDBRANCH  17  19
ENDBRANCH   7  17
ENDBRANCH  11   7
BRANCH  12  15
ATOM     15  C   UNL     1      -1.779   1.608  23.345  0.00  0.00    +0.139 C 
BRANCH  15   8
ATOM      6  O   UNL     1       0.958   1.975  24.105  0.00  0.00    -0.253 OA
ATOM      8  N   UNL     1      -0.685   0.734  23.050  0.00  0.00    -0.297 N 
ATOM     10  N   UNL     1       1.487  -0.041  23.025  0.00  0.00    -0.267 N 
ATOM     20  C   UNL     1       0.637   0.981  23.456  0.00  0.00    +0.304 C 
ATOM     30  H   UNL     1      -0.877  -0.115  22.527  0.00  0.00    +0.150 HD
ATOM     32  H   UNL     1       1.060  -0.797  22.495  0.00  0.00    +0.156 HD
BRANCH  10  23
ATOM      1  F   UNL     1       3.214   2.093  22.553  0.00  0.00    -0.203 F 
ATOM      2  F   UNL     1       6.950  -0.508  23.842  0.00  0.00    -0.205 F 
ATOM     23  C   UNL     1       2.881  -0.158  23.233  0.00  0.00    +0.070 A 
ATOM     24  C   UNL     1       3.718   0.930  22.987  0.00  0.00    +0.147 A 
ATOM     25  C   UNL     1       3.418  -1.364  23.684  0.00  0.00    +0.029 A 
ATOM     26  C   UNL     1       5.094   0.812  23.193  0.00  0.00    +0.078 A 
ATOM     27  C   UNL     1       4.792  -1.481  23.890  0.00  0.00    +0.040 A 
ATOM     28  C   UNL     1       5.631  -0.394  23.644  0.00  0.00    +0.126 A 
ENDBRANCH  10  23
ENDBRANCH  15   8
ENDBRANCH  12  15
BRANCH  14  16
ATOM     16  C   UNL     1      -1.809   5.405  25.373  0.00  0.00    +0.190 C 
BRANCH  16   5
ATOM      5  O   UNL     1      -0.578   5.399  24.666  0.00  0.00    -0.392 OA
ATOM     31  H   UNL     1       0.094   5.776  25.259  0.00  0.00    +0.210 HD
ENDBRANCH  16   5
ENDBRANCH  14  16
TORSDOF 10
ENDMDL
MODEL 3
REMARK VINA RESULT:      -2.5      2.002      3.715
REMARK  Name = 28961481
REMARK  13 active torsions:
REMARK  status: ('A' for Active; 'I' for Inactive)
REMARK    1  A    between atoms: O_4  and  C_13
REMARK    2  A    between atoms: O_5  and  C_16
REMARK    3  A    between atoms: N_7  and  C_11
REMARK    4  A    between atoms: N_7  and  C_17
REMARK    5  A    between atoms: N_7  and  C_18
REMARK    6  A    between atoms: N_8  and  C_15
REMARK    7  A    between atoms: N_9  and  C_19
REMARK    8  A    between atoms: N_9  and  C_21
REMARK    9  A    between atoms: N_9  and  C_22
REMARK   10  A    between atoms: N_10  and  C_23
REMARK   11  A    between atoms: C_12  and  C_15
REMARK   12  A    between atoms: C_14  and  C_16
REMARK   13  A    between atoms: C_17  and  C_19
REMARK                            x       y       z     vdW  Elec       q    Type
REMARK                         _______ _______ _______ _____ _____    ______ ____
ROOT
ATOM      3  O   UNL     1      -2.685   3.003  25.337  0.00  0.00    -0.365 OA
ATOM     11  C   UNL     1      -3.386   0.728  25.264  0.00  0.00    +0.118 C 
ATOM     12  C   UNL     1      -2.248   1.693  24.908  0.00  0.00    +0.155 C 
ATOM     13  C   UNL     1      -4.612   1.628  25.264  0.00  0.00    +0.165 C 
ATOM     14  C   UNL     1      -4.025   2.903  25.858  0.00  0.00    +0.174 C 
ENDROOT
BRANCH  13   4
ATOM      4  O   UNL     1      -5.082   1.868  23.944  0.00  0.00    -0.388 OA
ATOM     29  H   UNL     1      -4.661   1.217  23.358  0.00  0.00    +0.210 HD
ENDBRANCH  13   4
BRANCH  11   7
ATOM      7  N   UNL     1      -3.494  -0.467  24.446  0.00  0.00    -0.296 NA
ATOM     18  C   UNL     1      -4.883  -0.692  24.033  0.00  0.00    +0.105 C 
BRANCH   7  17
ATOM     17  C   UNL     1      -2.987  -1.639  25.165  0.00  0.00    +0.100 C 
BRANCH  17  19
ATOM     19  C   UNL     1      -1.715  -2.156  24.498  0.00  0.00    +0.099 C 
BRANCH  19   9
ATOM      9  N   UNL     1      -0.539  -1.623  25.176  0.00  0.00    -0.307 NA
ATOM     21  C   UNL     1       0.416  -2.692  25.468  0.00  0.00    +0.104 C 
ATOM     22  C   UNL     1      -0.923  -0.934  26.409  0.00  0.00    +0.104 C 
ENDBRANCH  19   9
ENDBRANCH  17  19
ENDBRANCH   7  17
ENDBRANCH  11   7
BRANCH  12  15
ATOM     15  C   UNL     1      -1.880   1.801  23.432  0.00  0.00    +0.139 C 
BRANCH  15   8
ATOM      6  O   UNL     1       0.868   2.067  24.196  0.00  0.00    -0.253 OA
ATOM      8  N   UNL     1      -0.809   0.909  23.101  0.00  0.00    -0.297 N 
ATOM     10  N   UNL     1       1.341   0.078  23.042  0.00  0.00    -0.267 N 
ATOM     20  C   UNL     1       0.519   1.106  23.513  0.00  0.00    +0.304 C 
ATOM     30  H   UNL     1      -1.026   0.085  22.549  0.00  0.00    +0.150 HD
ATOM     32  H   UNL     1       0.893  -0.647  22.486  0.00  0.00    +0.156 HD
BRANCH  10  23
ATOM      1  F   UNL     1       3.130   2.164  22.584  0.00  0.00    -0.203 F 
ATOM      2  F   UNL     1       6.790  -0.564  23.826  0.00  0.00    -0.205 F 
ATOM     23  C   UNL     1       2.732  -0.083  23.242  0.00  0.00    +0.070 A 
ATOM     24  C   UNL     1       3.600   0.981  23.003  0.00  0.00    +0.147 A 
ATOM     25  C   UNL     1       3.234  -1.310  23.677  0.00  0.00    +0.029 A 
ATOM     26  C   UNL     1       4.972   0.819  23.201  0.00  0.00    +0.078 A 
ATOM     27  C   UNL     1       4.604  -1.472  23.874  0.00  0.00    +0.040 A 
ATOM     28  C   UNL     1       5.474  -0.408  23.636  0.00  0.00    +0.126 A 
ENDBRANCH  10  23
ENDBRANCH  15   8
ENDBRANCH  12  15
BRANCH  14  16
ATOM     16  C   UNL     1      -4.781   4.181  25.541  0.00  0.00    +0.190 C 
BRANCH  16   5
ATOM      5  O   UNL     1      -6.167   3.958  25.753  0.00  0.00    -0.392 OA
ATOM     31  H   UNL     1      -6.245   3.269  26.434  0.00  0.00    +0.210 HD
ENDBRANCH  16   5
ENDBRANCH  14  16
TORSDOF 10
ENDMDL
MODEL 4
REMARK VINA RESULT:      -1.6      2.240      4.287
REMARK  Name = 28961481
REMARK  13 active torsions:
REMARK  status: ('A' for Active; 'I' for Inactive)
REMARK    1  A    between atoms: O_4  and  C_13
REMARK    2  A    between atoms: O_5  and  C_16
REMARK    3  A    between atoms: N_7  and  C_11
REMARK    4  A    between atoms: N_7  and  C_17
REMARK    5  A    between atoms: N_7  and  C_18
REMARK    6  A    between atoms: N_8  and  C_15
REMARK    7  A    between atoms: N_9  and  C_19
REMARK    8  A    between atoms: N_9  and  C_21
REMARK    9  A    between atoms: N_9  and  C_22
REMARK   10  A    between atoms: N_10  and  C_23
REMARK   11  A    between atoms: C_12  and  C_15
REMARK   12  A    between atoms: C_14  and  C_16
REMARK   13  A    between atoms: C_17  and  C_19
REMARK                            x       y       z     vdW  Elec       q    Type
REMARK                         _______ _______ _______ _____ _____    ______ ____
ROOT
ATOM      3  O   UNL     1      -3.084   3.988  26.227  0.00  0.00    -0.365 OA
ATOM     11  C   UNL     1      -2.786   1.970  25.000  0.00  0.00    +0.118 C 
ATOM     12  C   UNL     1      -2.054   3.142  25.668  0.00  0.00    +0.155 C 
ATOM     13  C   UNL     1      -4.146   2.561  24.665  0.00  0.00    +0.165 C 
ATOM     14  C   UNL     1      -4.374   3.449  25.882  0.00  0.00    +0.174 C 
ENDROOT
BRANCH  13   4
ATOM      4  O   UNL     1      -4.096   3.348  23.482  0.00  0.00    -0.388 OA
ATOM     29  H   UNL     1      -4.070   4.282  23.750  0.00  0.00    +0.210 HD
ENDBRANCH  13   4
BRANCH  11   7
ATOM      7  N   UNL     1      -2.097   1.332  23.892  0.00  0.00    -0.296 NA
ATOM     18  C   UNL     1      -2.923   1.359  22.679  0.00  0.00    +0.105 C 
BRANCH   7  17
ATOM     17  C   UNL     1      -1.739  -0.049  24.225  0.00  0.00    +0.100 C 
BRANCH  17  19
ATOM     19  C   UNL     1      -2.698  -0.603  25.275  0.00  0.00    +0.099 C 
BRANCH  19   9
ATOM      9  N   UNL     1      -3.136  -1.943  24.900  0.00  0.00    -0.307 NA
ATOM     21  C   UNL     1      -2.011  -2.728  24.389  0.00  0.00    +0.104 C 
ATOM     22  C   UNL     1      -4.204  -1.875  23.902  0.00  0.00    +0.104 C 
ENDBRANCH  19   9
ENDBRANCH  17  19
ENDBRANCH   7  17
ENDBRANCH  11   7
BRANCH  12  15
ATOM     15  C   UNL     1      -1.192   4.016  24.763  0.00  0.00    +0.139 C 
BRANCH  15   8
ATOM      6  O   UNL     1       0.974   2.316  25.553  0.00  0.00    -0.253 OA
ATOM      8  N   UNL     1      -0.374   3.216  23.902  0.00  0.00    -0.297 N 
ATOM     10  N   UNL     1       1.294   1.742  23.299  0.00  0.00    -0.267 N 
ATOM     20  C   UNL     1       0.675   2.404  24.363  0.00  0.00    +0.304 C 
ATOM     30  H   UNL     1      -0.571   3.229  22.906  0.00  0.00    +0.150 HD
ATOM     32  H   UNL     1       0.924   1.926  22.369  0.00  0.00    +0.156 HD
BRANCH  10  23
ATOM      1  F   UNL     1       0.913  -0.982  23.744  0.00  0.00    -0.203 F 
ATOM      2  F   UNL     1       5.569  -1.780  23.502  0.00  0.00    -0.205 F 
ATOM     23  C   UNL     1       2.383   0.842  23.351  0.00  0.00    +0.070 A 
ATOM     24  C   UNL     1       2.159  -0.516  23.575  0.00  0.00    +0.147 A 
ATOM     25  C   UNL     1       3.685   1.314  23.178  0.00  0.00    +0.029 A 
ATOM     26  C   UNL     1       3.235  -1.403  23.626  0.00  0.00    +0.078 A 
ATOM     27  C   UNL     1       4.760   0.428  23.229  0.00  0.00    +0.040 A 
ATOM     28  C   UNL     1       4.536  -0.930  23.453  0.00  0.00    +0.126 A 
ENDBRANCH  10  23
ENDBRANCH  15   8
ENDBRANCH  12  15
BRANCH  14  16
ATOM     16  C   UNL     1      -5.357   4.589  25.685  0.00  0.00    +0.190 C 
BRANCH  16   5
ATOM      5  O   UNL     1      -6.677   4.068  25.718  0.00  0.00    -0.392 OA
ATOM     31  H   UNL     1      -6.619   3.165  26.072  0.00  0.00    +0.210 HD
ENDBRANCH  16   5
ENDBRANCH  14  16
TORSDOF 10
ENDMDL
MODEL 5
REMARK VINA RESULT:      -1.6      1.372      2.138
REMARK  Name = 28961481
REMARK  13 active torsions:
REMARK  status: ('A' for Active; 'I' for Inactive)
REMARK    1  A    between atoms: O_4  and  C_13
REMARK    2  A    between atoms: O_5  and  C_16
REMARK    3  A    between atoms: N_7  and  C_11
REMARK    4  A    between atoms: N_7  and  C_17
REMARK    5  A    between atoms: N_7  and  C_18
REMARK    6  A    between atoms: N_8  and  C_15
REMARK    7  A    between atoms: N_9  and  C_19
REMARK    8  A    between atoms: N_9  and  C_21
REMARK    9  A    between atoms: N_9  and  C_22
REMARK   10  A    between atoms: N_10  and  C_23
REMARK   11  A    between atoms: C_12  and  C_15
REMARK   12  A    between atoms: C_14  and  C_16
REMARK   13  A    between atoms: C_17  and  C_19
REMARK                            x       y       z     vdW  Elec       q    Type
REMARK                         _______ _______ _______ _____ _____    ______ ____
ROOT
ATOM      3  O   UNL     1      -3.251  -0.497  24.206  0.00  0.00    -0.365 OA
ATOM     11  C   UNL     1      -2.211   1.323  25.335  0.00  0.00    +0.118 C 
ATOM     12  C   UNL     1      -2.899   0.895  24.032  0.00  0.00    +0.155 C 
ATOM     13  C   UNL     1      -1.650   0.017  25.873  0.00  0.00    +0.165 C 
ATOM     14  C   UNL     1      -2.763  -0.949  25.484  0.00  0.00    +0.174 C 
ENDROOT
BRANCH  13   4
ATOM      4  O   UNL     1      -0.437  -0.338  25.221  0.00  0.00    -0.388 OA
ATOM     29  H   UNL     1       0.216  -0.551  25.908  0.00  0.00    +0.210 HD
ENDBRANCH  13   4
BRANCH  11   7
ATOM      7  N   UNL     1      -1.255   2.411  25.228  0.00  0.00    -0.296 NA
ATOM     18  C   UNL     1      -0.331   2.408  26.367  0.00  0.00    +0.105 C 
BRANCH   7  17
ATOM     17  C   UNL     1      -1.941   3.703  25.142  0.00  0.00    +0.100 C 
BRANCH  17  19
ATOM     19  C   UNL     1      -3.094   3.754  26.140  0.00  0.00    +0.099 C 
BRANCH  19   9
ATOM      9  N   UNL     1      -4.347   4.040  25.449  0.00  0.00    -0.307 NA
ATOM     21  C   UNL     1      -5.367   3.053  25.802  0.00  0.00    +0.104 C 
ATOM     22  C   UNL     1      -4.141   4.064  24.000  0.00  0.00    +0.104 C 
ENDBRANCH  19   9
ENDBRANCH  17  19
ENDBRANCH   7  17
ENDBRANCH  11   7
BRANCH  12  15
ATOM     15  C   UNL     1      -2.070   0.995  22.756  0.00  0.00    +0.139 C 
BRANCH  15   8
ATOM      6  O   UNL     1       0.184  -0.766  22.619  0.00  0.00    -0.253 OA
ATOM      8  N   UNL     1      -0.708   1.324  23.051  0.00  0.00    -0.297 N 
ATOM     10  N   UNL     1       1.561   1.006  23.308  0.00  0.00    -0.267 N 
ATOM     20  C   UNL     1       0.349   0.403  22.962  0.00  0.00    +0.304 C 
ATOM     30  H   UNL     1      -0.495   2.277  23.329  0.00  0.00    +0.150 HD
ATOM     32  H   UNL     1       1.525   1.988  23.570  0.00  0.00    +0.156 HD
BRANCH  10  23
ATOM      1  F   UNL     1       3.839   2.429  22.568  0.00  0.00    -0.203 F 
ATOM      2  F   UNL     1       6.593  -1.315  23.448  0.00  0.00    -0.205 F 
ATOM     23  C   UNL     1       2.846   0.416  23.343  0.00  0.00    +0.070 A 
ATOM     24  C   UNL     1       3.966   1.156  22.966  0.00  0.00    +0.147 A 
ATOM     25  C   UNL     1       2.991  -0.909  23.755  0.00  0.00    +0.029 A 
ATOM     26  C   UNL     1       5.233   0.571  23.001  0.00  0.00    +0.078 A 
ATOM     27  C   UNL     1       4.257  -1.493  23.791  0.00  0.00    +0.040 A 
ATOM     28  C   UNL     1       5.378  -0.753  23.413  0.00  0.00    +0.126 A 
ENDBRANCH  10  23
ENDBRANCH  15   8
ENDBRANCH  12  15
BRANCH  14  16
ATOM     16  C   UNL     1      -2.356  -2.407  25.377  0.00  0.00    +0.190 C 
BRANCH  16   5
ATOM      5  O   UNL     1      -1.684  -2.607  24.143  0.00  0.00    -0.392 OA
ATOM     31  H   UNL     1      -1.754  -1.777  23.641  0.00  0.00    +0.210 HD
ENDBRANCH  16   5
ENDBRANCH  14  16
TORSDOF 10
ENDMDL
