MODEL 1
REMARK VINA RESULT:       2.5      0.000      0.000
REMARK  Name = 26743284
REMARK  10 active torsions:
REMARK  status: ('A' for Active; 'I' for Inactive)
REMARK    1  A    between atoms: N_3  and  C_8
REMARK    2  A    between atoms: C_6  and  C_12
REMARK    3  A    between atoms: C_7  and  C_15
REMARK    4  A    between atoms: C_12  and  C_16
REMARK    5  A    between atoms: C_15  and  C_17
REMARK    6  A    between atoms: C_19  and  C_21
REMARK    7  A    between atoms: C_20  and  C_22
REMARK    8  A    between atoms: C_20  and  C_27
REMARK    9  A    between atoms: C_20  and  C_28
REMARK   10  A    between atoms: C_20  and  C_29
REMARK                            x       y       z     vdW  Elec       q    Type
REMARK                         _______ _______ _______ _____ _____    ______ ____
ROOT
ATOM     15  C   UNL     1      -3.899   3.292  23.727  0.00  0.00    +0.064 C 
ENDROOT
BRANCH  15   7
ATOM      4  N   UNL     1      -6.563   2.976  26.454  0.00  0.00    -0.316 NA
ATOM      6  C   UNL     1      -4.358   1.356  25.348  0.00  0.00    +0.004 C 
ATOM      7  C   UNL     1      -4.507   2.870  25.066  0.00  0.00    +0.012 C 
ATOM      9  C   UNL     1      -5.070   1.020  26.670  0.00  0.00    +0.019 C 
ATOM     13  C   UNL     1      -5.973   3.324  25.160  0.00  0.00    +0.085 C 
ATOM     14  C   UNL     1      -6.507   1.537  26.707  0.00  0.00    +0.081 C 
ATOM     31  H   UNL     1      -7.534   3.284  26.476  0.00  0.00    +0.122 HD
BRANCH   6  12
ATOM     12  C   UNL     1      -4.863   0.457  24.213  0.00  0.00    +0.099 C 
BRANCH  12  16
ATOM      1  O   UNL     1      -4.687  -1.895  23.676  0.00  0.00    -0.276 OA
ATOM      3  N   UNL     1      -3.027  -0.890  24.953  0.00  0.00    -0.312 N 
ATOM     16  C   UNL     1      -4.211  -0.909  24.232  0.00  0.00    +0.214 C 
ATOM     30  H   UNL     1      -2.715  -0.024  25.387  0.00  0.00    +0.149 HD
BRANCH   3   8
ATOM      8  C   UNL     1      -2.195  -2.057  25.137  0.00  0.00    +0.073 C 
ATOM     10  C   UNL     1      -0.709  -1.934  25.298  0.00  0.00    +0.024 C 
ATOM     11  C   UNL     1      -1.281  -2.540  24.050  0.00  0.00    +0.024 C 
ENDBRANCH   3   8
ENDBRANCH  12  16
ENDBRANCH   6  12
ENDBRANCH  15   7
BRANCH  15  17
ATOM      2  O   UNL     1      -1.535   0.918  22.408  0.00  0.00    -0.354 OA
ATOM      5  N   UNL     1      -2.806   1.477  22.482  0.00  0.00    -0.083 NA
ATOM     17  C   UNL     1      -2.699   2.456  23.384  0.00  0.00    +0.085 A 
ATOM     18  C   UNL     1      -1.399   2.560  23.908  0.00  0.00    +0.076 A 
ATOM     19  C   UNL     1      -0.707   1.571  23.262  0.00  0.00    +0.167 A 
BRANCH  19  21
ATOM     21  C   UNL     1       0.648   1.102  23.295  0.00  0.00    +0.020 A 
ATOM     22  C   UNL     1       3.283   0.189  23.357  0.00  0.00    -0.042 A 
ATOM     23  C   UNL     1       0.926  -0.243  23.055  0.00  0.00    +0.012 A 
ATOM     24  C   UNL     1       1.688   1.992  23.565  0.00  0.00    +0.012 A 
ATOM     25  C   UNL     1       2.243  -0.700  23.086  0.00  0.00    +0.005 A 
ATOM     26  C   UNL     1       3.005   1.536  23.596  0.00  0.00    +0.005 A 
BRANCH  22  20
ATOM     20  C   UNL     1       4.692  -0.299  23.390  0.00  0.00    -0.013 C 
ATOM     27  C   UNL     1       5.370  -0.166  21.991  0.00  0.00    +0.015 C 
ATOM     28  C   UNL     1       4.760  -1.800  23.805  0.00  0.00    +0.015 C 
ATOM     29  C   UNL     1       5.639   0.452  24.385  0.00  0.00    +0.015 C 
ENDBRANCH  22  20
ENDBRANCH  19  21
ENDBRANCH  15  17
TORSDOF 7
ENDMDL
MODEL 2
REMARK VINA RESULT:       4.0      1.810      3.496
REMARK  Name = 26743284
REMARK  10 active torsions:
REMARK  status: ('A' for Active; 'I' for Inactive)
REMARK    1  A    between atoms: N_3  and  C_8
REMARK    2  A    between atoms: C_6  and  C_12
REMARK    3  A    between atoms: C_7  and  C_15
REMARK    4  A    between atoms: C_12  and  C_16
REMARK    5  A    between atoms: C_15  and  C_17
REMARK    6  A    between atoms: C_19  and  C_21
REMARK    7  A    between atoms: C_20  and  C_22
REMARK    8  A    between atoms: C_20  and  C_27
REMARK    9  A    between atoms: C_20  and  C_28
REMARK   10  A    between atoms: C_20  and  C_29
REMARK                            x       y       z     vdW  Elec       q    Type
REMARK                         _______ _______ _______ _____ _____    ______ ____
ROOT
ATOM     15  C   UNL     1      -4.425  -0.016  24.422  0.00  0.00    +0.064 C 
ENDROOT
BRANCH  15   7
ATOM      4  N   UNL     1      -7.108   2.345  25.788  0.00  0.00    -0.316 NA
ATOM      6  C   UNL     1      -4.367   2.534  24.712  0.00  0.00    +0.004 C 
ATOM      7  C   UNL     1      -5.245   1.270  24.548  0.00  0.00    +0.012 C 
ATOM      9  C   UNL     1      -5.280   3.755  24.912  0.00  0.00    +0.019 C 
ATOM     13  C   UNL     1      -6.277   1.144  25.680  0.00  0.00    +0.085 C 
ATOM     14  C   UNL     1      -6.304   3.542  26.025  0.00  0.00    +0.081 C 
ATOM     31  H   UNL     1      -7.772   2.227  26.552  0.00  0.00    +0.122 HD
BRANCH   6  12
ATOM     12  C   UNL     1      -3.334   2.433  25.840  0.00  0.00    +0.099 C 
BRANCH  12  16
ATOM      1  O   UNL     1      -2.539   4.617  26.516  0.00  0.00    -0.276 OA
ATOM      3  N   UNL     1      -1.301   3.372  24.993  0.00  0.00    -0.312 N 
ATOM     16  C   UNL     1      -2.373   3.603  25.843  0.00  0.00    +0.214 C 
ATOM     30  H   UNL     1      -1.251   2.502  24.469  0.00  0.00    +0.149 HD
BRANCH   3   8
ATOM      8  C   UNL     1      -0.229   4.322  24.798  0.00  0.00    +0.073 C 
ATOM     10  C   UNL     1      -0.513   5.776  24.562  0.00  0.00    +0.024 C 
ATOM     11  C   UNL     1       0.037   4.929  23.453  0.00  0.00    +0.024 C 
ENDBRANCH   3   8
ENDBRANCH  12  16
ENDBRANCH   6  12
ENDBRANCH  15   7
BRANCH  15  17
ATOM      2  O   UNL     1      -1.424   1.215  22.859  0.00  0.00    -0.354 OA
ATOM      5  N   UNL     1      -2.802   1.206  23.039  0.00  0.00    -0.083 NA
ATOM     17  C   UNL     1      -3.022   0.273  23.968  0.00  0.00    +0.085 A 
ATOM     18  C   UNL     1      -1.833  -0.335  24.408  0.00  0.00    +0.076 A 
ATOM     19  C   UNL     1      -0.858   0.293  23.679  0.00  0.00    +0.167 A 
BRANCH  19  21
ATOM     21  C   UNL     1       0.570   0.187  23.604  0.00  0.00    +0.020 A 
ATOM     22  C   UNL     1       3.348  -0.018  23.461  0.00  0.00    -0.042 A 
ATOM     23  C   UNL     1       1.345   1.332  23.420  0.00  0.00    +0.012 A 
ATOM     24  C   UNL     1       1.183  -1.060  23.718  0.00  0.00    +0.012 A 
ATOM     25  C   UNL     1       2.734   1.229  23.348  0.00  0.00    +0.005 A 
ATOM     26  C   UNL     1       2.572  -1.163  23.646  0.00  0.00    +0.005 A 
BRANCH  22  20
ATOM     20  C   UNL     1       4.834  -0.127  23.383  0.00  0.00    -0.013 C 
ATOM     27  C   UNL     1       5.337   0.032  21.915  0.00  0.00    +0.015 C 
ATOM     28  C   UNL     1       5.326  -1.513  23.901  0.00  0.00    +0.015 C 
ATOM     29  C   UNL     1       5.629   0.934  24.214  0.00  0.00    +0.015 C 
ENDBRANCH  22  20
ENDBRANCH  19  21
ENDBRANCH  15  17
TORSDOF 7
ENDMDL
MODEL 3
REMARK VINA RESULT:       4.2      2.030      3.695
REMARK  Name = 26743284
REMARK  10 active torsions:
REMARK  status: ('A' for Active; 'I' for Inactive)
REMARK    1  A    between atoms: N_3  and  C_8
REMARK    2  A    between atoms: C_6  and  C_12
REMARK    3  A    between atoms: C_7  and  C_15
REMARK    4  A    between atoms: C_12  and  C_16
REMARK    5  A    between atoms: C_15  and  C_17
REMARK    6  A    between atoms: C_19  and  C_21
REMARK    7  A    between atoms: C_20  and  C_22
REMARK    8  A    between atoms: C_20  and  C_27
REMARK    9  A    between atoms: C_20  and  C_28
REMARK   10  A    between atoms: C_20  and  C_29
REMARK                            x       y       z     vdW  Elec       q    Type
REMARK                         _______ _______ _______ _____ _____    ______ ____
ROOT
ATOM     15  C   UNL     1      -5.199  -0.015  24.796  0.00  0.00    +0.064 C 
ENDROOT
BRANCH  15   7
ATOM      4  N   UNL     1      -7.045   3.211  25.705  0.00  0.00    -0.316 NA
ATOM      6  C   UNL     1      -4.399   2.421  24.664  0.00  0.00    +0.004 C 
ATOM      7  C   UNL     1      -5.609   1.456  24.694  0.00  0.00    +0.012 C 
ATOM      9  C   UNL     1      -4.914   3.870  24.644  0.00  0.00    +0.019 C 
ATOM     13  C   UNL     1      -6.599   1.820  25.811  0.00  0.00    +0.085 C 
ATOM     14  C   UNL     1      -5.923   4.146  25.757  0.00  0.00    +0.081 C 
ATOM     31  H   UNL     1      -7.691   3.416  26.465  0.00  0.00    +0.122 HD
BRANCH   6  12
ATOM     12  C   UNL     1      -3.406   2.210  25.813  0.00  0.00    +0.099 C 
BRANCH  12  16
ATOM      1  O   UNL     1      -2.666   4.219  26.940  0.00  0.00    -0.276 OA
ATOM      3  N   UNL     1      -1.519   3.478  25.060  0.00  0.00    -0.312 N 
ATOM     16  C   UNL     1      -2.513   3.414  26.026  0.00  0.00    +0.214 C 
ATOM     30  H   UNL     1      -1.476   2.767  24.334  0.00  0.00    +0.149 HD
BRANCH   3   8
ATOM      8  C   UNL     1      -0.524   4.526  25.019  0.00  0.00    +0.073 C 
ATOM     10  C   UNL     1      -0.887   5.926  24.622  0.00  0.00    +0.024 C 
ATOM     11  C   UNL     1      -0.039   5.085  23.714  0.00  0.00    +0.024 C 
ENDBRANCH   3   8
ENDBRANCH  12  16
ENDBRANCH   6  12
ENDBRANCH  15   7
BRANCH  15  17
ATOM      2  O   UNL     1      -1.751  -0.879  25.367  0.00  0.00    -0.354 OA
ATOM      5  N   UNL     1      -3.106  -0.968  25.662  0.00  0.00    -0.083 NA
ATOM     17  C   UNL     1      -3.705  -0.168  24.776  0.00  0.00    +0.085 A 
ATOM     18  C   UNL     1      -2.788   0.447  23.906  0.00  0.00    +0.076 A 
ATOM     19  C   UNL     1      -1.574  -0.033  24.320  0.00  0.00    +0.167 A 
BRANCH  19  21
ATOM     21  C   UNL     1      -0.217   0.160  23.899  0.00  0.00    +0.020 A 
ATOM     22  C   UNL     1       2.423   0.536  23.078  0.00  0.00    -0.042 A 
ATOM     23  C   UNL     1       0.395  -0.778  23.068  0.00  0.00    +0.012 A 
ATOM     24  C   UNL     1       0.490   1.286  24.320  0.00  0.00    +0.012 A 
ATOM     25  C   UNL     1       1.714  -0.590  22.657  0.00  0.00    +0.005 A 
ATOM     26  C   UNL     1       1.810   1.474  23.909  0.00  0.00    +0.005 A 
BRANCH  22  20
ATOM     20  C   UNL     1       3.834   0.736  22.639  0.00  0.00    -0.013 C 
ATOM     27  C   UNL     1       4.179   2.254  22.523  0.00  0.00    +0.015 C 
ATOM     28  C   UNL     1       4.090   0.087  21.245  0.00  0.00    +0.015 C 
ATOM     29  C   UNL     1       4.924   0.133  23.587  0.00  0.00    +0.015 C 
ENDBRANCH  22  20
ENDBRANCH  19  21
ENDBRANCH  15  17
TORSDOF 7
ENDMDL
MODEL 4
REMARK VINA RESULT:       4.7      1.594      2.126
REMARK  Name = 26743284
REMARK  10 active torsions:
REMARK  status: ('A' for Active; 'I' for Inactive)
REMARK    1  A    between atoms: N_3  and  C_8
REMARK    2  A    between atoms: C_6  and  C_12
REMARK    3  A    between atoms: C_7  and  C_15
REMARK    4  A    between atoms: C_12  and  C_16
REMARK    5  A    between atoms: C_15  and  C_17
REMARK    6  A    between atoms: C_19  and  C_21
REMARK    7  A    between atoms: C_20  and  C_22
REMARK    8  A    between atoms: C_20  and  C_27
REMARK    9  A    between atoms: C_20  and  C_28
REMARK   10  A    between atoms: C_20  and  C_29
REMARK                            x       y       z     vdW  Elec       q    Type
REMARK                         _______ _______ _______ _____ _____    ______ ____
ROOT
ATOM     15  C   UNL     1      -2.974   1.826  22.737  0.00  0.00    +0.064 C 
ENDROOT
BRANCH  15   7
ATOM      4  N   UNL     1      -4.747   4.767  24.423  0.00  0.00    -0.316 NA
ATOM      6  C   UNL     1      -3.751   2.091  25.169  0.00  0.00    +0.004 C 
ATOM      7  C   UNL     1      -3.338   2.802  23.857  0.00  0.00    +0.012 C 
ATOM      9  C   UNL     1      -4.175   3.151  26.200  0.00  0.00    +0.019 C 
ATOM     13  C   UNL     1      -4.416   3.790  23.384  0.00  0.00    +0.085 C 
ATOM     14  C   UNL     1      -5.217   4.120  25.646  0.00  0.00    +0.081 C 
ATOM     31  H   UNL     1      -5.468   5.397  24.076  0.00  0.00    +0.122 HD
BRANCH   6  12
ATOM     12  C   UNL     1      -4.847   1.035  24.988  0.00  0.00    +0.099 C 
BRANCH  12  16
ATOM      1  O   UNL     1      -3.819  -0.737  26.274  0.00  0.00    -0.276 OA
ATOM      3  N   UNL     1      -4.521  -1.165  24.101  0.00  0.00    -0.312 N 
ATOM     16  C   UNL     1      -4.334  -0.369  25.221  0.00  0.00    +0.214 C 
ATOM     30  H   UNL     1      -4.952  -0.769  23.269  0.00  0.00    +0.149 HD
BRANCH   3   8
ATOM      8  C   UNL     1      -4.123  -2.553  24.042  0.00  0.00    +0.073 C 
ATOM     10  C   UNL     1      -3.403  -3.203  25.185  0.00  0.00    +0.024 C 
ATOM     11  C   UNL     1      -2.682  -2.943  23.895  0.00  0.00    +0.024 C 
ENDBRANCH   3   8
ENDBRANCH  12  16
ENDBRANCH   6  12
ENDBRANCH  15   7
BRANCH  15  17
ATOM      2  O   UNL     1      -0.367  -0.457  23.714  0.00  0.00    -0.354 OA
ATOM      5  N   UNL     1      -1.704  -0.100  23.584  0.00  0.00    -0.083 NA
ATOM     17  C   UNL     1      -1.684   1.115  23.030  0.00  0.00    +0.085 A 
ATOM     18  C   UNL     1      -0.375   1.571  22.791  0.00  0.00    +0.076 A 
ATOM     19  C   UNL     1       0.414   0.546  23.239  0.00  0.00    +0.167 A 
BRANCH  19  21
ATOM     21  C   UNL     1       1.829   0.319  23.308  0.00  0.00    +0.020 A 
ATOM     22  C   UNL     1       4.580  -0.123  23.441  0.00  0.00    -0.042 A 
ATOM     23  C   UNL     1       2.316  -0.943  23.644  0.00  0.00    +0.012 A 
ATOM     24  C   UNL     1       2.716   1.361  23.038  0.00  0.00    +0.012 A 
ATOM     25  C   UNL     1       3.692  -1.165  23.709  0.00  0.00    +0.005 A 
ATOM     26  C   UNL     1       4.091   1.140  23.104  0.00  0.00    +0.005 A 
BRANCH  22  20
ATOM     20  C   UNL     1       6.050  -0.360  23.512  0.00  0.00    -0.013 C 
ATOM     27  C   UNL     1       6.396  -1.455  24.568  0.00  0.00    +0.015 C 
ATOM     28  C   UNL     1       6.813   0.939  23.913  0.00  0.00    +0.015 C 
ATOM     29  C   UNL     1       6.718  -0.840  22.180  0.00  0.00    +0.015 C 
ENDBRANCH  22  20
ENDBRANCH  19  21
ENDBRANCH  15  17
TORSDOF 7
ENDMDL
MODEL 5
REMARK VINA RESULT:       5.8      1.459      2.033
REMARK  Name = 26743284
REMARK  10 active torsions:
REMARK  status: ('A' for Active; 'I' for Inactive)
REMARK    1  A    between atoms: N_3  and  C_8
REMARK    2  A    between atoms: C_6  and  C_12
REMARK    3  A    between atoms: C_7  and  C_15
REMARK    4  A    between atoms: C_12  and  C_16
REMARK    5  A    between atoms: C_15  and  C_17
REMARK    6  A    between atoms: C_19  and  C_21
REMARK    7  A    between atoms: C_20  and  C_22
REMARK    8  A    between atoms: C_20  and  C_27
REMARK    9  A    between atoms: C_20  and  C_28
REMARK   10  A    between atoms: C_20  and  C_29
REMARK                            x       y       z     vdW  Elec       q    Type
REMARK                         _______ _______ _______ _____ _____    ______ ____
ROOT
ATOM     15  C   UNL     1      -3.693   4.084  26.509  0.00  0.00    +0.064 C 
ENDROOT
BRANCH  15   7
ATOM      4  N   UNL     1      -7.138   3.321  25.032  0.00  0.00    -0.316 NA
ATOM      6  C   UNL     1      -4.782   1.820  25.981  0.00  0.00    +0.004 C 
ATOM      7  C   UNL     1      -5.001   3.320  26.295  0.00  0.00    +0.012 C 
ATOM      9  C   UNL     1      -6.144   1.162  25.703  0.00  0.00    +0.019 C 
ATOM     13  C   UNL     1      -5.858   4.006  25.220  0.00  0.00    +0.085 C 
ATOM     14  C   UNL     1      -6.955   1.921  24.654  0.00  0.00    +0.081 C 
ATOM     31  H   UNL     1      -7.673   3.799  24.308  0.00  0.00    +0.122 HD
BRANCH   6  12
ATOM     12  C   UNL     1      -3.804   1.561  24.829  0.00  0.00    +0.099 C 
BRANCH  12  16
ATOM      1  O   UNL     1      -3.987  -0.362  23.371  0.00  0.00    -0.276 OA
ATOM      3  N   UNL     1      -3.276  -0.656  25.564  0.00  0.00    -0.312 N 
ATOM     16  C   UNL     1      -3.709   0.091  24.479  0.00  0.00    +0.214 C 
ATOM     30  H   UNL     1      -3.076  -0.192  26.447  0.00  0.00    +0.149 HD
BRANCH   3   8
ATOM      8  C   UNL     1      -3.095  -2.089  25.515  0.00  0.00    +0.073 C 
ATOM     10  C   UNL     1      -2.119  -2.716  24.563  0.00  0.00    +0.024 C 
ATOM     11  C   UNL     1      -3.594  -2.896  24.353  0.00  0.00    +0.024 C 
ENDBRANCH   3   8
ENDBRANCH  12  16
ENDBRANCH   6  12
ENDBRANCH  15   7
BRANCH  15  17
ATOM      2  O   UNL     1      -1.536   3.400  23.709  0.00  0.00    -0.354 OA
ATOM      5  N   UNL     1      -2.643   4.007  24.288  0.00  0.00    -0.083 NA
ATOM     17  C   UNL     1      -2.625   3.613  25.564  0.00  0.00    +0.085 A 
ATOM     18  C   UNL     1      -1.540   2.764  25.845  0.00  0.00    +0.076 A 
ATOM     19  C   UNL     1      -0.887   2.662  24.645  0.00  0.00    +0.167 A 
BRANCH  19  21
ATOM     21  C   UNL     1       0.286   1.972  24.191  0.00  0.00    +0.020 A 
ATOM     22  C   UNL     1       2.566   0.630  23.309  0.00  0.00    -0.042 A 
ATOM     23  C   UNL     1       1.438   2.690  23.874  0.00  0.00    +0.012 A 
ATOM     24  C   UNL     1       0.272   0.583  24.067  0.00  0.00    +0.012 A 
ATOM     25  C   UNL     1       2.579   2.019  23.434  0.00  0.00    +0.005 A 
ATOM     26  C   UNL     1       1.413  -0.089  23.627  0.00  0.00    +0.005 A 
BRANCH  22  20
ATOM     20  C   UNL     1       3.786  -0.088  22.837  0.00  0.00    -0.013 C 
ATOM     27  C   UNL     1       5.083   0.582  23.386  0.00  0.00    +0.015 C 
ATOM     28  C   UNL     1       3.876  -0.085  21.281  0.00  0.00    +0.015 C 
ATOM     29  C   UNL     1       3.884  -1.592  23.258  0.00  0.00    +0.015 C 
ENDBRANCH  22  20
ENDBRANCH  19  21
ENDBRANCH  15  17
TORSDOF 7
ENDMDL
