MODEL 1
REMARK VINA RESULT:      -4.6      0.000      0.000
REMARK  Name = 75536765
REMARK  7 active torsions:
REMARK  status: ('A' for Active; 'I' for Inactive)
REMARK    1  A    between atoms: O_2  and  C_8
REMARK    2  A    between atoms: N_4  and  C_7
REMARK    3  A    between atoms: N_4  and  C_12
REMARK    4  A    between atoms: N_4  and  C_13
REMARK    5  A    between atoms: N_5  and  C_11
REMARK    6  A    between atoms: N_6  and  C_15
REMARK    7  A    between atoms: C_9  and  C_11
REMARK                            x       y       z     vdW  Elec       q    Type
REMARK                         _______ _______ _______ _____ _____    ______ ____
ROOT
ATOM      3  O   UNL     1       0.928   1.897  24.869  0.00  0.00    -0.253 OA
ATOM      5  N   UNL     1      -0.704   1.489  23.282  0.00  0.00    -0.297 N 
ATOM      6  N   UNL     1       1.389   0.571  22.988  0.00  0.00    -0.269 N 
ATOM     14  C   UNL     1       0.590   1.364  23.815  0.00  0.00    +0.304 C 
ATOM     22  H   UNL     1      -0.908   1.031  22.399  0.00  0.00    +0.150 HD
ATOM     23  H   UNL     1       0.952   0.205  22.146  0.00  0.00    +0.156 HD
ENDROOT
BRANCH   6  15
ATOM     15  C   UNL     1       2.743   0.211  23.177  0.00  0.00    +0.035 A 
ATOM     16  C   UNL     1       3.072  -1.081  23.590  0.00  0.00    +0.023 A 
ATOM     17  C   UNL     1       3.753   1.148  22.949  0.00  0.00    +0.023 A 
ATOM     18  C   UNL     1       4.408  -1.436  23.776  0.00  0.00    +0.002 A 
ATOM     19  C   UNL     1       5.088   0.792  23.136  0.00  0.00    +0.002 A 
ATOM     20  C   UNL     1       5.416  -0.499  23.549  0.00  0.00    +0.000 A 
ENDBRANCH   6  15
BRANCH   5  11
ATOM     11  C   UNL     1      -1.749   2.245  23.911  0.00  0.00    +0.140 C 
BRANCH  11   9
ATOM      1  O   UNL     1      -3.921   1.217  24.173  0.00  0.00    -0.371 OA
ATOM      7  C   UNL     1      -3.352  -0.824  25.244  0.00  0.00    +0.113 C 
ATOM      8  C   UNL     1      -2.080  -0.054  24.940  0.00  0.00    +0.164 C 
ATOM      9  C   UNL     1      -2.626   1.359  24.778  0.00  0.00    +0.165 C 
ATOM     10  C   UNL     1      -4.343  -0.152  24.309  0.00  0.00    +0.181 C 
BRANCH   7   4
ATOM      4  N   UNL     1      -3.237  -2.255  25.012  0.00  0.00    -0.301 NA
ATOM     12  C   UNL     1      -4.219  -2.704  24.020  0.00  0.00    +0.105 C 
ATOM     13  C   UNL     1      -1.883  -2.606  24.574  0.00  0.00    +0.105 C 
ENDBRANCH   7   4
BRANCH   8   2
ATOM      2  O   UNL     1      -1.129  -0.136  25.983  0.00  0.00    -0.388 OA
ATOM     21  H   UNL     1      -0.553  -0.900  25.813  0.00  0.00    +0.210 HD
ENDBRANCH   8   2
ENDBRANCH  11   9
ENDBRANCH   5  11
TORSDOF 5
ENDMDL
MODEL 2
REMARK VINA RESULT:      -4.4     15.813     17.676
REMARK  Name = 75536765
REMARK  7 active torsions:
REMARK  status: ('A' for Active; 'I' for Inactive)
REMARK    1  A    between atoms: O_2  and  C_8
REMARK    2  A    between atoms: N_4  and  C_7
REMARK    3  A    between atoms: N_4  and  C_12
REMARK    4  A    between atoms: N_4  and  C_13
REMARK    5  A    between atoms: N_5  and  C_11
REMARK    6  A    between atoms: N_6  and  C_15
REMARK    7  A    between atoms: C_9  and  C_11
REMARK                            x       y       z     vdW  Elec       q    Type
REMARK                         _______ _______ _______ _____ _____    ______ ____
ROOT
ATOM      3  O   UNL     1      -3.576  -8.689  10.971  0.00  0.00    -0.253 OA
ATOM      5  N   UNL     1      -4.676 -10.314   9.746  0.00  0.00    -0.297 N 
ATOM      6  N   UNL     1      -4.066 -10.780  11.919  0.00  0.00    -0.269 N 
ATOM     14  C   UNL     1      -4.053  -9.820  10.905  0.00  0.00    +0.304 C 
ATOM     22  H   UNL     1      -5.035 -11.263   9.760  0.00  0.00    +0.150 HD
ATOM     23  H   UNL     1      -4.502 -11.671  11.698  0.00  0.00    +0.156 HD
ENDROOT
BRANCH   6  15
ATOM     15  C   UNL     1      -3.541 -10.667  13.227  0.00  0.00    +0.035 A 
ATOM     16  C   UNL     1      -4.394 -10.734  14.330  0.00  0.00    +0.023 A 
ATOM     17  C   UNL     1      -2.170 -10.489  13.417  0.00  0.00    +0.023 A 
ATOM     18  C   UNL     1      -3.877 -10.623  15.620  0.00  0.00    +0.002 A 
ATOM     19  C   UNL     1      -1.654 -10.376  14.708  0.00  0.00    +0.002 A 
ATOM     20  C   UNL     1      -2.507 -10.444  15.809  0.00  0.00    +0.000 A 
ENDBRANCH   6  15
BRANCH   5  11
ATOM     11  C   UNL     1      -4.815  -9.554   8.538  0.00  0.00    +0.140 C 
BRANCH  11   9
ATOM      1  O   UNL     1      -6.943 -10.687   8.354  0.00  0.00    -0.371 OA
ATOM      7  C   UNL     1      -8.461  -8.914   8.787  0.00  0.00    +0.113 C 
ATOM      8  C   UNL     1      -7.042  -8.393   8.920  0.00  0.00    +0.164 C 
ATOM      9  C   UNL     1      -6.271  -9.438   8.124  0.00  0.00    +0.165 C 
ATOM     10  C   UNL     1      -8.244 -10.413   8.903  0.00  0.00    +0.181 C 
BRANCH   7   4
ATOM      4  N   UNL     1      -9.370  -8.394   9.796  0.00  0.00    -0.301 NA
ATOM     12  C   UNL     1     -10.325  -7.454   9.202  0.00  0.00    +0.105 C 
ATOM     13  C   UNL     1     -10.086  -9.484  10.465  0.00  0.00    +0.105 C 
ENDBRANCH   7   4
BRANCH   8   2
ATOM      2  O   UNL     1      -6.883  -7.096   8.379  0.00  0.00    -0.388 OA
ATOM     21  H   UNL     1      -6.878  -6.457   9.113  0.00  0.00    +0.210 HD
ENDBRANCH   8   2
ENDBRANCH  11   9
ENDBRANCH   5  11
TORSDOF 5
ENDMDL
MODEL 3
REMARK VINA RESULT:      -4.3      1.914      3.161
REMARK  Name = 75536765
REMARK  7 active torsions:
REMARK  status: ('A' for Active; 'I' for Inactive)
REMARK    1  A    between atoms: O_2  and  C_8
REMARK    2  A    between atoms: N_4  and  C_7
REMARK    3  A    between atoms: N_4  and  C_12
REMARK    4  A    between atoms: N_4  and  C_13
REMARK    5  A    between atoms: N_5  and  C_11
REMARK    6  A    between atoms: N_6  and  C_15
REMARK    7  A    between atoms: C_9  and  C_11
REMARK                            x       y       z     vdW  Elec       q    Type
REMARK                         _______ _______ _______ _____ _____    ______ ____
ROOT
ATOM      3  O   UNL     1       0.388  -1.275  24.963  0.00  0.00    -0.253 OA
ATOM      5  N   UNL     1      -1.133  -0.332  23.498  0.00  0.00    -0.297 N 
ATOM      6  N   UNL     1       1.119  -0.052  23.097  0.00  0.00    -0.269 N 
ATOM     14  C   UNL     1       0.167  -0.616  23.950  0.00  0.00    +0.304 C 
ATOM     22  H   UNL     1      -1.240   0.231  22.660  0.00  0.00    +0.150 HD
ATOM     23  H   UNL     1       0.765   0.468  22.299  0.00  0.00    +0.156 HD
ENDROOT
BRANCH   6  15
ATOM     15  C   UNL     1       2.527  -0.113  23.209  0.00  0.00    +0.035 A 
ATOM     16  C   UNL     1       3.141  -1.280  23.665  0.00  0.00    +0.023 A 
ATOM     17  C   UNL     1       3.304   0.993  22.863  0.00  0.00    +0.023 A 
ATOM     18  C   UNL     1       4.530  -1.342  23.775  0.00  0.00    +0.002 A 
ATOM     19  C   UNL     1       4.693   0.932  22.974  0.00  0.00    +0.002 A 
ATOM     20  C   UNL     1       5.306  -0.235  23.430  0.00  0.00    +0.000 A 
ENDBRANCH   6  15
BRANCH   5  11
ATOM     11  C   UNL     1      -2.319  -0.780  24.169  0.00  0.00    +0.140 C 
BRANCH  11   9
ATOM      1  O   UNL     1      -4.485  -0.007  24.916  0.00  0.00    -0.371 OA
ATOM      7  C   UNL     1      -4.445   2.261  24.214  0.00  0.00    +0.113 C 
ATOM      8  C   UNL     1      -3.114   1.615  23.875  0.00  0.00    +0.164 C 
ATOM      9  C   UNL     1      -3.494   0.140  23.886  0.00  0.00    +0.165 C 
ATOM     10  C   UNL     1      -4.993   1.296  25.252  0.00  0.00    +0.181 C 
BRANCH   7   4
ATOM      4  N   UNL     1      -4.323   3.621  24.713  0.00  0.00    -0.301 NA
ATOM     12  C   UNL     1      -5.445   3.954  25.597  0.00  0.00    +0.105 C 
ATOM     13  C   UNL     1      -3.053   3.805  25.421  0.00  0.00    +0.105 C 
ENDBRANCH   7   4
BRANCH   8   2
ATOM      2  O   UNL     1      -2.615   2.021  22.616  0.00  0.00    -0.388 OA
ATOM     21  H   UNL     1      -1.711   2.360  22.740  0.00  0.00    +0.210 HD
ENDBRANCH   8   2
ENDBRANCH  11   9
ENDBRANCH   5  11
TORSDOF 5
ENDMDL
MODEL 4
REMARK VINA RESULT:      -3.2     14.136     16.877
REMARK  Name = 75536765
REMARK  7 active torsions:
REMARK  status: ('A' for Active; 'I' for Inactive)
REMARK    1  A    between atoms: O_2  and  C_8
REMARK    2  A    between atoms: N_4  and  C_7
REMARK    3  A    between atoms: N_4  and  C_12
REMARK    4  A    between atoms: N_4  and  C_13
REMARK    5  A    between atoms: N_5  and  C_11
REMARK    6  A    between atoms: N_6  and  C_15
REMARK    7  A    between atoms: C_9  and  C_11
REMARK                            x       y       z     vdW  Elec       q    Type
REMARK                         _______ _______ _______ _____ _____    ______ ____
ROOT
ATOM      3  O   UNL     1      -6.276  -8.373  12.102  0.00  0.00    -0.253 OA
ATOM      5  N   UNL     1      -6.662 -10.622  12.480  0.00  0.00    -0.297 N 
ATOM      6  N   UNL     1      -7.818  -9.563  10.791  0.00  0.00    -0.269 N 
ATOM     14  C   UNL     1      -6.870  -9.408  11.805  0.00  0.00    +0.304 C 
ATOM     22  H   UNL     1      -7.198 -11.433  12.189  0.00  0.00    +0.150 HD
ATOM     23  H   UNL     1      -8.217 -10.491  10.678  0.00  0.00    +0.156 HD
ENDROOT
BRANCH   6  15
ATOM     15  C   UNL     1      -8.298  -8.581   9.894  0.00  0.00    +0.035 A 
ATOM     16  C   UNL     1      -9.664  -8.304   9.828  0.00  0.00    +0.023 A 
ATOM     17  C   UNL     1      -7.406  -7.888   9.075  0.00  0.00    +0.023 A 
ATOM     18  C   UNL     1     -10.138  -7.335   8.944  0.00  0.00    +0.002 A 
ATOM     19  C   UNL     1      -7.880  -6.919   8.190  0.00  0.00    +0.002 A 
ATOM     20  C   UNL     1      -9.245  -6.643   8.125  0.00  0.00    +0.000 A 
ENDBRANCH   6  15
BRANCH   5  11
ATOM     11  C   UNL     1      -5.743 -10.773  13.571  0.00  0.00    +0.140 C 
BRANCH  11   9
ATOM      1  O   UNL     1      -7.626 -10.231  14.988  0.00  0.00    -0.371 OA
ATOM      7  C   UNL     1      -6.587 -10.083  17.117  0.00  0.00    +0.113 C 
ATOM      8  C   UNL     1      -5.547 -10.482  16.087  0.00  0.00    +0.164 C 
ATOM      9  C   UNL     1      -6.217 -10.018  14.800  0.00  0.00    +0.165 C 
ATOM     10  C   UNL     1      -7.877 -10.422  16.391  0.00  0.00    +0.181 C 
BRANCH   7   4
ATOM      4  N   UNL     1      -6.450 -10.781  18.385  0.00  0.00    -0.301 NA
ATOM     12  C   UNL     1      -5.240 -10.350  19.090  0.00  0.00    +0.105 C 
ATOM     13  C   UNL     1      -7.628 -10.565  19.230  0.00  0.00    +0.105 C 
ENDBRANCH   7   4
BRANCH   8   2
ATOM      2  O   UNL     1      -4.302  -9.844  16.292  0.00  0.00    -0.388 OA
ATOM     21  H   UNL     1      -3.684 -10.153  15.608  0.00  0.00    +0.210 HD
ENDBRANCH   8   2
ENDBRANCH  11   9
ENDBRANCH   5  11
TORSDOF 5
ENDMDL
MODEL 5
REMARK VINA RESULT:      -3.2      3.527      5.802
REMARK  Name = 75536765
REMARK  7 active torsions:
REMARK  status: ('A' for Active; 'I' for Inactive)
REMARK    1  A    between atoms: O_2  and  C_8
REMARK    2  A    between atoms: N_4  and  C_7
REMARK    3  A    between atoms: N_4  and  C_12
REMARK    4  A    between atoms: N_4  and  C_13
REMARK    5  A    between atoms: N_5  and  C_11
REMARK    6  A    between atoms: N_6  and  C_15
REMARK    7  A    between atoms: C_9  and  C_11
REMARK                            x       y       z     vdW  Elec       q    Type
REMARK                         _______ _______ _______ _____ _____    ______ ____
ROOT
ATOM      3  O   UNL     1      -0.980   1.084  24.117  0.00  0.00    -0.253 OA
ATOM      5  N   UNL     1      -0.457   1.444  26.341  0.00  0.00    -0.297 N 
ATOM      6  N   UNL     1      -1.730  -0.394  25.780  0.00  0.00    -0.269 N 
ATOM     14  C   UNL     1      -1.059   0.730  25.291  0.00  0.00    +0.304 C 
ATOM     22  H   UNL     1      -0.576   1.099  27.288  0.00  0.00    +0.150 HD
ATOM     23  H   UNL     1      -1.698  -0.542  26.785  0.00  0.00    +0.156 HD
ENDROOT
BRANCH   6  15
ATOM     15  C   UNL     1      -2.455  -1.359  25.044  0.00  0.00    +0.035 A 
ATOM     16  C   UNL     1      -3.781  -1.111  24.686  0.00  0.00    +0.023 A 
ATOM     17  C   UNL     1      -1.846  -2.559  24.674  0.00  0.00    +0.023 A 
ATOM     18  C   UNL     1      -4.498  -2.062  23.960  0.00  0.00    +0.002 A 
ATOM     19  C   UNL     1      -2.563  -3.510  23.949  0.00  0.00    +0.002 A 
ATOM     20  C   UNL     1      -3.888  -3.262  23.591  0.00  0.00    +0.000 A 
ENDBRANCH   6  15
BRANCH   5  11
ATOM     11  C   UNL     1       0.303   2.645  26.148  0.00  0.00    +0.140 C 
BRANCH  11   9
ATOM      1  O   UNL     1      -0.342   4.112  24.337  0.00  0.00    -0.371 OA
ATOM      7  C   UNL     1      -2.647   4.445  24.798  0.00  0.00    +0.113 C 
ATOM      8  C   UNL     1      -2.073   3.481  25.820  0.00  0.00    +0.164 C 
ATOM      9  C   UNL     1      -0.587   3.798  25.718  0.00  0.00    +0.165 C 
ATOM     10  C   UNL     1      -1.603   4.374  23.697  0.00  0.00    +0.181 C 
BRANCH   7   4
ATOM      4  N   UNL     1      -3.979   4.084  24.339  0.00  0.00    -0.301 NA
ATOM     12  C   UNL     1      -3.936   2.873  23.515  0.00  0.00    +0.105 C 
ATOM     13  C   UNL     1      -4.887   3.889  25.473  0.00  0.00    +0.105 C 
ENDBRANCH   7   4
BRANCH   8   2
ATOM      2  O   UNL     1      -2.572   3.706  27.124  0.00  0.00    -0.388 OA
ATOM     21  H   UNL     1      -1.816   3.789  27.730  0.00  0.00    +0.210 HD
ENDBRANCH   8   2
ENDBRANCH  11   9
ENDBRANCH   5  11
TORSDOF 5
ENDMDL
MODEL 6
REMARK VINA RESULT:      -3.2     14.278     16.335
REMARK  Name = 75536765
REMARK  7 active torsions:
REMARK  status: ('A' for Active; 'I' for Inactive)
REMARK    1  A    between atoms: O_2  and  C_8
REMARK    2  A    between atoms: N_4  and  C_7
REMARK    3  A    between atoms: N_4  and  C_12
REMARK    4  A    between atoms: N_4  and  C_13
REMARK    5  A    between atoms: N_5  and  C_11
REMARK    6  A    between atoms: N_6  and  C_15
REMARK    7  A    between atoms: C_9  and  C_11
REMARK                            x       y       z     vdW  Elec       q    Type
REMARK                         _______ _______ _______ _____ _____    ______ ____
ROOT
ATOM      3  O   UNL     1      -6.362  -9.141  13.328  0.00  0.00    -0.253 OA
ATOM      5  N   UNL     1      -5.031 -10.434  14.708  0.00  0.00    -0.297 N 
ATOM      6  N   UNL     1      -4.942 -10.781  12.432  0.00  0.00    -0.269 N 
ATOM     14  C   UNL     1      -5.527 -10.033  13.457  0.00  0.00    +0.304 C 
ATOM     22  H   UNL     1      -4.352 -11.188  14.739  0.00  0.00    +0.150 HD
ATOM     23  H   UNL     1      -4.266 -11.487  12.712  0.00  0.00    +0.156 HD
ENDROOT
BRANCH   6  15
ATOM     15  C   UNL     1      -5.177 -10.680  11.041  0.00  0.00    +0.035 A 
ATOM     16  C   UNL     1      -4.110 -10.479  10.166  0.00  0.00    +0.023 A 
ATOM     17  C   UNL     1      -6.477 -10.780  10.543  0.00  0.00    +0.023 A 
ATOM     18  C   UNL     1      -4.340 -10.379   8.794  0.00  0.00    +0.002 A 
ATOM     19  C   UNL     1      -6.708 -10.680   9.171  0.00  0.00    +0.002 A 
ATOM     20  C   UNL     1      -5.640 -10.480   8.297  0.00  0.00    +0.000 A 
ENDBRANCH   6  15
BRANCH   5  11
ATOM     11  C   UNL     1      -5.446  -9.845  15.949  0.00  0.00    +0.140 C 
BRANCH  11   9
ATOM      1  O   UNL     1      -6.433 -10.594  18.026  0.00  0.00    -0.371 OA
ATOM      7  C   UNL     1      -8.740 -10.627  17.467  0.00  0.00    +0.113 C 
ATOM      8  C   UNL     1      -7.951 -10.114  16.277  0.00  0.00    +0.164 C 
ATOM      9  C   UNL     1      -6.561 -10.649  16.595  0.00  0.00    +0.165 C 
ATOM     10  C   UNL     1      -7.743 -10.432  18.597  0.00  0.00    +0.181 C 
BRANCH   7   4
ATOM      4  N   UNL     1      -9.990  -9.918  17.687  0.00  0.00    -0.301 NA
ATOM     12  C   UNL     1     -10.500 -10.169  19.039  0.00  0.00    +0.105 C 
ATOM     13  C   UNL     1      -9.819  -8.478  17.473  0.00  0.00    +0.105 C 
ENDBRANCH   7   4
BRANCH   8   2
ATOM      2  O   UNL     1      -8.436 -10.610  15.045  0.00  0.00    -0.388 OA
ATOM     21  H   UNL     1      -8.858  -9.877  14.565  0.00  0.00    +0.210 HD
ENDBRANCH   8   2
ENDBRANCH  11   9
ENDBRANCH   5  11
TORSDOF 5
ENDMDL
MODEL 7
REMARK VINA RESULT:      -3.1     14.517     17.303
REMARK  Name = 75536765
REMARK  7 active torsions:
REMARK  status: ('A' for Active; 'I' for Inactive)
REMARK    1  A    between atoms: O_2  and  C_8
REMARK    2  A    between atoms: N_4  and  C_7
REMARK    3  A    between atoms: N_4  and  C_12
REMARK    4  A    between atoms: N_4  and  C_13
REMARK    5  A    between atoms: N_5  and  C_11
REMARK    6  A    between atoms: N_6  and  C_15
REMARK    7  A    between atoms: C_9  and  C_11
REMARK                            x       y       z     vdW  Elec       q    Type
REMARK                         _______ _______ _______ _____ _____    ______ ____
ROOT
ATOM      3  O   UNL     1      -6.815  -8.566  12.309  0.00  0.00    -0.253 OA
ATOM      5  N   UNL     1      -5.295 -10.308  12.254  0.00  0.00    -0.297 N 
ATOM      6  N   UNL     1      -6.871 -10.153  10.580  0.00  0.00    -0.269 N 
ATOM     14  C   UNL     1      -6.383  -9.574  11.755  0.00  0.00    +0.304 C 
ATOM     22  H   UNL     1      -5.001 -11.139  11.750  0.00  0.00    +0.150 HD
ATOM     23  H   UNL     1      -6.398 -10.992  10.255  0.00  0.00    +0.156 HD
ENDROOT
BRANCH   6  15
ATOM     15  C   UNL     1      -7.952  -9.715   9.781  0.00  0.00    +0.035 A 
ATOM     16  C   UNL     1      -9.170 -10.394   9.822  0.00  0.00    +0.023 A 
ATOM     17  C   UNL     1      -7.801  -8.603   8.951  0.00  0.00    +0.023 A 
ATOM     18  C   UNL     1     -10.237  -9.962   9.034  0.00  0.00    +0.002 A 
ATOM     19  C   UNL     1      -8.868  -8.172   8.163  0.00  0.00    +0.002 A 
ATOM     20  C   UNL     1     -10.086  -8.850   8.205  0.00  0.00    +0.000 A 
ENDBRANCH   6  15
BRANCH   5  11
ATOM     11  C   UNL     1      -4.585  -9.956  13.449  0.00  0.00    +0.140 C 
BRANCH  11   9
ATOM      1  O   UNL     1      -4.051 -10.779  15.659  0.00  0.00    -0.371 OA
ATOM      7  C   UNL     1      -6.188 -10.772  16.694  0.00  0.00    +0.113 C 
ATOM      8  C   UNL     1      -6.319 -10.219  15.287  0.00  0.00    +0.164 C 
ATOM      9  C   UNL     1      -5.060 -10.776  14.636  0.00  0.00    +0.165 C 
ATOM     10  C   UNL     1      -4.695 -10.631  16.937  0.00  0.00    +0.181 C 
BRANCH   7   4
ATOM      4  N   UNL     1      -6.991 -10.064  17.677  0.00  0.00    -0.301 NA
ATOM     12  C   UNL     1      -8.384 -10.520  17.639  0.00  0.00    +0.105 C 
ATOM     13  C   UNL     1      -6.442 -10.239  19.024  0.00  0.00    +0.105 C 
ENDBRANCH   7   4
BRANCH   8   2
ATOM      2  O   UNL     1      -7.491 -10.661  14.632  0.00  0.00    -0.388 OA
ATOM     21  H   UNL     1      -8.261 -10.317  15.118  0.00  0.00    +0.210 HD
ENDBRANCH   8   2
ENDBRANCH  11   9
ENDBRANCH   5  11
TORSDOF 5
ENDMDL
MODEL 8
REMARK VINA RESULT:      -3.1      2.066      3.158
REMARK  Name = 75536765
REMARK  7 active torsions:
REMARK  status: ('A' for Active; 'I' for Inactive)
REMARK    1  A    between atoms: O_2  and  C_8
REMARK    2  A    between atoms: N_4  and  C_7
REMARK    3  A    between atoms: N_4  and  C_12
REMARK    4  A    between atoms: N_4  and  C_13
REMARK    5  A    between atoms: N_5  and  C_11
REMARK    6  A    between atoms: N_6  and  C_15
REMARK    7  A    between atoms: C_9  and  C_11
REMARK                            x       y       z     vdW  Elec       q    Type
REMARK                         _______ _______ _______ _____ _____    ______ ____
ROOT
ATOM      3  O   UNL     1       0.363  -0.613  24.235  0.00  0.00    -0.253 OA
ATOM      5  N   UNL     1      -0.555   0.809  22.659  0.00  0.00    -0.297 N 
ATOM      6  N   UNL     1       1.734   0.553  22.728  0.00  0.00    -0.269 N 
ATOM     14  C   UNL     1       0.519   0.170  23.300  0.00  0.00    +0.304 C 
ATOM     22  H   UNL     1      -0.349   1.454  21.902  0.00  0.00    +0.150 HD
ATOM     23  H   UNL     1       1.687   1.215  21.959  0.00  0.00    +0.156 HD
ENDROOT
BRANCH   6  15
ATOM     15  C   UNL     1       3.035   0.132  23.091  0.00  0.00    +0.035 A 
ATOM     16  C   UNL     1       4.102   1.029  23.027  0.00  0.00    +0.023 A 
ATOM     17  C   UNL     1       3.252  -1.180  23.513  0.00  0.00    +0.023 A 
ATOM     18  C   UNL     1       5.385   0.615  23.385  0.00  0.00    +0.002 A 
ATOM     19  C   UNL     1       4.535  -1.594  23.870  0.00  0.00    +0.002 A 
ATOM     20  C   UNL     1       5.601  -0.697  23.806  0.00  0.00    +0.000 A 
ENDBRANCH   6  15
BRANCH   5  11
ATOM     11  C   UNL     1      -1.927   0.612  23.027  0.00  0.00    +0.140 C 
BRANCH  11   9
ATOM      1  O   UNL     1      -2.146   2.784  24.068  0.00  0.00    -0.371 OA
ATOM      7  C   UNL     1      -3.953   2.411  25.561  0.00  0.00    +0.113 C 
ATOM      8  C   UNL     1      -3.705   1.146  24.761  0.00  0.00    +0.164 C 
ATOM      9  C   UNL     1      -2.272   1.371  24.297  0.00  0.00    +0.165 C 
ATOM     10  C   UNL     1      -3.247   3.452  24.709  0.00  0.00    +0.181 C 
BRANCH   7   4
ATOM      4  N   UNL     1      -5.362   2.707  25.763  0.00  0.00    -0.301 NA
ATOM     12  C   UNL     1      -5.637   4.126  25.518  0.00  0.00    +0.105 C 
ATOM     13  C   UNL     1      -6.200   1.875  24.894  0.00  0.00    +0.105 C 
ENDBRANCH   7   4
BRANCH   8   2
ATOM      2  O   UNL     1      -3.828  -0.027  25.541  0.00  0.00    -0.388 OA
ATOM     21  H   UNL     1      -3.320   0.096  26.360  0.00  0.00    +0.210 HD
ENDBRANCH   8   2
ENDBRANCH  11   9
ENDBRANCH   5  11
TORSDOF 5
ENDMDL
MODEL 9
REMARK VINA RESULT:      -2.4      1.758      3.011
REMARK  Name = 75536765
REMARK  7 active torsions:
REMARK  status: ('A' for Active; 'I' for Inactive)
REMARK    1  A    between atoms: O_2  and  C_8
REMARK    2  A    between atoms: N_4  and  C_7
REMARK    3  A    between atoms: N_4  and  C_12
REMARK    4  A    between atoms: N_4  and  C_13
REMARK    5  A    between atoms: N_5  and  C_11
REMARK    6  A    between atoms: N_6  and  C_15
REMARK    7  A    between atoms: C_9  and  C_11
REMARK                            x       y       z     vdW  Elec       q    Type
REMARK                         _______ _______ _______ _____ _____    ______ ____
ROOT
ATOM      3  O   UNL     1       1.307   1.737  24.771  0.00  0.00    -0.253 OA
ATOM      5  N   UNL     1      -0.102   1.586  22.943  0.00  0.00    -0.297 N 
ATOM      6  N   UNL     1       1.956   0.554  22.850  0.00  0.00    -0.269 N 
ATOM     14  C   UNL     1       1.093   1.324  23.633  0.00  0.00    +0.304 C 
ATOM     22  H   UNL     1      -0.204   1.224  22.000  0.00  0.00    +0.150 HD
ATOM     23  H   UNL     1       1.624   0.296  21.925  0.00  0.00    +0.156 HD
ENDROOT
BRANCH   6  15
ATOM     15  C   UNL     1       3.247   0.085  23.185  0.00  0.00    +0.035 A 
ATOM     16  C   UNL     1       4.347   0.938  23.083  0.00  0.00    +0.023 A 
ATOM     17  C   UNL     1       3.423  -1.229  23.620  0.00  0.00    +0.023 A 
ATOM     18  C   UNL     1       5.622   0.477  23.414  0.00  0.00    +0.002 A 
ATOM     19  C   UNL     1       4.697  -1.690  23.950  0.00  0.00    +0.002 A 
ATOM     20  C   UNL     1       5.796  -0.838  23.848  0.00  0.00    +0.000 A 
ENDBRANCH   6  15
BRANCH   5  11
ATOM     11  C   UNL     1      -1.181   2.354  23.494  0.00  0.00    +0.140 C 
BRANCH  11   9
ATOM      1  O   UNL     1      -2.332   0.439  24.418  0.00  0.00    -0.371 OA
ATOM      7  C   UNL     1      -4.563   1.242  24.539  0.00  0.00    +0.113 C 
ATOM      8  C   UNL     1      -3.665   2.352  24.026  0.00  0.00    +0.164 C 
ATOM      9  C   UNL     1      -2.471   1.553  23.521  0.00  0.00    +0.165 C 
ATOM     10  C   UNL     1      -3.550   0.303  25.171  0.00  0.00    +0.181 C 
BRANCH   7   4
ATOM      4  N   UNL     1      -5.575   1.697  25.478  0.00  0.00    -0.301 NA
ATOM     12  C   UNL     1      -5.197   2.984  26.069  0.00  0.00    +0.105 C 
ATOM     13  C   UNL     1      -6.882   1.808  24.824  0.00  0.00    +0.105 C 
ENDBRANCH   7   4
BRANCH   8   2
ATOM      2  O   UNL     1      -4.267   3.108  22.993  0.00  0.00    -0.388 OA
ATOM     21  H   UNL     1      -4.650   2.491  22.346  0.00  0.00    +0.210 HD
ENDBRANCH   8   2
ENDBRANCH  11   9
ENDBRANCH   5  11
TORSDOF 5
ENDMDL
MODEL 10
REMARK VINA RESULT:      -2.3     15.844     17.574
REMARK  Name = 75536765
REMARK  7 active torsions:
REMARK  status: ('A' for Active; 'I' for Inactive)
REMARK    1  A    between atoms: O_2  and  C_8
REMARK    2  A    between atoms: N_4  and  C_7
REMARK    3  A    between atoms: N_4  and  C_12
REMARK    4  A    between atoms: N_4  and  C_13
REMARK    5  A    between atoms: N_5  and  C_11
REMARK    6  A    between atoms: N_6  and  C_15
REMARK    7  A    between atoms: C_9  and  C_11
REMARK                            x       y       z     vdW  Elec       q    Type
REMARK                         _______ _______ _______ _____ _____    ______ ____
ROOT
ATOM      3  O   UNL     1      -4.570  -8.606  10.099  0.00  0.00    -0.253 OA
ATOM      5  N   UNL     1      -5.673 -10.484   9.321  0.00  0.00    -0.297 N 
ATOM      6  N   UNL     1      -4.107 -10.726  10.994  0.00  0.00    -0.269 N 
ATOM     14  C   UNL     1      -4.752  -9.820  10.148  0.00  0.00    +0.304 C 
ATOM     22  H   UNL     1      -5.760 -11.492   9.407  0.00  0.00    +0.150 HD
ATOM     23  H   UNL     1      -4.375 -11.702  10.905  0.00  0.00    +0.156 HD
ENDROOT
BRANCH   6  15
ATOM     15  C   UNL     1      -3.118 -10.452  11.966  0.00  0.00    +0.035 A 
ATOM     16  C   UNL     1      -3.343 -10.781  13.303  0.00  0.00    +0.023 A 
ATOM     17  C   UNL     1      -1.916  -9.851  11.590  0.00  0.00    +0.023 A 
ATOM     18  C   UNL     1      -2.368 -10.511  14.263  0.00  0.00    +0.002 A 
ATOM     19  C   UNL     1      -0.941  -9.581  12.550  0.00  0.00    +0.002 A 
ATOM     20  C   UNL     1      -1.167  -9.910  13.886  0.00  0.00    +0.000 A 
ENDBRANCH   6  15
BRANCH   5  11
ATOM     11  C   UNL     1      -6.486  -9.815   8.347  0.00  0.00    +0.140 C 
BRANCH  11   9
ATOM      1  O   UNL     1      -8.899  -9.973   8.331  0.00  0.00    -0.371 OA
ATOM      7  C   UNL     1      -9.410  -9.628  10.624  0.00  0.00    +0.113 C 
ATOM      8  C   UNL     1      -7.903  -9.622  10.447  0.00  0.00    +0.164 C 
ATOM      9  C   UNL     1      -7.784  -9.318   8.959  0.00  0.00    +0.165 C 
ATOM     10  C   UNL     1      -9.861 -10.313   9.345  0.00  0.00    +0.181 C 
BRANCH   7   4
ATOM      4  N   UNL     1      -9.854 -10.320  11.823  0.00  0.00    -0.301 NA
ATOM     12  C   UNL     1      -8.708 -10.773  12.618  0.00  0.00    +0.105 C 
ATOM     13  C   UNL     1     -10.719  -9.458  12.633  0.00  0.00    +0.105 C 
ENDBRANCH   7   4
BRANCH   8   2
ATOM      2  O   UNL     1      -7.264  -8.639  11.237  0.00  0.00    -0.388 OA
ATOM     21  H   UNL     1      -6.686  -8.111  10.661  0.00  0.00    +0.210 HD
ENDBRANCH   8   2
ENDBRANCH  11   9
ENDBRANCH   5  11
TORSDOF 5
ENDMDL
