MODEL 1
REMARK VINA RESULT:       0.7      0.000      0.000
REMARK  Name = 11911936
REMARK  5 active torsions:
REMARK  status: ('A' for Active; 'I' for Inactive)
REMARK    1  A    between atoms: N_4  and  C_10
REMARK    2  A    between atoms: N_5  and  C_11
REMARK    3  A    between atoms: C_14  and  C_16
REMARK    4  A    between atoms: C_15  and  C_19
REMARK    5  A    between atoms: C_19  and  C_23
REMARK                            x       y       z     vdW  Elec       q    Type
REMARK                         _______ _______ _______ _____ _____    ______ ____
ROOT
ATOM      1  O   UNL     1      12.458  -7.126  29.673  0.00  0.00    -0.370 OA
ATOM      2  O   UNL     1      13.794  -9.487  31.265  0.00  0.00    -0.370 OA
ATOM      8  C   UNL     1      14.180  -8.130  30.981  0.00  0.00    +0.175 C 
ATOM      9  C   UNL     1      13.713  -7.816  29.573  0.00  0.00    +0.171 C 
ATOM     10  C   UNL     1      13.401  -7.176  31.867  0.00  0.00    +0.166 C 
ATOM     11  C   UNL     1      13.515  -9.172  28.934  0.00  0.00    +0.130 C 
ATOM     12  C   UNL     1      12.138  -6.908  31.055  0.00  0.00    +0.190 C 
ATOM     13  C   UNL     1      13.126 -10.036  30.120  0.00  0.00    +0.185 C 
ENDROOT
BRANCH  10   4
ATOM      4  N   UNL     1      14.174  -5.984  32.225  0.00  0.00    -0.244 N 
ATOM      6  N   UNL     1      13.600  -4.854  32.625  0.00  0.00    -0.065 NA
ATOM      7  N   UNL     1      14.583  -3.973  32.872  0.00  0.00    -0.134 NA
ATOM     22  C   UNL     1      15.527  -5.792  32.228  0.00  0.00    +0.134 A 
ATOM     23  C   UNL     1      15.811  -4.513  32.638  0.00  0.00    +0.083 A 
BRANCH  23  19
ATOM     19  C   UNL     1      17.099  -3.776  32.824  0.00  0.00    +0.062 C 
BRANCH  19  15
ATOM     15  C   UNL     1      17.372  -2.790  31.689  0.00  0.00    -0.005 C 
ATOM     20  C   UNL     1      16.518  -1.526  31.853  0.00  0.00    +0.004 C 
ATOM     21  C   UNL     1      17.117  -3.448  30.326  0.00  0.00    +0.004 C 
ATOM     26  C   UNL     1      16.734  -0.547  30.701  0.00  0.00    +0.000 C 
ATOM     27  C   UNL     1      17.333  -2.467  29.177  0.00  0.00    +0.000 C 
ATOM     29  C   UNL     1      16.489  -1.207  29.347  0.00  0.00    +0.000 C 
ENDBRANCH  19  15
ENDBRANCH  23  19
ENDBRANCH  10   4
BRANCH  11   5
ATOM      3  O   UNL     1      13.780 -10.711  26.486  0.00  0.00    -0.276 OA
ATOM      5  N   UNL     1      14.734  -9.645  28.322  0.00  0.00    -0.307 N 
ATOM     16  C   UNL     1      14.760 -10.376  27.146  0.00  0.00    +0.216 C 
ATOM     30  H   UNL     1      15.614  -9.367  28.749  0.00  0.00    +0.149 HD
BRANCH  16  14
ATOM     14  C   UNL     1      16.158 -10.718  26.717  0.00  0.00    +0.075 C 
ATOM     17  C   UNL     1      17.161  -9.789  27.403  0.00  0.00    +0.013 C 
ATOM     18  C   UNL     1      16.284 -10.702  25.192  0.00  0.00    +0.013 C 
ATOM     24  C   UNL     1      17.195  -8.389  26.794  0.00  0.00    +0.001 C 
ATOM     25  C   UNL     1      16.346  -9.294  24.601  0.00  0.00    +0.001 C 
ATOM     28  C   UNL     1      17.405  -8.437  25.285  0.00  0.00    +0.000 C 
ENDBRANCH  16  14
ENDBRANCH  11   5
TORSDOF 5
ENDMDL
MODEL 2
REMARK VINA RESULT:       3.5     17.352     19.767
REMARK  Name = 11911936
REMARK  5 active torsions:
REMARK  status: ('A' for Active; 'I' for Inactive)
REMARK    1  A    between atoms: N_4  and  C_10
REMARK    2  A    between atoms: N_5  and  C_11
REMARK    3  A    between atoms: C_14  and  C_16
REMARK    4  A    between atoms: C_15  and  C_19
REMARK    5  A    between atoms: C_19  and  C_23
REMARK                            x       y       z     vdW  Elec       q    Type
REMARK                         _______ _______ _______ _____ _____    ______ ____
ROOT
ATOM      1  O   UNL     1      -0.974   2.982  26.374  0.00  0.00    -0.370 OA
ATOM      2  O   UNL     1      -0.860   4.297  23.519  0.00  0.00    -0.370 OA
ATOM      8  C   UNL     1      -1.524   3.140  24.060  0.00  0.00    +0.175 C 
ATOM      9  C   UNL     1      -0.584   2.516  25.073  0.00  0.00    +0.171 C 
ATOM     10  C   UNL     1      -2.732   3.570  24.869  0.00  0.00    +0.166 C 
ATOM     11  C   UNL     1       0.777   3.064  24.707  0.00  0.00    +0.130 C 
ATOM     12  C   UNL     1      -2.151   3.794  26.260  0.00  0.00    +0.190 C 
ATOM     13  C   UNL     1       0.433   4.423  24.127  0.00  0.00    +0.185 C 
ENDROOT
BRANCH  10   4
ATOM      4  N   UNL     1      -3.828   2.598  24.801  0.00  0.00    -0.244 N 
ATOM      6  N   UNL     1      -5.099   2.942  24.975  0.00  0.00    -0.065 NA
ATOM      7  N   UNL     1      -5.835   1.826  24.848  0.00  0.00    -0.134 NA
ATOM     22  C   UNL     1      -3.785   1.253  24.565  0.00  0.00    +0.134 A 
ATOM     23  C   UNL     1      -5.058   0.739  24.591  0.00  0.00    +0.083 A 
BRANCH  23  19
ATOM     19  C   UNL     1      -5.591  -0.646  24.401  0.00  0.00    +0.062 C 
BRANCH  19  15
ATOM     15  C   UNL     1      -4.545  -1.717  24.706  0.00  0.00    -0.005 C 
ATOM     20  C   UNL     1      -3.452  -1.160  25.627  0.00  0.00    +0.004 C 
ATOM     21  C   UNL     1      -3.938  -2.267  23.408  0.00  0.00    +0.004 C 
ATOM     26  C   UNL     1      -2.366  -2.197  25.904  0.00  0.00    +0.000 C 
ATOM     27  C   UNL     1      -2.852  -3.303  23.689  0.00  0.00    +0.000 C 
ATOM     29  C   UNL     1      -1.771  -2.749  24.612  0.00  0.00    +0.000 C 
ENDBRANCH  19  15
ENDBRANCH  23  19
ENDBRANCH  10   4
BRANCH  11   5
ATOM      3  O   UNL     1       0.662   0.170  24.496  0.00  0.00    -0.276 OA
ATOM      5  N   UNL     1       1.432   2.229  23.729  0.00  0.00    -0.307 N 
ATOM     16  C   UNL     1       1.316   0.849  23.708  0.00  0.00    +0.216 C 
ATOM     30  H   UNL     1       1.948   2.691  22.985  0.00  0.00    +0.149 HD
BRANCH  16  14
ATOM     14  C   UNL     1       2.077   0.229  22.572  0.00  0.00    +0.075 C 
ATOM     17  C   UNL     1       2.441  -1.218  22.910  0.00  0.00    +0.013 C 
ATOM     18  C   UNL     1       3.296   1.075  22.201  0.00  0.00    +0.013 C 
ATOM     24  C   UNL     1       3.602  -1.329  23.897  0.00  0.00    +0.001 C 
ATOM     25  C   UNL     1       4.459   0.930  23.183  0.00  0.00    +0.001 C 
ATOM     28  C   UNL     1       4.815  -0.531  23.431  0.00  0.00    +0.000 C 
ENDBRANCH  16  14
ENDBRANCH  11   5
TORSDOF 5
ENDMDL
MODEL 3
REMARK VINA RESULT:       4.1     18.310     20.473
REMARK  Name = 11911936
REMARK  5 active torsions:
REMARK  status: ('A' for Active; 'I' for Inactive)
REMARK    1  A    between atoms: N_4  and  C_10
REMARK    2  A    between atoms: N_5  and  C_11
REMARK    3  A    between atoms: C_14  and  C_16
REMARK    4  A    between atoms: C_15  and  C_19
REMARK    5  A    between atoms: C_19  and  C_23
REMARK                            x       y       z     vdW  Elec       q    Type
REMARK                         _______ _______ _______ _____ _____    ______ ____
ROOT
ATOM      1  O   UNL     1      -4.902   3.337  23.512  0.00  0.00    -0.370 OA
ATOM      2  O   UNL     1      -4.984   2.787  26.608  0.00  0.00    -0.370 OA
ATOM      8  C   UNL     1      -3.933   2.810  25.625  0.00  0.00    +0.175 C 
ATOM      9  C   UNL     1      -4.504   2.236  24.343  0.00  0.00    +0.171 C 
ATOM     10  C   UNL     1      -3.579   4.244  25.281  0.00  0.00    +0.166 C 
ATOM     11  C   UNL     1      -5.717   1.454  24.792  0.00  0.00    +0.130 C 
ATOM     12  C   UNL     1      -4.544   4.573  24.147  0.00  0.00    +0.190 C 
ATOM     13  C   UNL     1      -6.166   2.228  26.018  0.00  0.00    +0.185 C 
ENDROOT
BRANCH  10   4
ATOM      4  N   UNL     1      -2.160   4.411  24.957  0.00  0.00    -0.244 N 
ATOM      6  N   UNL     1      -1.527   5.571  25.095  0.00  0.00    -0.065 NA
ATOM      7  N   UNL     1      -0.253   5.378  24.718  0.00  0.00    -0.134 NA
ATOM     22  C   UNL     1      -1.260   3.494  24.490  0.00  0.00    +0.134 A 
ATOM     23  C   UNL     1      -0.034   4.091  24.329  0.00  0.00    +0.083 A 
BRANCH  23  19
ATOM     19  C   UNL     1       1.286   3.573  23.855  0.00  0.00    +0.062 C 
BRANCH  19  15
ATOM     15  C   UNL     1       1.352   2.046  23.879  0.00  0.00    -0.005 C 
ATOM     20  C   UNL     1       2.479   1.539  22.969  0.00  0.00    +0.004 C 
ATOM     21  C   UNL     1       0.004   1.439  23.469  0.00  0.00    +0.004 C 
ATOM     26  C   UNL     1       2.531   0.014  22.935  0.00  0.00    +0.000 C 
ATOM     27  C   UNL     1       0.060  -0.086  23.434  0.00  0.00    +0.000 C 
ATOM     29  C   UNL     1       1.186  -0.588  22.536  0.00  0.00    +0.000 C 
ENDBRANCH  19  15
ENDBRANCH  23  19
ENDBRANCH  10   4
BRANCH  11   5
ATOM      3  O   UNL     1      -3.686  -0.210  23.551  0.00  0.00    -0.276 OA
ATOM      5  N   UNL     1      -5.368   0.096  25.132  0.00  0.00    -0.307 N 
ATOM     16  C   UNL     1      -4.378  -0.621  24.479  0.00  0.00    +0.216 C 
ATOM     30  H   UNL     1      -5.833  -0.324  25.933  0.00  0.00    +0.149 HD
BRANCH  16  14
ATOM     14  C   UNL     1      -4.202  -1.999  25.047  0.00  0.00    +0.075 C 
ATOM     17  C   UNL     1      -3.358  -1.938  26.323  0.00  0.00    +0.013 C 
ATOM     18  C   UNL     1      -3.626  -2.956  24.002  0.00  0.00    +0.013 C 
ATOM     24  C   UNL     1      -1.869  -1.739  26.046  0.00  0.00    +0.001 C 
ATOM     25  C   UNL     1      -2.129  -2.762  23.759  0.00  0.00    +0.001 C 
ATOM     28  C   UNL     1      -1.335  -2.772  25.060  0.00  0.00    +0.000 C 
ENDBRANCH  16  14
ENDBRANCH  11   5
TORSDOF 5
ENDMDL
MODEL 4
REMARK VINA RESULT:       4.2     17.150     19.590
REMARK  Name = 11911936
REMARK  5 active torsions:
REMARK  status: ('A' for Active; 'I' for Inactive)
REMARK    1  A    between atoms: N_4  and  C_10
REMARK    2  A    between atoms: N_5  and  C_11
REMARK    3  A    between atoms: C_14  and  C_16
REMARK    4  A    between atoms: C_15  and  C_19
REMARK    5  A    between atoms: C_19  and  C_23
REMARK                            x       y       z     vdW  Elec       q    Type
REMARK                         _______ _______ _______ _____ _____    ______ ____
ROOT
ATOM      1  O   UNL     1      -1.511  -1.138  25.681  0.00  0.00    -0.370 OA
ATOM      2  O   UNL     1      -3.593  -0.378  23.449  0.00  0.00    -0.370 OA
ATOM      8  C   UNL     1      -2.223  -0.016  23.702  0.00  0.00    +0.175 C 
ATOM      9  C   UNL     1      -2.061   0.101  25.205  0.00  0.00    +0.171 C 
ATOM     10  C   UNL     1      -1.306  -1.155  23.302  0.00  0.00    +0.166 C 
ATOM     11  C   UNL     1      -3.470   0.281  25.721  0.00  0.00    +0.130 C 
ATOM     12  C   UNL     1      -1.238  -2.001  24.569  0.00  0.00    +0.190 C 
ATOM     13  C   UNL     1      -4.290  -0.485  24.698  0.00  0.00    +0.185 C 
ENDROOT
BRANCH  10   4
ATOM      4  N   UNL     1      -0.012  -0.684  22.798  0.00  0.00    -0.244 N 
ATOM      6  N   UNL     1       0.456  -1.027  21.603  0.00  0.00    -0.065 NA
ATOM      7  N   UNL     1       1.649  -0.429  21.456  0.00  0.00    -0.134 NA
ATOM     22  C   UNL     1       0.907   0.135  23.391  0.00  0.00    +0.134 A 
ATOM     23  C   UNL     1       1.978   0.312  22.550  0.00  0.00    +0.083 A 
BRANCH  23  19
ATOM     19  C   UNL     1       3.246   1.093  22.683  0.00  0.00    +0.062 C 
BRANCH  19  15
ATOM     15  C   UNL     1       4.462   0.193  22.896  0.00  0.00    -0.005 C 
ATOM     20  C   UNL     1       4.057  -1.107  23.601  0.00  0.00    +0.004 C 
ATOM     21  C   UNL     1       5.549   0.930  23.690  0.00  0.00    +0.004 C 
ATOM     26  C   UNL     1       5.265  -2.001  23.873  0.00  0.00    +0.000 C 
ATOM     27  C   UNL     1       6.755   0.034  23.961  0.00  0.00    +0.000 C 
ATOM     29  C   UNL     1       6.347  -1.263  24.656  0.00  0.00    +0.000 C 
ENDBRANCH  19  15
ENDBRANCH  23  19
ENDBRANCH  10   4
BRANCH  11   5
ATOM      3  O   UNL     1      -6.015   1.444  24.944  0.00  0.00    -0.276 OA
ATOM      5  N   UNL     1      -3.843   1.675  25.749  0.00  0.00    -0.307 N 
ATOM     16  C   UNL     1      -5.089   2.137  25.357  0.00  0.00    +0.216 C 
ATOM     30  H   UNL     1      -3.174   2.333  26.139  0.00  0.00    +0.149 HD
BRANCH  16  14
ATOM     14  C   UNL     1      -5.220   3.625  25.511  0.00  0.00    +0.075 C 
ATOM     17  C   UNL     1      -4.849   4.324  24.201  0.00  0.00    +0.013 C 
ATOM     18  C   UNL     1      -4.404   4.128  26.702  0.00  0.00    +0.013 C 
ATOM     24  C   UNL     1      -3.343   4.369  23.952  0.00  0.00    +0.001 C 
ATOM     25  C   UNL     1      -2.902   4.195  26.427  0.00  0.00    +0.001 C 
ATOM     28  C   UNL     1      -2.593   4.956  25.143  0.00  0.00    +0.000 C 
ENDBRANCH  16  14
ENDBRANCH  11   5
TORSDOF 5
ENDMDL
