MODEL 1
REMARK VINA RESULT:       1.0      0.000      0.000
REMARK  Name = 28963083
REMARK  8 active torsions:
REMARK  status: ('A' for Active; 'I' for Inactive)
REMARK    1  A    between atoms: O_1  and  C_11
REMARK    2  A    between atoms: N_5  and  C_15
REMARK    3  A    between atoms: C_8  and  C_18
REMARK    4  A    between atoms: C_10  and  C_20
REMARK    5  A    between atoms: C_13  and  C_19
REMARK    6  A    between atoms: C_19  and  C_21
REMARK    7  A    between atoms: C_19  and  C_22
REMARK    8  A    between atoms: C_23  and  C_26
REMARK                            x       y       z     vdW  Elec       q    Type
REMARK                         _______ _______ _______ _____ _____    ______ ____
ROOT
ATOM      8  C   UNL     1      -2.947  -1.216  24.851  0.00  0.00    -0.027 C 
ATOM      9  C   UNL     1      -2.529   0.004  23.963  0.00  0.00    +0.028 C 
ATOM     10  C   UNL     1      -0.983   0.265  24.064  0.00  0.00    +0.012 C 
ATOM     11  C   UNL     1      -3.435   1.239  24.242  0.00  0.00    +0.122 C 
ATOM     12  C   UNL     1      -4.450  -1.516  24.641  0.00  0.00    +0.007 C 
ATOM     13  C   UNL     1      -4.941   0.907  24.132  0.00  0.00    +0.029 C 
ATOM     14  C   UNL     1      -2.152  -2.463  24.400  0.00  0.00    +0.009 C 
ATOM     15  C   UNL     1      -0.195  -1.019  23.681  0.00  0.00    +0.076 C 
ATOM     16  C   UNL     1      -5.343  -0.320  24.949  0.00  0.00    +0.007 C 
ATOM     17  C   UNL     1      -0.644  -2.261  24.451  0.00  0.00    +0.023 C 
ATOM     18  C   UNL     1      -2.694  -0.968  26.360  0.00  0.00    +0.011 C 
ATOM     20  C   UNL     1      -0.498   1.436  23.193  0.00  0.00    +0.010 C 
ENDROOT
BRANCH  15   5
ATOM      3  O   UNL     1       1.730  -0.261  21.689  0.00  0.00    -0.269 OA
ATOM      5  N   UNL     1       1.231  -0.851  23.875  0.00  0.00    -0.307 N 
ATOM     23  C   UNL     1       2.079  -0.481  22.846  0.00  0.00    +0.263 C 
ATOM     33  H   UNL     1       1.623  -1.068  24.788  0.00  0.00    +0.149 HD
BRANCH  23  26
ATOM      7  N   UNL     1       4.066  -1.480  23.757  0.00  0.00    -0.250 NA
ATOM     26  C   UNL     1       3.518  -0.376  23.202  0.00  0.00    +0.125 A 
ATOM     29  C   UNL     1       4.213   0.798  22.960  0.00  0.00    +0.033 A 
ATOM     30  C   UNL     1       5.558   0.841  23.310  0.00  0.00    +0.004 A 
ATOM     31  C   UNL     1       5.376  -1.400  24.086  0.00  0.00    +0.111 A 
ATOM     32  C   UNL     1       6.157  -0.274  23.884  0.00  0.00    +0.020 A 
ENDBRANCH  23  26
ENDBRANCH  15   5
BRANCH  11   1
ATOM      1  O   UNL     1      -3.168   2.252  23.271  0.00  0.00    -0.391 OA
ATOM     34  H   UNL     1      -3.967   2.374  22.732  0.00  0.00    +0.210 HD
ENDBRANCH  11   1
BRANCH  13  19
ATOM     19  C   UNL     1      -5.816   2.100  24.535  0.00  0.00    +0.078 C 
ATOM     21  C   UNL     1      -5.772   3.193  23.482  0.00  0.00    +0.017 C 
BRANCH  19  22
ATOM      2  O   UNL     1      -5.793   2.183  26.904  0.00  0.00    -0.275 OA
ATOM      4  O   UNL     1      -1.906   5.035  25.797  0.00  0.00    -0.377 OA
ATOM      6  N   UNL     1      -4.346   3.626  25.800  0.00  0.00    -0.297 N 
ATOM     22  C   UNL     1      -5.325   2.634  25.857  0.00  0.00    +0.219 C 
ATOM     24  C   UNL     1      -3.810   4.197  27.036  0.00  0.00    +0.136 C 
ATOM     25  C   UNL     1      -3.861   4.273  24.578  0.00  0.00    +0.136 C 
ATOM     27  C   UNL     1      -2.294   4.298  26.960  0.00  0.00    +0.179 C 
ATOM     28  C   UNL     1      -2.341   4.377  24.603  0.00  0.00    +0.179 C 
ENDBRANCH  19  22
ENDBRANCH  13  19
TORSDOF 5
ENDMDL
