MODEL 1
REMARK VINA RESULT:      -2.9      0.000      0.000
REMARK  Name = 11883392
REMARK  6 active torsions:
REMARK  status: ('A' for Active; 'I' for Inactive)
REMARK    1  A    between atoms: O_6  and  C_14
REMARK    2  A    between atoms: O_6  and  C_24
REMARK    3  A    between atoms: N_9  and  C_13
REMARK    4  A    between atoms: N_10  and  C_25
REMARK    5  A    between atoms: C_17  and  C_20
REMARK    6  A    between atoms: C_28  and  C_31
REMARK                            x       y       z     vdW  Elec       q    Type
REMARK                         _______ _______ _______ _____ _____    ______ ____
ROOT
ATOM      4  O   UNL     1      -1.915  -0.838  23.544  0.00  0.00    -0.368 OA
ATOM      5  O   UNL     1      -1.098  -1.071  26.491  0.00  0.00    -0.368 OA
ATOM     11  C   UNL     1      -0.382  -1.368  25.274  0.00  0.00    +0.173 C 
ATOM     12  C   UNL     1      -1.390  -1.942  24.300  0.00  0.00    +0.192 C 
ATOM     13  C   UNL     1       0.071  -0.087  24.612  0.00  0.00    +0.130 C 
ATOM     14  C   UNL     1      -2.431  -2.536  25.219  0.00  0.00    +0.235 C 
ATOM     15  C   UNL     1      -1.179   0.351  23.869  0.00  0.00    +0.185 C 
ATOM     16  C   UNL     1      -2.445  -1.549  26.364  0.00  0.00    +0.207 C 
ENDROOT
BRANCH  13   9
ATOM      7  O   UNL     1       2.012   1.844  23.643  0.00  0.00    -0.276 OA
ATOM      9  N   UNL     1       1.165  -0.325  23.705  0.00  0.00    -0.307 N 
ATOM     20  C   UNL     1       2.046   0.666  23.296  0.00  0.00    +0.216 C 
ATOM     32  H   UNL     1       1.330  -1.282  23.405  0.00  0.00    +0.149 HD
BRANCH  20  17
ATOM     17  C   UNL     1       3.105   0.143  22.371  0.00  0.00    +0.075 C 
ATOM     18  C   UNL     1       4.347   1.038  22.395  0.00  0.00    +0.013 C 
ATOM     19  C   UNL     1       3.423  -1.317  22.705  0.00  0.00    +0.013 C 
ATOM     21  C   UNL     1       5.209   0.849  23.642  0.00  0.00    +0.001 C 
ATOM     22  C   UNL     1       4.282  -1.472  23.959  0.00  0.00    +0.001 C 
ATOM     23  C   UNL     1       5.542  -0.617  23.886  0.00  0.00    +0.000 C 
ENDBRANCH  20  17
ENDBRANCH  13   9
BRANCH  14   6
ATOM      6  O   UNL     1      -3.700  -2.673  24.620  0.00  0.00    -0.442 OA
BRANCH   6  24
ATOM      8  O   UNL     1      -5.086  -1.415  23.307  0.00  0.00    -0.226 OA
ATOM     10  N   UNL     1      -4.077  -0.534  25.227  0.00  0.00    -0.251 N 
ATOM     24  C   UNL     1      -4.363  -1.509  24.291  0.00  0.00    +0.405 C 
ATOM     33  H   UNL     1      -3.450  -0.804  25.980  0.00  0.00    +0.158 HD
BRANCH  10  25
ATOM     25  C   UNL     1      -4.548   0.798  25.267  0.00  0.00    +0.037 A 
ATOM     26  C   UNL     1      -3.656   1.859  25.108  0.00  0.00    +0.035 A 
ATOM     27  C   UNL     1      -5.905   1.052  25.465  0.00  0.00    +0.023 A 
ATOM     28  C   UNL     1      -4.121   3.173  25.149  0.00  0.00    +0.057 A 
ATOM     29  C   UNL     1      -6.371   2.366  25.504  0.00  0.00    +0.002 A 
ATOM     30  C   UNL     1      -5.479   3.427  25.346  0.00  0.00    +0.012 A 
BRANCH  28  31
ATOM      1  F   UNL     1      -2.965   5.028  26.123  0.00  0.00    -0.166 F 
ATOM      2  F   UNL     1      -1.922   3.919  24.579  0.00  0.00    -0.166 F 
ATOM      3  F   UNL     1      -3.588   5.211  24.047  0.00  0.00    -0.166 F 
ATOM     31  C   UNL     1      -3.168   4.308  24.980  0.00  0.00    +0.417 C 
ENDBRANCH  28  31
ENDBRANCH  10  25
ENDBRANCH   6  24
ENDBRANCH  14   6
TORSDOF 6
ENDMDL
MODEL 2
REMARK VINA RESULT:      -1.5      3.500      7.296
REMARK  Name = 11883392
REMARK  6 active torsions:
REMARK  status: ('A' for Active; 'I' for Inactive)
REMARK    1  A    between atoms: O_6  and  C_14
REMARK    2  A    between atoms: O_6  and  C_24
REMARK    3  A    between atoms: N_9  and  C_13
REMARK    4  A    between atoms: N_10  and  C_25
REMARK    5  A    between atoms: C_17  and  C_20
REMARK    6  A    between atoms: C_28  and  C_31
REMARK                            x       y       z     vdW  Elec       q    Type
REMARK                         _______ _______ _______ _____ _____    ______ ____
ROOT
ATOM      4  O   UNL     1      -2.132  -0.025  23.482  0.00  0.00    -0.368 OA
ATOM      5  O   UNL     1      -4.746  -1.369  24.358  0.00  0.00    -0.368 OA
ATOM     11  C   UNL     1      -4.087  -0.170  24.818  0.00  0.00    +0.173 C 
ATOM     12  C   UNL     1      -2.597  -0.445  24.776  0.00  0.00    +0.192 C 
ATOM     13  C   UNL     1      -4.277   0.944  23.815  0.00  0.00    +0.130 C 
ATOM     14  C   UNL     1      -2.537  -1.947  24.932  0.00  0.00    +0.235 C 
ATOM     15  C   UNL     1      -3.198   0.642  22.789  0.00  0.00    +0.185 C 
ATOM     16  C   UNL     1      -3.761  -2.395  24.166  0.00  0.00    +0.207 C 
ENDROOT
BRANCH  13   9
ATOM      7  O   UNL     1      -5.817   2.137  25.968  0.00  0.00    -0.276 OA
ATOM      9  N   UNL     1      -4.077   2.235  24.423  0.00  0.00    -0.307 N 
ATOM     20  C   UNL     1      -4.869   2.722  25.453  0.00  0.00    +0.216 C 
ATOM     32  H   UNL     1      -3.275   2.781  24.120  0.00  0.00    +0.149 HD
BRANCH  20  17
ATOM     17  C   UNL     1      -4.428   4.079  25.919  0.00  0.00    +0.075 C 
ATOM     18  C   UNL     1      -3.316   3.967  26.965  0.00  0.00    +0.013 C 
ATOM     19  C   UNL     1      -4.030   4.944  24.722  0.00  0.00    +0.013 C 
ATOM     21  C   UNL     1      -1.952   3.626  26.367  0.00  0.00    +0.001 C 
ATOM     22  C   UNL     1      -2.664   4.575  24.145  0.00  0.00    +0.001 C 
ATOM     23  C   UNL     1      -1.584   4.560  25.221  0.00  0.00    +0.000 C 
ENDBRANCH  20  17
ENDBRANCH  13   9
BRANCH  14   6
ATOM      6  O   UNL     1      -1.353  -2.519  24.424  0.00  0.00    -0.442 OA
BRANCH   6  24
ATOM      8  O   UNL     1       0.341  -1.854  25.809  0.00  0.00    -0.226 OA
ATOM     10  N   UNL     1       0.288  -1.243  23.550  0.00  0.00    -0.251 N 
ATOM     24  C   UNL     1      -0.174  -1.858  24.698  0.00  0.00    +0.405 C 
ATOM     33  H   UNL     1      -0.282  -1.362  22.716  0.00  0.00    +0.158 HD
BRANCH  10  25
ATOM     25  C   UNL     1       1.458  -0.466  23.389  0.00  0.00    +0.037 A 
ATOM     26  C   UNL     1       2.710  -1.031  23.630  0.00  0.00    +0.035 A 
ATOM     27  C   UNL     1       1.359   0.867  22.989  0.00  0.00    +0.023 A 
ATOM     28  C   UNL     1       3.863  -0.263  23.473  0.00  0.00    +0.057 A 
ATOM     29  C   UNL     1       2.513   1.635  22.831  0.00  0.00    +0.002 A 
ATOM     30  C   UNL     1       3.765   1.070  23.073  0.00  0.00    +0.012 A 
BRANCH  28  31
ATOM      1  F   UNL     1       5.705  -0.578  24.968  0.00  0.00    -0.166 F 
ATOM      2  F   UNL     1       5.212  -2.230  23.653  0.00  0.00    -0.166 F 
ATOM      3  F   UNL     1       6.149  -0.442  22.843  0.00  0.00    -0.166 F 
ATOM     31  C   UNL     1       5.203  -0.866  23.731  0.00  0.00    +0.417 C 
ENDBRANCH  28  31
ENDBRANCH  10  25
ENDBRANCH   6  24
ENDBRANCH  14   6
TORSDOF 6
ENDMDL
MODEL 3
REMARK VINA RESULT:       0.1     15.045     17.866
REMARK  Name = 11883392
REMARK  6 active torsions:
REMARK  status: ('A' for Active; 'I' for Inactive)
REMARK    1  A    between atoms: O_6  and  C_14
REMARK    2  A    between atoms: O_6  and  C_24
REMARK    3  A    between atoms: N_9  and  C_13
REMARK    4  A    between atoms: N_10  and  C_25
REMARK    5  A    between atoms: C_17  and  C_20
REMARK    6  A    between atoms: C_28  and  C_31
REMARK                            x       y       z     vdW  Elec       q    Type
REMARK                         _______ _______ _______ _____ _____    ______ ____
ROOT
ATOM      4  O   UNL     1      -5.656  -9.537  11.135  0.00  0.00    -0.368 OA
ATOM      5  O   UNL     1      -7.336  -9.467   8.570  0.00  0.00    -0.368 OA
ATOM     11  C   UNL     1      -7.535 -10.152   9.825  0.00  0.00    +0.173 C 
ATOM     12  C   UNL     1      -6.167 -10.594  10.305  0.00  0.00    +0.192 C 
ATOM     13  C   UNL     1      -7.992  -9.175  10.883  0.00  0.00    +0.130 C 
ATOM     14  C   UNL     1      -5.391 -10.717   9.015  0.00  0.00    +0.235 C 
ATOM     15  C   UNL     1      -6.681  -8.552  11.334  0.00  0.00    +0.185 C 
ATOM     16  C   UNL     1      -5.955  -9.579   8.195  0.00  0.00    +0.207 C 
ENDROOT
BRANCH  13   9
ATOM      7  O   UNL     1      -7.160  -9.278  13.663  0.00  0.00    -0.276 OA
ATOM      9  N   UNL     1      -8.653  -9.853  11.970  0.00  0.00    -0.307 N 
ATOM     20  C   UNL     1      -8.177  -9.846  13.273  0.00  0.00    +0.216 C 
ATOM     32  H   UNL     1      -9.543 -10.301  11.775  0.00  0.00    +0.149 HD
BRANCH  20  17
ATOM     17  C   UNL     1      -9.068 -10.606  14.211  0.00  0.00    +0.075 C 
ATOM     18  C   UNL     1      -8.459 -10.676  15.613  0.00  0.00    +0.013 C 
ATOM     19  C   UNL     1     -10.475 -10.004  14.206  0.00  0.00    +0.013 C 
ATOM     21  C   UNL     1      -8.588  -9.371  16.398  0.00  0.00    +0.001 C 
ATOM     22  C   UNL     1     -10.570  -8.699  14.994  0.00  0.00    +0.001 C 
ATOM     23  C   UNL     1     -10.022  -8.855  16.409  0.00  0.00    +0.000 C 
ENDBRANCH  20  17
ENDBRANCH  13   9
BRANCH  14   6
ATOM      6  O   UNL     1      -3.996 -10.610   9.184  0.00  0.00    -0.442 OA
BRANCH   6  24
ATOM      8  O   UNL     1      -4.147 -10.781  11.460  0.00  0.00    -0.226 OA
ATOM     10  N   UNL     1      -2.334  -9.722  10.424  0.00  0.00    -0.251 N 
ATOM     24  C   UNL     1      -3.538 -10.399  10.468  0.00  0.00    +0.405 C 
ATOM     33  H   UNL     1      -1.984  -9.489   9.498  0.00  0.00    +0.158 HD
BRANCH  10  25
ATOM     25  C   UNL     1      -1.528  -9.309  11.508  0.00  0.00    +0.037 A 
ATOM     26  C   UNL     1      -1.766  -9.812  12.787  0.00  0.00    +0.035 A 
ATOM     27  C   UNL     1      -0.493  -8.397  11.300  0.00  0.00    +0.023 A 
ATOM     28  C   UNL     1      -0.971  -9.404  13.857  0.00  0.00    +0.057 A 
ATOM     29  C   UNL     1       0.304  -7.989  12.370  0.00  0.00    +0.002 A 
ATOM     30  C   UNL     1       0.065  -8.493  13.649  0.00  0.00    +0.012 A 
BRANCH  28  31
ATOM      1  F   UNL     1      -2.308 -10.771  15.296  0.00  0.00    -0.166 F 
ATOM      2  F   UNL     1      -0.186 -10.672  15.727  0.00  0.00    -0.166 F 
ATOM      3  F   UNL     1      -1.457  -8.956  16.141  0.00  0.00    -0.166 F 
ATOM     31  C   UNL     1      -1.225  -9.941  15.225  0.00  0.00    +0.417 C 
ENDBRANCH  28  31
ENDBRANCH  10  25
ENDBRANCH   6  24
ENDBRANCH  14   6
TORSDOF 6
ENDMDL
MODEL 4
REMARK VINA RESULT:       0.2      3.050      5.718
REMARK  Name = 11883392
REMARK  6 active torsions:
REMARK  status: ('A' for Active; 'I' for Inactive)
REMARK    1  A    between atoms: O_6  and  C_14
REMARK    2  A    between atoms: O_6  and  C_24
REMARK    3  A    between atoms: N_9  and  C_13
REMARK    4  A    between atoms: N_10  and  C_25
REMARK    5  A    between atoms: C_17  and  C_20
REMARK    6  A    between atoms: C_28  and  C_31
REMARK                            x       y       z     vdW  Elec       q    Type
REMARK                         _______ _______ _______ _____ _____    ______ ____
ROOT
ATOM      4  O   UNL     1      -4.088   1.569  23.297  0.00  0.00    -0.368 OA
ATOM      5  O   UNL     1      -6.171   2.697  25.244  0.00  0.00    -0.368 OA
ATOM     11  C   UNL     1      -4.729   2.718  25.270  0.00  0.00    +0.173 C 
ATOM     12  C   UNL     1      -4.260   1.388  24.712  0.00  0.00    +0.192 C 
ATOM     13  C   UNL     1      -4.206   3.731  24.278  0.00  0.00    +0.130 C 
ATOM     14  C   UNL     1      -5.423   0.476  25.023  0.00  0.00    +0.235 C 
ATOM     15  C   UNL     1      -4.256   2.957  22.971  0.00  0.00    +0.185 C 
ATOM     16  C   UNL     1      -6.609   1.394  24.831  0.00  0.00    +0.207 C 
ENDROOT
BRANCH  13   9
ATOM      7  O   UNL     1      -3.009   3.931  26.915  0.00  0.00    -0.276 OA
ATOM      9  N   UNL     1      -2.860   4.132  24.600  0.00  0.00    -0.307 N 
ATOM     20  C   UNL     1      -2.375   4.198  25.897  0.00  0.00    +0.216 C 
ATOM     32  H   UNL     1      -2.224   4.312  23.828  0.00  0.00    +0.149 HD
BRANCH  20  17
ATOM     17  C   UNL     1      -0.935   4.618  25.949  0.00  0.00    +0.075 C 
ATOM     18  C   UNL     1      -0.065   3.525  26.573  0.00  0.00    +0.013 C 
ATOM     19  C   UNL     1      -0.457   5.032  24.556  0.00  0.00    +0.013 C 
ATOM     21  C   UNL     1       0.213   2.356  25.628  0.00  0.00    +0.001 C 
ATOM     22  C   UNL     1      -0.193   3.842  23.635  0.00  0.00    +0.001 C 
ATOM     23  C   UNL     1       0.745   2.828  24.281  0.00  0.00    +0.000 C 
ENDBRANCH  20  17
ENDBRANCH  13   9
BRANCH  14   6
ATOM      6  O   UNL     1      -5.488  -0.658  24.188  0.00  0.00    -0.442 OA
BRANCH   6  24
ATOM      8  O   UNL     1      -4.323  -2.527  23.570  0.00  0.00    -0.226 OA
ATOM     10  N   UNL     1      -3.261  -0.682  24.545  0.00  0.00    -0.251 N 
ATOM     24  C   UNL     1      -4.334  -1.403  24.057  0.00  0.00    +0.405 C 
ATOM     33  H   UNL     1      -3.471   0.243  24.912  0.00  0.00    +0.158 HD
BRANCH  10  25
ATOM     25  C   UNL     1      -1.904  -1.073  24.600  0.00  0.00    +0.037 A 
ATOM     26  C   UNL     1      -0.978  -0.505  23.726  0.00  0.00    +0.035 A 
ATOM     27  C   UNL     1      -1.490  -2.027  25.530  0.00  0.00    +0.023 A 
ATOM     28  C   UNL     1       0.361  -0.891  23.780  0.00  0.00    +0.057 A 
ATOM     29  C   UNL     1      -0.151  -2.413  25.585  0.00  0.00    +0.002 A 
ATOM     30  C   UNL     1       0.775  -1.845  24.710  0.00  0.00    +0.012 A 
BRANCH  28  31
ATOM      1  F   UNL     1       1.589   1.040  23.079  0.00  0.00    -0.166 F 
ATOM      2  F   UNL     1       2.581  -0.879  22.889  0.00  0.00    -0.166 F 
ATOM      3  F   UNL     1       0.956  -0.360  21.540  0.00  0.00    -0.166 F 
ATOM     31  C   UNL     1       1.352  -0.285  22.844  0.00  0.00    +0.417 C 
ENDBRANCH  28  31
ENDBRANCH  10  25
ENDBRANCH   6  24
ENDBRANCH  14   6
TORSDOF 6
ENDMDL
MODEL 5
REMARK VINA RESULT:       0.9      3.103      4.856
REMARK  Name = 11883392
REMARK  6 active torsions:
REMARK  status: ('A' for Active; 'I' for Inactive)
REMARK    1  A    between atoms: O_6  and  C_14
REMARK    2  A    between atoms: O_6  and  C_24
REMARK    3  A    between atoms: N_9  and  C_13
REMARK    4  A    between atoms: N_10  and  C_25
REMARK    5  A    between atoms: C_17  and  C_20
REMARK    6  A    between atoms: C_28  and  C_31
REMARK                            x       y       z     vdW  Elec       q    Type
REMARK                         _______ _______ _______ _____ _____    ______ ____
ROOT
ATOM      4  O   UNL     1      -2.782   2.839  23.912  0.00  0.00    -0.368 OA
ATOM      5  O   UNL     1      -1.775   5.066  25.764  0.00  0.00    -0.368 OA
ATOM     11  C   UNL     1      -1.354   3.695  25.600  0.00  0.00    +0.173 C 
ATOM     12  C   UNL     1      -2.605   2.880  25.338  0.00  0.00    +0.192 C 
ATOM     13  C   UNL     1      -0.552   3.547  24.328  0.00  0.00    +0.130 C 
ATOM     14  C   UNL     1      -3.678   3.702  26.012  0.00  0.00    +0.235 C 
ATOM     15  C   UNL     1      -1.639   3.428  23.274  0.00  0.00    +0.185 C 
ATOM     16  C   UNL     1      -3.209   5.115  25.749  0.00  0.00    +0.207 C 
ENDROOT
BRANCH  13   9
ATOM      7  O   UNL     1      -0.840   1.140  22.729  0.00  0.00    -0.276 OA
ATOM      9  N   UNL     1       0.275   2.367  24.366  0.00  0.00    -0.307 N 
ATOM     20  C   UNL     1       0.058   1.260  23.559  0.00  0.00    +0.216 C 
ATOM     32  H   UNL     1       1.091   2.381  24.971  0.00  0.00    +0.149 HD
BRANCH  20  17
ATOM     17  C   UNL     1       1.079   0.182  23.782  0.00  0.00    +0.075 C 
ATOM     18  C   UNL     1       1.026  -0.865  22.666  0.00  0.00    +0.013 C 
ATOM     19  C   UNL     1       2.469   0.799  23.949  0.00  0.00    +0.013 C 
ATOM     21  C   UNL     1       1.668  -0.395  21.361  0.00  0.00    +0.001 C 
ATOM     22  C   UNL     1       3.081   1.262  22.628  0.00  0.00    +0.001 C 
ATOM     23  C   UNL     1       3.073   0.151  21.584  0.00  0.00    +0.000 C 
ENDBRANCH  20  17
ENDBRANCH  13   9
BRANCH  14   6
ATOM      6  O   UNL     1      -4.971   3.467  25.502  0.00  0.00    -0.442 OA
BRANCH   6  24
ATOM      8  O   UNL     1      -6.365   1.840  24.703  0.00  0.00    -0.226 OA
ATOM     10  N   UNL     1      -4.106   1.414  25.151  0.00  0.00    -0.251 N 
ATOM     24  C   UNL     1      -5.251   2.185  25.078  0.00  0.00    +0.405 C 
ATOM     33  H   UNL     1      -3.270   1.882  25.490  0.00  0.00    +0.158 HD
BRANCH  10  25
ATOM     25  C   UNL     1      -3.953   0.050  24.813  0.00  0.00    +0.037 A 
ATOM     26  C   UNL     1      -2.733  -0.590  25.029  0.00  0.00    +0.035 A 
ATOM     27  C   UNL     1      -5.023  -0.656  24.262  0.00  0.00    +0.023 A 
ATOM     28  C   UNL     1      -2.582  -1.935  24.693  0.00  0.00    +0.057 A 
ATOM     29  C   UNL     1      -4.873  -2.002  23.928  0.00  0.00    +0.002 A 
ATOM     30  C   UNL     1      -3.652  -2.641  24.144  0.00  0.00    +0.012 A 
BRANCH  28  31
ATOM      1  F   UNL     1      -0.324  -1.814  25.476  0.00  0.00    -0.166 F 
ATOM      2  F   UNL     1      -1.365  -3.693  25.764  0.00  0.00    -0.166 F 
ATOM      3  F   UNL     1      -0.727  -3.103  23.771  0.00  0.00    -0.166 F 
ATOM     31  C   UNL     1      -1.278  -2.620  24.924  0.00  0.00    +0.417 C 
ENDBRANCH  28  31
ENDBRANCH  10  25
ENDBRANCH   6  24
ENDBRANCH  14   6
TORSDOF 6
ENDMDL
