MODEL 1
REMARK VINA RESULT:      -3.7      0.000      0.000
REMARK  Name = 40777567
REMARK  9 active torsions:
REMARK  status: ('A' for Active; 'I' for Inactive)
REMARK    1  A    between atoms: N_2  and  C_8
REMARK    2  A    between atoms: N_2  and  C_14
REMARK    3  A    between atoms: N_3  and  C_16
REMARK    4  A    between atoms: C_6  and  C_9
REMARK    5  A    between atoms: C_12  and  C_15
REMARK    6  A    between atoms: C_13  and  C_17
REMARK    7  A    between atoms: C_14  and  C_18
REMARK    8  A    between atoms: C_16  and  C_19
REMARK    9  A    between atoms: C_19  and  C_24
REMARK                            x       y       z     vdW  Elec       q    Type
REMARK                         _______ _______ _______ _____ _____    ______ ____
ROOT
ATOM      6  C   UNL     1      -2.120   1.337  23.614  0.00  0.00    +0.047 C 
ATOM      7  C   UNL     1      -2.705   1.951  24.900  0.00  0.00    +0.035 C 
ATOM      8  C   UNL     1      -3.991   2.681  24.481  0.00  0.00    +0.078 C 
ATOM     10  C   UNL     1      -2.743   2.187  22.545  0.00  0.00    -0.021 C 
ATOM     11  C   UNL     1      -3.764   2.909  23.018  0.00  0.00    -0.012 C 
ENDROOT
BRANCH   6   9
ATOM      3  N   UNL     1       1.483   0.760  23.299  0.00  0.00    -0.267 N 
ATOM      4  N   UNL     1       1.560   1.936  23.943  0.00  0.00    -0.176 NA
ATOM      9  C   UNL     1      -0.609   1.309  23.599  0.00  0.00    +0.003 A 
ATOM     12  C   UNL     1       0.206   0.340  23.068  0.00  0.00    +0.040 A 
ATOM     13  C   UNL     1       0.279   2.267  24.123  0.00  0.00    +0.064 A 
ATOM     15  C   UNL     1      -0.108  -0.925  22.376  0.00  0.00    +0.065 C 
ATOM     17  C   UNL     1      -0.054   3.526  24.813  0.00  0.00    +0.068 C 
BRANCH   3  16
ATOM     16  C   UNL     1       2.702   0.079  22.926  0.00  0.00    +0.158 C 
BRANCH  16  19
ATOM     19  C   UNL     1       3.920   1.004  22.860  0.00  0.00    +0.141 C 
BRANCH  19  24
ATOM      5  N   UNL     1       6.103  -0.161  23.755  0.00  0.00    -0.197 NA
ATOM     24  C   UNL     1       5.140   0.354  23.360  0.00  0.00    +0.064 C 
ENDBRANCH  19  24
ENDBRANCH  16  19
ENDBRANCH   3  16
ENDBRANCH   6   9
BRANCH   8   2
ATOM      2  N   UNL     1      -5.182   1.872  24.716  0.00  0.00    -0.306 NA
ATOM     26  H   UNL     1      -5.444   1.401  23.851  0.00  0.00    +0.123 HD
BRANCH   2  14
ATOM     14  C   UNL     1      -4.938   0.869  25.745  0.00  0.00    +0.117 C 
BRANCH  14  18
ATOM      1 CL   UNL     1      -0.734  -2.210  25.743  0.00  0.00    -0.084 Cl
ATOM     18  C   UNL     1      -4.226  -0.338  25.195  0.00  0.00    -0.032 A 
ATOM     20  C   UNL     1      -2.958  -0.675  25.669  0.00  0.00    +0.025 A 
ATOM     21  C   UNL     1      -4.835  -1.120  24.213  0.00  0.00    +0.005 A 
ATOM     22  C   UNL     1      -2.299  -1.795  25.161  0.00  0.00    +0.041 A 
ATOM     23  C   UNL     1      -4.176  -2.239  23.705  0.00  0.00    +0.002 A 
ATOM     25  C   UNL     1      -2.908  -2.576  24.179  0.00  0.00    +0.020 A 
ENDBRANCH  14  18
ENDBRANCH   2  14
ENDBRANCH   8   2
TORSDOF 7
ENDMDL
MODEL 2
REMARK VINA RESULT:      -3.7      1.879      3.476
REMARK  Name = 40777567
REMARK  9 active torsions:
REMARK  status: ('A' for Active; 'I' for Inactive)
REMARK    1  A    between atoms: N_2  and  C_8
REMARK    2  A    between atoms: N_2  and  C_14
REMARK    3  A    between atoms: N_3  and  C_16
REMARK    4  A    between atoms: C_6  and  C_9
REMARK    5  A    between atoms: C_12  and  C_15
REMARK    6  A    between atoms: C_13  and  C_17
REMARK    7  A    between atoms: C_14  and  C_18
REMARK    8  A    between atoms: C_16  and  C_19
REMARK    9  A    between atoms: C_19  and  C_24
REMARK                            x       y       z     vdW  Elec       q    Type
REMARK                         _______ _______ _______ _____ _____    ______ ____
ROOT
ATOM      6  C   UNL     1      -2.015   0.551  25.101  0.00  0.00    +0.047 C 
ATOM      7  C   UNL     1      -3.133   0.471  24.045  0.00  0.00    +0.035 C 
ATOM      8  C   UNL     1      -4.178  -0.510  24.601  0.00  0.00    +0.078 C 
ATOM     10  C   UNL     1      -2.197  -0.733  25.856  0.00  0.00    -0.021 C 
ATOM     11  C   UNL     1      -3.377  -1.303  25.587  0.00  0.00    -0.012 C 
ENDROOT
BRANCH   6   9
ATOM      3  N   UNL     1       1.240   0.484  23.422  0.00  0.00    -0.267 N 
ATOM      4  N   UNL     1       1.363   1.703  23.972  0.00  0.00    -0.176 NA
ATOM      9  C   UNL     1      -0.641   0.743  24.502  0.00  0.00    +0.003 A 
ATOM     12  C   UNL     1       0.058  -0.134  23.710  0.00  0.00    +0.040 A 
ATOM     13  C   UNL     1       0.212   1.856  24.631  0.00  0.00    +0.064 A 
ATOM     15  C   UNL     1      -0.285  -1.478  23.207  0.00  0.00    +0.065 C 
ATOM     17  C   UNL     1      -0.035   3.101  25.380  0.00  0.00    +0.068 C 
BRANCH   3  16
ATOM     16  C   UNL     1       2.319  -0.039  22.615  0.00  0.00    +0.158 C 
BRANCH  16  19
ATOM     19  C   UNL     1       3.534   0.891  22.549  0.00  0.00    +0.141 C 
BRANCH  19  24
ATOM      5  N   UNL     1       5.643  -0.139  23.738  0.00  0.00    -0.197 NA
ATOM     24  C   UNL     1       4.712   0.315  23.213  0.00  0.00    +0.064 C 
ENDBRANCH  19  24
ENDBRANCH  16  19
ENDBRANCH   3  16
ENDBRANCH   6   9
BRANCH   8   2
ATOM      2  N   UNL     1      -5.288   0.180  25.248  0.00  0.00    -0.306 NA
ATOM     26  H   UNL     1      -4.999   0.484  26.177  0.00  0.00    +0.123 HD
BRANCH   2  14
ATOM     14  C   UNL     1      -5.700   1.346  24.476  0.00  0.00    +0.117 C 
BRANCH  14  18
ATOM      1 CL   UNL     1      -3.196   4.533  27.751  0.00  0.00    -0.084 Cl
ATOM     18  C   UNL     1      -4.768   2.512  24.679  0.00  0.00    -0.032 A 
ATOM     20  C   UNL     1      -4.450   2.933  25.970  0.00  0.00    +0.025 A 
ATOM     21  C   UNL     1      -4.222   3.169  23.576  0.00  0.00    +0.005 A 
ATOM     22  C   UNL     1      -3.586   4.011  26.158  0.00  0.00    +0.041 A 
ATOM     23  C   UNL     1      -3.358   4.247  23.765  0.00  0.00    +0.002 A 
ATOM     25  C   UNL     1      -3.040   4.668  25.055  0.00  0.00    +0.020 A 
ENDBRANCH  14  18
ENDBRANCH   2  14
ENDBRANCH   8   2
TORSDOF 7
ENDMDL
MODEL 3
REMARK VINA RESULT:      -3.6      2.171      4.040
REMARK  Name = 40777567
REMARK  9 active torsions:
REMARK  status: ('A' for Active; 'I' for Inactive)
REMARK    1  A    between atoms: N_2  and  C_8
REMARK    2  A    between atoms: N_2  and  C_14
REMARK    3  A    between atoms: N_3  and  C_16
REMARK    4  A    between atoms: C_6  and  C_9
REMARK    5  A    between atoms: C_12  and  C_15
REMARK    6  A    between atoms: C_13  and  C_17
REMARK    7  A    between atoms: C_14  and  C_18
REMARK    8  A    between atoms: C_16  and  C_19
REMARK    9  A    between atoms: C_19  and  C_24
REMARK                            x       y       z     vdW  Elec       q    Type
REMARK                         _______ _______ _______ _____ _____    ______ ____
ROOT
ATOM      6  C   UNL     1      -2.229   0.549  24.862  0.00  0.00    +0.047 C 
ATOM      7  C   UNL     1      -3.332   0.518  23.788  0.00  0.00    +0.035 C 
ATOM      8  C   UNL     1      -4.574  -0.086  24.463  0.00  0.00    +0.078 C 
ATOM     10  C   UNL     1      -2.699  -0.500  25.829  0.00  0.00    -0.021 C 
ATOM     11  C   UNL     1      -3.976  -0.836  25.614  0.00  0.00    -0.012 C 
ENDROOT
BRANCH   6   9
ATOM      3  N   UNL     1       1.193   0.567  23.556  0.00  0.00    -0.267 N 
ATOM      4  N   UNL     1       0.989  -0.758  23.466  0.00  0.00    -0.176 NA
ATOM      9  C   UNL     1      -0.844   0.317  24.304  0.00  0.00    +0.003 A 
ATOM     12  C   UNL     1       0.125   1.256  24.052  0.00  0.00    +0.040 A 
ATOM     13  C   UNL     1      -0.257  -0.904  23.924  0.00  0.00    +0.064 A 
ATOM     15  C   UNL     1       0.134   2.721  24.235  0.00  0.00    +0.065 C 
ATOM     17  C   UNL     1      -0.855  -2.250  23.982  0.00  0.00    +0.068 C 
BRANCH   3  16
ATOM     16  C   UNL     1       2.463   1.115  23.140  0.00  0.00    +0.158 C 
BRANCH  16  19
ATOM     19  C   UNL     1       3.409   0.070  22.541  0.00  0.00    +0.141 C 
BRANCH  19  24
ATOM      5  N   UNL     1       5.775   0.094  23.692  0.00  0.00    -0.197 NA
ATOM     24  C   UNL     1       4.731   0.084  23.184  0.00  0.00    +0.064 C 
ENDBRANCH  19  24
ENDBRANCH  16  19
ENDBRANCH   3  16
ENDBRANCH   6   9
BRANCH   8   2
ATOM      2  N   UNL     1      -5.503   0.940  24.921  0.00  0.00    -0.306 NA
ATOM     26  H   UNL     1      -5.385   1.077  25.924  0.00  0.00    +0.123 HD
BRANCH   2  14
ATOM     14  C   UNL     1      -5.261   2.206  24.239  0.00  0.00    +0.117 C 
BRANCH  14  18
ATOM      1 CL   UNL     1      -1.288   5.577  24.332  0.00  0.00    -0.084 Cl
ATOM     18  C   UNL     1      -4.357   3.109  25.035  0.00  0.00    -0.032 A 
ATOM     20  C   UNL     1      -3.359   3.839  24.390  0.00  0.00    +0.025 A 
ATOM     21  C   UNL     1      -4.517   3.215  26.417  0.00  0.00    +0.005 A 
ATOM     22  C   UNL     1      -2.522   4.677  25.127  0.00  0.00    +0.041 A 
ATOM     23  C   UNL     1      -3.680   4.052  27.153  0.00  0.00    +0.002 A 
ATOM     25  C   UNL     1      -2.682   4.783  26.508  0.00  0.00    +0.020 A 
ENDBRANCH  14  18
ENDBRANCH   2  14
ENDBRANCH   8   2
TORSDOF 7
ENDMDL
MODEL 4
REMARK VINA RESULT:      -2.4      1.272      2.195
REMARK  Name = 40777567
REMARK  9 active torsions:
REMARK  status: ('A' for Active; 'I' for Inactive)
REMARK    1  A    between atoms: N_2  and  C_8
REMARK    2  A    between atoms: N_2  and  C_14
REMARK    3  A    between atoms: N_3  and  C_16
REMARK    4  A    between atoms: C_6  and  C_9
REMARK    5  A    between atoms: C_12  and  C_15
REMARK    6  A    between atoms: C_13  and  C_17
REMARK    7  A    between atoms: C_14  and  C_18
REMARK    8  A    between atoms: C_16  and  C_19
REMARK    9  A    between atoms: C_19  and  C_24
REMARK                            x       y       z     vdW  Elec       q    Type
REMARK                         _______ _______ _______ _____ _____    ______ ____
ROOT
ATOM      6  C   UNL     1      -1.983   1.228  24.142  0.00  0.00    +0.047 C 
ATOM      7  C   UNL     1      -2.164   2.254  25.277  0.00  0.00    +0.035 C 
ATOM      8  C   UNL     1      -3.429   3.057  24.931  0.00  0.00    +0.078 C 
ATOM     10  C   UNL     1      -2.756   1.857  23.019  0.00  0.00    -0.021 C 
ATOM     11  C   UNL     1      -3.546   2.845  23.454  0.00  0.00    -0.012 C 
ENDROOT
BRANCH   6   9
ATOM      3  N   UNL     1       1.601   1.099  23.399  0.00  0.00    -0.267 N 
ATOM      4  N   UNL     1       1.377  -0.224  23.359  0.00  0.00    -0.176 NA
ATOM      9  C   UNL     1      -0.535   0.936  23.827  0.00  0.00    +0.003 A 
ATOM     12  C   UNL     1       0.489   1.839  23.676  0.00  0.00    +0.040 A 
ATOM     13  C   UNL     1       0.071  -0.318  23.620  0.00  0.00    +0.064 A 
ATOM     15  C   UNL     1       0.510   3.312  23.768  0.00  0.00    +0.065 C 
ATOM     17  C   UNL     1      -0.567  -1.646  23.664  0.00  0.00    +0.068 C 
BRANCH   3  16
ATOM     16  C   UNL     1       2.937   1.596  23.158  0.00  0.00    +0.158 C 
BRANCH  16  19
ATOM     19  C   UNL     1       3.852   0.573  22.480  0.00  0.00    +0.141 C 
BRANCH  19  24
ATOM      5  N   UNL     1       5.761  -0.268  24.083  0.00  0.00    -0.197 NA
ATOM     24  C   UNL     1       4.919   0.102  23.376  0.00  0.00    +0.064 C 
ENDBRANCH  19  24
ENDBRANCH  16  19
ENDBRANCH   3  16
ENDBRANCH   6   9
BRANCH   8   2
ATOM      2  N   UNL     1      -4.604   2.559  25.636  0.00  0.00    -0.306 NA
ATOM     26  H   UNL     1      -5.246   3.331  25.807  0.00  0.00    +0.123 HD
BRANCH   2  14
ATOM     14  C   UNL     1      -5.289   1.538  24.853  0.00  0.00    +0.117 C 
BRANCH  14  18
ATOM      1 CL   UNL     1      -4.307  -3.199  22.915  0.00  0.00    -0.084 Cl
ATOM     18  C   UNL     1      -4.659   0.181  25.025  0.00  0.00    -0.032 A 
ATOM     20  C   UNL     1      -4.763  -0.769  24.009  0.00  0.00    +0.025 A 
ATOM     21  C   UNL     1      -3.971  -0.124  26.199  0.00  0.00    +0.005 A 
ATOM     22  C   UNL     1      -4.178  -2.025  24.168  0.00  0.00    +0.041 A 
ATOM     23  C   UNL     1      -3.387  -1.380  26.358  0.00  0.00    +0.002 A 
ATOM     25  C   UNL     1      -3.490  -2.331  25.342  0.00  0.00    +0.020 A 
ENDBRANCH  14  18
ENDBRANCH   2  14
ENDBRANCH   8   2
TORSDOF 7
ENDMDL
MODEL 5
REMARK VINA RESULT:      -2.1     13.842     16.431
REMARK  Name = 40777567
REMARK  9 active torsions:
REMARK  status: ('A' for Active; 'I' for Inactive)
REMARK    1  A    between atoms: N_2  and  C_8
REMARK    2  A    between atoms: N_2  and  C_14
REMARK    3  A    between atoms: N_3  and  C_16
REMARK    4  A    between atoms: C_6  and  C_9
REMARK    5  A    between atoms: C_12  and  C_15
REMARK    6  A    between atoms: C_13  and  C_17
REMARK    7  A    between atoms: C_14  and  C_18
REMARK    8  A    between atoms: C_16  and  C_19
REMARK    9  A    between atoms: C_19  and  C_24
REMARK                            x       y       z     vdW  Elec       q    Type
REMARK                         _______ _______ _______ _____ _____    ______ ____
ROOT
ATOM      6  C   UNL     1      -5.558 -10.781  16.168  0.00  0.00    +0.047 C 
ATOM      7  C   UNL     1      -5.580  -9.891  14.911  0.00  0.00    +0.035 C 
ATOM      8  C   UNL     1      -4.125  -9.462  14.663  0.00  0.00    +0.078 C 
ATOM     10  C   UNL     1      -4.286 -10.352  16.839  0.00  0.00    -0.021 C 
ATOM     11  C   UNL     1      -3.507  -9.642  16.015  0.00  0.00    -0.012 C 
ENDROOT
BRANCH   6   9
ATOM      3  N   UNL     1      -8.853 -10.409  17.724  0.00  0.00    -0.267 N 
ATOM      4  N   UNL     1      -8.143 -10.501  18.860  0.00  0.00    -0.176 NA
ATOM      9  C   UNL     1      -6.799 -10.643  17.019  0.00  0.00    +0.003 A 
ATOM     12  C   UNL     1      -8.095 -10.488  16.592  0.00  0.00    +0.040 A 
ATOM     13  C   UNL     1      -6.890 -10.645  18.424  0.00  0.00    +0.064 A 
ATOM     15  C   UNL     1      -8.672 -10.410  15.236  0.00  0.00    +0.065 C 
ATOM     17  C   UNL     1      -5.793 -10.781  19.399  0.00  0.00    +0.068 C 
BRANCH   3  16
ATOM     16  C   UNL     1     -10.287 -10.241  17.799  0.00  0.00    +0.158 C 
BRANCH  16  19
ATOM     19  C   UNL     1     -10.711  -8.865  18.317  0.00  0.00    +0.141 C 
BRANCH  19  24
ATOM      5  N   UNL     1     -10.463  -6.992  16.486  0.00  0.00    -0.197 NA
ATOM     24  C   UNL     1     -10.572  -7.818  17.295  0.00  0.00    +0.064 C 
ENDBRANCH  19  24
ENDBRANCH  16  19
ENDBRANCH   3  16
ENDBRANCH   6   9
BRANCH   8   2
ATOM      2  N   UNL     1      -3.470 -10.296  13.662  0.00  0.00    -0.306 NA
ATOM     26  H   UNL     1      -3.044 -11.100  14.121  0.00  0.00    +0.123 HD
BRANCH   2  14
ATOM     14  C   UNL     1      -4.427 -10.770  12.670  0.00  0.00    +0.117 C 
BRANCH  14  18
ATOM      1 CL   UNL     1      -7.091  -8.010   9.142  0.00  0.00    -0.084 Cl
ATOM     18  C   UNL     1      -4.419  -9.915  11.430  0.00  0.00    -0.032 A 
ATOM     20  C   UNL     1      -5.618  -9.417  10.920  0.00  0.00    +0.025 A 
ATOM     21  C   UNL     1      -3.214  -9.620  10.793  0.00  0.00    +0.005 A 
ATOM     22  C   UNL     1      -5.612  -8.623   9.773  0.00  0.00    +0.041 A 
ATOM     23  C   UNL     1      -3.208  -8.828   9.646  0.00  0.00    +0.002 A 
ATOM     25  C   UNL     1      -4.406  -8.329   9.136  0.00  0.00    +0.020 A 
ENDBRANCH  14  18
ENDBRANCH   2  14
ENDBRANCH   8   2
TORSDOF 7
ENDMDL
MODEL 6
REMARK VINA RESULT:      -2.0      2.007      4.184
REMARK  Name = 40777567
REMARK  9 active torsions:
REMARK  status: ('A' for Active; 'I' for Inactive)
REMARK    1  A    between atoms: N_2  and  C_8
REMARK    2  A    between atoms: N_2  and  C_14
REMARK    3  A    between atoms: N_3  and  C_16
REMARK    4  A    between atoms: C_6  and  C_9
REMARK    5  A    between atoms: C_12  and  C_15
REMARK    6  A    between atoms: C_13  and  C_17
REMARK    7  A    between atoms: C_14  and  C_18
REMARK    8  A    between atoms: C_16  and  C_19
REMARK    9  A    between atoms: C_19  and  C_24
REMARK                            x       y       z     vdW  Elec       q    Type
REMARK                         _______ _______ _______ _____ _____    ______ ____
ROOT
ATOM      6  C   UNL     1      -3.111   0.910  25.020  0.00  0.00    +0.047 C 
ATOM      7  C   UNL     1      -3.655   1.775  23.868  0.00  0.00    +0.035 C 
ATOM      8  C   UNL     1      -5.140   2.022  24.181  0.00  0.00    +0.078 C 
ATOM     10  C   UNL     1      -4.361   0.281  25.563  0.00  0.00    -0.021 C 
ATOM     11  C   UNL     1      -5.460   0.893  25.111  0.00  0.00    -0.012 C 
ENDROOT
BRANCH   6   9
ATOM      3  N   UNL     1      -0.207  -0.997  23.857  0.00  0.00    -0.267 N 
ATOM      4  N   UNL     1      -1.010  -2.047  24.094  0.00  0.00    -0.176 NA
ATOM      9  C   UNL     1      -2.049  -0.071  24.580  0.00  0.00    +0.003 A 
ATOM     12  C   UNL     1      -0.782   0.210  24.132  0.00  0.00    +0.040 A 
ATOM     13  C   UNL     1      -2.134  -1.476  24.536  0.00  0.00    +0.064 A 
ATOM     15  C   UNL     1      -0.077   1.493  23.943  0.00  0.00    +0.065 C 
ATOM     17  C   UNL     1      -3.280  -2.324  24.909  0.00  0.00    +0.068 C 
BRANCH   3  16
ATOM     16  C   UNL     1       1.128  -1.229  23.356  0.00  0.00    +0.158 C 
BRANCH  16  19
ATOM     19  C   UNL     1       1.545  -0.247  22.258  0.00  0.00    +0.141 C 
BRANCH  19  24
ATOM      5  N   UNL     1       3.938   0.761  22.680  0.00  0.00    -0.197 NA
ATOM     24  C   UNL     1       2.882   0.316  22.493  0.00  0.00    +0.064 C 
ENDBRANCH  19  24
ENDBRANCH  16  19
ENDBRANCH   3  16
ENDBRANCH   6   9
BRANCH   8   2
ATOM      2  N   UNL     1      -5.356   3.316  24.819  0.00  0.00    -0.306 NA
ATOM     26  H   UNL     1      -6.345   3.418  25.046  0.00  0.00    +0.123 HD
BRANCH   2  14
ATOM     14  C   UNL     1      -4.575   3.432  26.044  0.00  0.00    +0.117 C 
BRANCH  14  18
ATOM      1 CL   UNL     1       0.537   2.768  26.808  0.00  0.00    -0.084 Cl
ATOM     18  C   UNL     1      -3.163   3.878  25.770  0.00  0.00    -0.032 A 
ATOM     20  C   UNL     1      -2.093   3.196  26.348  0.00  0.00    +0.025 A 
ATOM     21  C   UNL     1      -2.926   4.971  24.937  0.00  0.00    +0.005 A 
ATOM     22  C   UNL     1      -0.785   3.607  26.093  0.00  0.00    +0.041 A 
ATOM     23  C   UNL     1      -1.619   5.383  24.682  0.00  0.00    +0.002 A 
ATOM     25  C   UNL     1      -0.548   4.701  25.260  0.00  0.00    +0.020 A 
ENDBRANCH  14  18
ENDBRANCH   2  14
ENDBRANCH   8   2
TORSDOF 7
ENDMDL
MODEL 7
REMARK VINA RESULT:      -2.0      2.719      5.183
REMARK  Name = 40777567
REMARK  9 active torsions:
REMARK  status: ('A' for Active; 'I' for Inactive)
REMARK    1  A    between atoms: N_2  and  C_8
REMARK    2  A    between atoms: N_2  and  C_14
REMARK    3  A    between atoms: N_3  and  C_16
REMARK    4  A    between atoms: C_6  and  C_9
REMARK    5  A    between atoms: C_12  and  C_15
REMARK    6  A    between atoms: C_13  and  C_17
REMARK    7  A    between atoms: C_14  and  C_18
REMARK    8  A    between atoms: C_16  and  C_19
REMARK    9  A    between atoms: C_19  and  C_24
REMARK                            x       y       z     vdW  Elec       q    Type
REMARK                         _______ _______ _______ _____ _____    ______ ____
ROOT
ATOM      6  C   UNL     1      -1.279   2.131  24.273  0.00  0.00    +0.047 C 
ATOM      7  C   UNL     1      -1.271   2.839  25.640  0.00  0.00    +0.035 C 
ATOM      8  C   UNL     1      -0.679   4.237  25.396  0.00  0.00    +0.078 C 
ATOM     10  C   UNL     1      -0.232   2.893  23.514  0.00  0.00    -0.021 C 
ATOM     11  C   UNL     1       0.085   4.040  24.124  0.00  0.00    -0.012 C 
ENDROOT
BRANCH   6   9
ATOM      3  N   UNL     1      -1.179  -1.491  24.812  0.00  0.00    -0.267 N 
ATOM      4  N   UNL     1      -0.040  -1.397  24.106  0.00  0.00    -0.176 NA
ATOM      9  C   UNL     1      -1.033   0.643  24.369  0.00  0.00    +0.003 A 
ATOM     12  C   UNL     1      -1.812  -0.297  24.998  0.00  0.00    +0.040 A 
ATOM     13  C   UNL     1       0.044  -0.092  23.838  0.00  0.00    +0.064 A 
ATOM     15  C   UNL     1      -3.079  -0.171  25.745  0.00  0.00    +0.065 C 
ATOM     17  C   UNL     1       1.188   0.416  23.060  0.00  0.00    +0.068 C 
BRANCH   3  16
ATOM     16  C   UNL     1      -1.610  -2.785  25.288  0.00  0.00    +0.158 C 
BRANCH  16  19
ATOM     19  C   UNL     1      -2.510  -3.528  24.298  0.00  0.00    +0.141 C 
BRANCH  19  24
ATOM      5  N   UNL     1      -4.663  -2.148  23.680  0.00  0.00    -0.197 NA
ATOM     24  C   UNL     1      -3.713  -2.757  23.953  0.00  0.00    +0.064 C 
ENDBRANCH  19  24
ENDBRANCH  16  19
ENDBRANCH   3  16
ENDBRANCH   6   9
BRANCH   8   2
ATOM      2  N   UNL     1      -1.716   5.251  25.244  0.00  0.00    -0.306 NA
ATOM     26  H   UNL     1      -2.051   5.248  24.281  0.00  0.00    +0.123 HD
BRANCH   2  14
ATOM     14  C   UNL     1      -2.838   4.991  26.136  0.00  0.00    +0.117 C 
BRANCH  14  18
ATOM      1 CL   UNL     1      -6.677   1.539  26.853  0.00  0.00    -0.084 Cl
ATOM     18  C   UNL     1      -3.807   4.000  25.546  0.00  0.00    -0.032 A 
ATOM     20  C   UNL     1      -4.690   3.310  26.376  0.00  0.00    +0.025 A 
ATOM     21  C   UNL     1      -3.821   3.774  24.169  0.00  0.00    +0.005 A 
ATOM     22  C   UNL     1      -5.588   2.394  25.829  0.00  0.00    +0.041 A 
ATOM     23  C   UNL     1      -4.719   2.858  23.623  0.00  0.00    +0.002 A 
ATOM     25  C   UNL     1      -5.603   2.168  24.452  0.00  0.00    +0.020 A 
ENDBRANCH  14  18
ENDBRANCH   2  14
ENDBRANCH   8   2
TORSDOF 7
ENDMDL
MODEL 8
REMARK VINA RESULT:      -1.7     13.421     16.118
REMARK  Name = 40777567
REMARK  9 active torsions:
REMARK  status: ('A' for Active; 'I' for Inactive)
REMARK    1  A    between atoms: N_2  and  C_8
REMARK    2  A    between atoms: N_2  and  C_14
REMARK    3  A    between atoms: N_3  and  C_16
REMARK    4  A    between atoms: C_6  and  C_9
REMARK    5  A    between atoms: C_12  and  C_15
REMARK    6  A    between atoms: C_13  and  C_17
REMARK    7  A    between atoms: C_14  and  C_18
REMARK    8  A    between atoms: C_16  and  C_19
REMARK    9  A    between atoms: C_19  and  C_24
REMARK                            x       y       z     vdW  Elec       q    Type
REMARK                         _______ _______ _______ _____ _____    ______ ____
ROOT
ATOM      6  C   UNL     1      -5.397 -10.779  16.316  0.00  0.00    +0.047 C 
ATOM      7  C   UNL     1      -4.779  -9.687  15.424  0.00  0.00    +0.035 C 
ATOM      8  C   UNL     1      -3.311  -9.556  15.859  0.00  0.00    +0.078 C 
ATOM     10  C   UNL     1      -4.475 -10.781  17.501  0.00  0.00    -0.021 C 
ATOM     11  C   UNL     1      -3.339 -10.122  17.246  0.00  0.00    -0.012 C 
ENDROOT
BRANCH   6   9
ATOM      3  N   UNL     1      -9.005 -10.190  16.541  0.00  0.00    -0.267 N 
ATOM      4  N   UNL     1      -8.750 -10.158  17.860  0.00  0.00    -0.176 NA
ATOM      9  C   UNL     1      -6.850 -10.529  16.647  0.00  0.00    +0.003 A 
ATOM     12  C   UNL     1      -7.901 -10.409  15.771  0.00  0.00    +0.040 A 
ATOM     13  C   UNL     1      -7.433 -10.366  17.918  0.00  0.00    +0.064 A 
ATOM     15  C   UNL     1      -7.954 -10.482  14.298  0.00  0.00    +0.065 C 
ATOM     17  C   UNL     1      -6.762 -10.400  19.231  0.00  0.00    +0.068 C 
BRANCH   3  16
ATOM     16  C   UNL     1     -10.361  -9.998  16.080  0.00  0.00    +0.158 C 
BRANCH  16  19
ATOM     19  C   UNL     1     -10.544  -8.732  15.239  0.00  0.00    +0.141 C 
BRANCH  19  24
ATOM      5  N   UNL     1     -10.665  -6.562  16.722  0.00  0.00    -0.197 NA
ATOM     24  C   UNL     1     -10.611  -7.519  16.068  0.00  0.00    +0.064 C 
ENDBRANCH  19  24
ENDBRANCH  16  19
ENDBRANCH   3  16
ENDBRANCH   6   9
BRANCH   8   2
ATOM      2  N   UNL     1      -2.413 -10.312  14.994  0.00  0.00    -0.306 NA
ATOM     26  H   UNL     1      -2.054 -11.118  15.503  0.00  0.00    +0.123 HD
BRANCH   2  14
ATOM     14  C   UNL     1      -3.108 -10.778  13.800  0.00  0.00    +0.117 C 
BRANCH  14  18
ATOM      1 CL   UNL     1       0.679  -8.139  11.381  0.00  0.00    -0.084 Cl
ATOM     18  C   UNL     1      -2.608 -10.093  12.556  0.00  0.00    -0.032 A 
ATOM     20  C   UNL     1      -1.344  -9.503  12.546  0.00  0.00    +0.025 A 
ATOM     21  C   UNL     1      -3.408 -10.049  11.414  0.00  0.00    +0.005 A 
ATOM     22  C   UNL     1      -0.880  -8.869  11.393  0.00  0.00    +0.041 A 
ATOM     23  C   UNL     1      -2.944  -9.415  10.262  0.00  0.00    +0.002 A 
ATOM     25  C   UNL     1      -1.680  -8.825  10.251  0.00  0.00    +0.020 A 
ENDBRANCH  14  18
ENDBRANCH   2  14
ENDBRANCH   8   2
TORSDOF 7
ENDMDL
MODEL 9
REMARK VINA RESULT:      -1.7      1.972      3.293
REMARK  Name = 40777567
REMARK  9 active torsions:
REMARK  status: ('A' for Active; 'I' for Inactive)
REMARK    1  A    between atoms: N_2  and  C_8
REMARK    2  A    between atoms: N_2  and  C_14
REMARK    3  A    between atoms: N_3  and  C_16
REMARK    4  A    between atoms: C_6  and  C_9
REMARK    5  A    between atoms: C_12  and  C_15
REMARK    6  A    between atoms: C_13  and  C_17
REMARK    7  A    between atoms: C_14  and  C_18
REMARK    8  A    between atoms: C_16  and  C_19
REMARK    9  A    between atoms: C_19  and  C_24
REMARK                            x       y       z     vdW  Elec       q    Type
REMARK                         _______ _______ _______ _____ _____    ______ ____
ROOT
ATOM      6  C   UNL     1      -0.832   1.832  24.411  0.00  0.00    +0.047 C 
ATOM      7  C   UNL     1      -0.660   2.257  25.882  0.00  0.00    +0.035 C 
ATOM      8  C   UNL     1      -0.919   3.772  25.924  0.00  0.00    +0.078 C 
ATOM     10  C   UNL     1      -0.613   3.125  23.679  0.00  0.00    -0.021 C 
ATOM     11  C   UNL     1      -0.669   4.176  24.504  0.00  0.00    -0.012 C 
ENDROOT
BRANCH   6   9
ATOM      3  N   UNL     1       1.781  -0.463  23.261  0.00  0.00    -0.267 N 
ATOM      4  N   UNL     1       0.893  -1.399  23.638  0.00  0.00    -0.176 NA
ATOM      9  C   UNL     1       0.094   0.710  24.001  0.00  0.00    +0.003 A 
ATOM     12  C   UNL     1       1.350   0.816  23.457  0.00  0.00    +0.040 A 
ATOM     13  C   UNL     1      -0.135  -0.676  24.089  0.00  0.00    +0.064 A 
ATOM     15  C   UNL     1       2.167   1.997  23.113  0.00  0.00    +0.065 C 
ATOM     17  C   UNL     1      -1.333  -1.363  24.604  0.00  0.00    +0.068 C 
BRANCH   3  16
ATOM     16  C   UNL     1       3.050  -0.877  22.707  0.00  0.00    +0.158 C 
BRANCH  16  19
ATOM     19  C   UNL     1       4.085  -1.251  23.772  0.00  0.00    +0.141 C 
BRANCH  19  24
ATOM      5  N   UNL     1       6.028   0.516  23.932  0.00  0.00    -0.197 NA
ATOM     24  C   UNL     1       5.170  -0.264  23.862  0.00  0.00    +0.064 C 
ENDBRANCH  19  24
ENDBRANCH  16  19
ENDBRANCH   3  16
ENDBRANCH   6   9
BRANCH   8   2
ATOM      2  N   UNL     1      -2.284   4.082  26.335  0.00  0.00    -0.306 NA
ATOM     26  H   UNL     1      -2.293   4.979  26.819  0.00  0.00    +0.123 HD
BRANCH   2  14
ATOM     14  C   UNL     1      -3.172   4.157  25.182  0.00  0.00    +0.117 C 
BRANCH  14  18
ATOM      1 CL   UNL     1      -4.447  -0.778  24.096  0.00  0.00    -0.084 Cl
ATOM     18  C   UNL     1      -4.204   3.060  25.196  0.00  0.00    -0.032 A 
ATOM     20  C   UNL     1      -3.885   1.797  24.698  0.00  0.00    +0.025 A 
ATOM     21  C   UNL     1      -5.478   3.307  25.709  0.00  0.00    +0.005 A 
ATOM     22  C   UNL     1      -4.839   0.781  24.713  0.00  0.00    +0.041 A 
ATOM     23  C   UNL     1      -6.432   2.291  25.723  0.00  0.00    +0.002 A 
ATOM     25  C   UNL     1      -6.113   1.027  25.225  0.00  0.00    +0.020 A 
ENDBRANCH  14  18
ENDBRANCH   2  14
ENDBRANCH   8   2
TORSDOF 7
ENDMDL
MODEL 10
REMARK VINA RESULT:      -1.4     14.953     17.681
REMARK  Name = 40777567
REMARK  9 active torsions:
REMARK  status: ('A' for Active; 'I' for Inactive)
REMARK    1  A    between atoms: N_2  and  C_8
REMARK    2  A    between atoms: N_2  and  C_14
REMARK    3  A    between atoms: N_3  and  C_16
REMARK    4  A    between atoms: C_6  and  C_9
REMARK    5  A    between atoms: C_12  and  C_15
REMARK    6  A    between atoms: C_13  and  C_17
REMARK    7  A    between atoms: C_14  and  C_18
REMARK    8  A    between atoms: C_16  and  C_19
REMARK    9  A    between atoms: C_19  and  C_24
REMARK                            x       y       z     vdW  Elec       q    Type
REMARK                         _______ _______ _______ _____ _____    ______ ____
ROOT
ATOM      6  C   UNL     1      -5.624  -9.659  11.896  0.00  0.00    +0.047 C 
ATOM      7  C   UNL     1      -4.715  -8.418  11.814  0.00  0.00    +0.035 C 
ATOM      8  C   UNL     1      -3.474  -8.848  11.016  0.00  0.00    +0.078 C 
ATOM     10  C   UNL     1      -4.652 -10.780  11.669  0.00  0.00    -0.021 C 
ATOM     11  C   UNL     1      -3.488 -10.336  11.183  0.00  0.00    -0.012 C 
ENDROOT
BRANCH   6   9
ATOM      3  N   UNL     1      -6.979  -9.916  15.290  0.00  0.00    -0.267 N 
ATOM      4  N   UNL     1      -8.155  -9.812  14.650  0.00  0.00    -0.176 NA
ATOM      9  C   UNL     1      -6.399  -9.747  13.191  0.00  0.00    +0.003 A 
ATOM     12  C   UNL     1      -5.896  -9.882  14.461  0.00  0.00    +0.040 A 
ATOM     13  C   UNL     1      -7.795  -9.709  13.369  0.00  0.00    +0.064 A 
ATOM     15  C   UNL     1      -4.508  -9.980  14.955  0.00  0.00    +0.065 C 
ATOM     17  C   UNL     1      -8.834  -9.574  12.332  0.00  0.00    +0.068 C 
BRANCH   3  16
ATOM     16  C   UNL     1      -6.968 -10.048  16.729  0.00  0.00    +0.158 C 
BRANCH  16  19
ATOM     19  C   UNL     1      -8.362 -10.239  17.333  0.00  0.00    +0.141 C 
BRANCH  19  24
ATOM      5  N   UNL     1      -9.564  -7.947  17.805  0.00  0.00    -0.197 NA
ATOM     24  C   UNL     1      -9.033  -8.958  17.597  0.00  0.00    +0.064 C 
ENDBRANCH  19  24
ENDBRANCH  16  19
ENDBRANCH   3  16
ENDBRANCH   6   9
BRANCH   8   2
ATOM      2  N   UNL     1      -3.567  -8.468   9.611  0.00  0.00    -0.306 NA
ATOM     26  H   UNL     1      -2.653  -8.158   9.285  0.00  0.00    +0.123 HD
BRANCH   2  14
ATOM     14  C   UNL     1      -4.005  -9.593   8.794  0.00  0.00    +0.117 C 
BRANCH  14  18
ATOM      1 CL   UNL     1      -8.417  -6.863   8.310  0.00  0.00    -0.084 Cl
ATOM     18  C   UNL     1      -5.494  -9.581   8.574  0.00  0.00    -0.032 A 
ATOM     20  C   UNL     1      -6.185  -8.369   8.547  0.00  0.00    +0.025 A 
ATOM     21  C   UNL     1      -6.183 -10.781   8.397  0.00  0.00    +0.005 A 
ATOM     22  C   UNL     1      -7.564  -8.358   8.341  0.00  0.00    +0.041 A 
ATOM     23  C   UNL     1      -7.562 -10.769   8.192  0.00  0.00    +0.002 A 
ATOM     25  C   UNL     1      -8.253  -9.558   8.164  0.00  0.00    +0.020 A 
ENDBRANCH  14  18
ENDBRANCH   2  14
ENDBRANCH   8   2
TORSDOF 7
ENDMDL
