MODEL 1
REMARK VINA RESULT:      -5.4      0.000      0.000
REMARK  Name = 56773974
REMARK  12 active torsions:
REMARK  status: ('A' for Active; 'I' for Inactive)
REMARK    1  A    between atoms: O_2  and  C_20
REMARK    2  A    between atoms: N_3  and  C_7
REMARK    3  A    between atoms: N_3  and  C_12
REMARK    4  A    between atoms: N_3  and  C_13
REMARK    5  A    between atoms: C_5  and  C_10
REMARK    6  A    between atoms: C_5  and  C_11
REMARK    7  A    between atoms: C_6  and  C_9
REMARK    8  A    between atoms: C_9  and  C_14
REMARK    9  A    between atoms: C_12  and  C_15
REMARK   10  A    between atoms: C_13  and  C_16
REMARK   11  A    between atoms: C_18  and  C_19
REMARK   12  A    between atoms: C_19  and  C_20
REMARK                            x       y       z     vdW  Elec       q    Type
REMARK                         _______ _______ _______ _____ _____    ______ ____
ROOT
ATOM      5  C   UNL     1      -1.487   2.055  23.938  0.00  0.00    -0.016 C 
ATOM      6  C   UNL     1      -0.920   0.698  24.404  0.00  0.00    +0.004 C 
ATOM      7  C   UNL     1      -2.474   1.962  25.120  0.00  0.00    +0.063 C 
ATOM      8  C   UNL     1      -2.297   0.431  25.048  0.00  0.00    +0.024 C 
ATOM     10  C   UNL     1      -2.201   2.042  22.597  0.00  0.00    +0.013 C 
ATOM     11  C   UNL     1      -0.474   3.179  23.960  0.00  0.00    +0.013 C 
ENDROOT
BRANCH   7   3
ATOM      3  N   UNL     1      -3.844   2.305  24.700  0.00  0.00    -0.299 NA
BRANCH   3  12
ATOM     12  C   UNL     1      -4.166   3.652  25.169  0.00  0.00    +0.081 C 
ATOM     15  C   UNL     1      -3.204   4.100  26.256  0.00  0.00    +0.020 C 
ENDBRANCH   3  12
BRANCH   3  13
ATOM     13  C   UNL     1      -4.776   1.328  25.261  0.00  0.00    +0.081 C 
ATOM     16  C   UNL     1      -6.214   1.799  25.122  0.00  0.00    +0.020 C 
ENDBRANCH   3  13
ENDBRANCH   7   3
BRANCH   6   9
ATOM      9  C   UNL     1      -0.526  -0.290  23.331  0.00  0.00    +0.063 C 
BRANCH   9  14
ATOM      1  O   UNL     1       2.645  -0.101  21.617  0.00  0.00    -0.359 OA
ATOM      4  N   UNL     1       1.310  -0.480  21.697  0.00  0.00    -0.083 NA
ATOM     14  C   UNL     1       0.899  -0.052  22.895  0.00  0.00    +0.084 A 
ATOM     17  C   UNL     1       1.922   0.598  23.608  0.00  0.00    +0.071 A 
ATOM     18  C   UNL     1       2.997   0.539  22.762  0.00  0.00    +0.140 A 
BRANCH  18  19
ATOM     19  C   UNL     1       4.385   1.010  22.847  0.00  0.00    +0.105 C 
BRANCH  19  20
ATOM     20  C   UNL     1       5.326   0.038  23.584  0.00  0.00    +0.163 C 
BRANCH  20   2
ATOM      2  O   UNL     1       4.614  -1.147  23.912  0.00  0.00    -0.395 OA
ATOM     21  H   UNL     1       3.711  -0.881  24.155  0.00  0.00    +0.209 HD
ENDBRANCH  20   2
ENDBRANCH  19  20
ENDBRANCH  18  19
ENDBRANCH   9  14
ENDBRANCH   6   9
TORSDOF 8
ENDMDL
MODEL 2
REMARK VINA RESULT:      -5.2      1.581      2.651
REMARK  Name = 56773974
REMARK  12 active torsions:
REMARK  status: ('A' for Active; 'I' for Inactive)
REMARK    1  A    between atoms: O_2  and  C_20
REMARK    2  A    between atoms: N_3  and  C_7
REMARK    3  A    between atoms: N_3  and  C_12
REMARK    4  A    between atoms: N_3  and  C_13
REMARK    5  A    between atoms: C_5  and  C_10
REMARK    6  A    between atoms: C_5  and  C_11
REMARK    7  A    between atoms: C_6  and  C_9
REMARK    8  A    between atoms: C_9  and  C_14
REMARK    9  A    between atoms: C_12  and  C_15
REMARK   10  A    between atoms: C_13  and  C_16
REMARK   11  A    between atoms: C_18  and  C_19
REMARK   12  A    between atoms: C_19  and  C_20
REMARK                            x       y       z     vdW  Elec       q    Type
REMARK                         _______ _______ _______ _____ _____    ______ ____
ROOT
ATOM      5  C   UNL     1      -3.404  -0.318  24.368  0.00  0.00    -0.016 C 
ATOM      6  C   UNL     1      -2.074  -0.218  23.593  0.00  0.00    +0.004 C 
ATOM      7  C   UNL     1      -3.725   1.099  23.849  0.00  0.00    +0.063 C 
ATOM      8  C   UNL     1      -2.202   1.315  23.724  0.00  0.00    +0.024 C 
ATOM     10  C   UNL     1      -3.279  -0.356  25.882  0.00  0.00    +0.013 C 
ATOM     11  C   UNL     1      -4.294  -1.450  23.906  0.00  0.00    +0.013 C 
ENDROOT
BRANCH   7   3
ATOM      3  N   UNL     1      -4.241   1.959  24.928  0.00  0.00    -0.299 NA
BRANCH   3  12
ATOM     12  C   UNL     1      -5.702   1.918  24.915  0.00  0.00    +0.081 C 
ATOM     15  C   UNL     1      -6.264   1.922  26.327  0.00  0.00    +0.020 C 
ENDBRANCH   3  12
BRANCH   3  13
ATOM     13  C   UNL     1      -3.763   3.325  24.724  0.00  0.00    +0.081 C 
ATOM     16  C   UNL     1      -3.222   3.917  26.014  0.00  0.00    +0.020 C 
ENDBRANCH   3  13
ENDBRANCH   7   3
BRANCH   6   9
ATOM      9  C   UNL     1      -0.846  -0.804  24.252  0.00  0.00    +0.063 C 
BRANCH   9  14
ATOM      1  O   UNL     1       1.729   1.684  23.797  0.00  0.00    -0.359 OA
ATOM      4  N   UNL     1       0.508   1.255  24.305  0.00  0.00    -0.083 NA
ATOM     14  C   UNL     1       0.381  -0.006  23.881  0.00  0.00    +0.084 A 
ATOM     17  C   UNL     1       1.479  -0.423  23.109  0.00  0.00    +0.071 A 
ATOM     18  C   UNL     1       2.297   0.675  23.086  0.00  0.00    +0.140 A 
BRANCH  18  19
ATOM     19  C   UNL     1       3.601   0.960  22.475  0.00  0.00    +0.105 C 
BRANCH  19  20
ATOM     20  C   UNL     1       4.758   0.134  23.069  0.00  0.00    +0.163 C 
BRANCH  20   2
ATOM      2  O   UNL     1       5.038   0.594  24.384  0.00  0.00    -0.395 OA
ATOM     21  H   UNL     1       4.765  -0.110  24.997  0.00  0.00    +0.209 HD
ENDBRANCH  20   2
ENDBRANCH  19  20
ENDBRANCH  18  19
ENDBRANCH   9  14
ENDBRANCH   6   9
TORSDOF 8
ENDMDL
MODEL 3
REMARK VINA RESULT:      -4.8      1.096      2.297
REMARK  Name = 56773974
REMARK  12 active torsions:
REMARK  status: ('A' for Active; 'I' for Inactive)
REMARK    1  A    between atoms: O_2  and  C_20
REMARK    2  A    between atoms: N_3  and  C_7
REMARK    3  A    between atoms: N_3  and  C_12
REMARK    4  A    between atoms: N_3  and  C_13
REMARK    5  A    between atoms: C_5  and  C_10
REMARK    6  A    between atoms: C_5  and  C_11
REMARK    7  A    between atoms: C_6  and  C_9
REMARK    8  A    between atoms: C_9  and  C_14
REMARK    9  A    between atoms: C_12  and  C_15
REMARK   10  A    between atoms: C_13  and  C_16
REMARK   11  A    between atoms: C_18  and  C_19
REMARK   12  A    between atoms: C_19  and  C_20
REMARK                            x       y       z     vdW  Elec       q    Type
REMARK                         _______ _______ _______ _____ _____    ______ ____
ROOT
ATOM      5  C   UNL     1      -2.784   0.528  24.286  0.00  0.00    -0.016 C 
ATOM      6  C   UNL     1      -1.562   0.412  23.352  0.00  0.00    +0.004 C 
ATOM      7  C   UNL     1      -2.719   2.052  24.057  0.00  0.00    +0.063 C 
ATOM      8  C   UNL     1      -1.219   1.864  23.747  0.00  0.00    +0.024 C 
ATOM     10  C   UNL     1      -2.536   0.159  25.738  0.00  0.00    +0.013 C 
ATOM     11  C   UNL     1      -4.009  -0.203  23.781  0.00  0.00    +0.013 C 
ENDROOT
BRANCH   7   3
ATOM      3  N   UNL     1      -2.856   2.789  25.325  0.00  0.00    -0.299 NA
BRANCH   3  12
ATOM     12  C   UNL     1      -4.035   3.650  25.254  0.00  0.00    +0.081 C 
ATOM     15  C   UNL     1      -5.283   2.910  25.705  0.00  0.00    +0.020 C 
ENDBRANCH   3  12
BRANCH   3  13
ATOM     13  C   UNL     1      -1.650   3.586  25.550  0.00  0.00    +0.081 C 
ATOM     16  C   UNL     1      -1.918   5.063  25.321  0.00  0.00    +0.020 C 
ENDBRANCH   3  13
ENDBRANCH   7   3
BRANCH   6   9
ATOM      9  C   UNL     1      -0.507  -0.605  23.720  0.00  0.00    +0.063 C 
BRANCH   9  14
ATOM      1  O   UNL     1       2.319  -0.110  21.532  0.00  0.00    -0.359 OA
ATOM      4  N   UNL     1       1.038  -0.575  21.799  0.00  0.00    -0.083 NA
ATOM     14  C   UNL     1       0.812  -0.251  23.077  0.00  0.00    +0.084 A 
ATOM     17  C   UNL     1       1.905   0.413  23.660  0.00  0.00    +0.071 A 
ATOM     18  C   UNL     1       2.825   0.476  22.648  0.00  0.00    +0.140 A 
BRANCH  18  19
ATOM     19  C   UNL     1       4.182   1.026  22.540  0.00  0.00    +0.105 C 
BRANCH  19  20
ATOM     20  C   UNL     1       5.251   0.188  23.268  0.00  0.00    +0.163 C 
BRANCH  20   2
ATOM      2  O   UNL     1       5.197   0.465  24.662  0.00  0.00    -0.395 OA
ATOM     21  H   UNL     1       5.081   1.426  24.758  0.00  0.00    +0.209 HD
ENDBRANCH  20   2
ENDBRANCH  19  20
ENDBRANCH  18  19
ENDBRANCH   9  14
ENDBRANCH   6   9
TORSDOF 8
ENDMDL
MODEL 4
REMARK VINA RESULT:      -4.7      3.364      5.013
REMARK  Name = 56773974
REMARK  12 active torsions:
REMARK  status: ('A' for Active; 'I' for Inactive)
REMARK    1  A    between atoms: O_2  and  C_20
REMARK    2  A    between atoms: N_3  and  C_7
REMARK    3  A    between atoms: N_3  and  C_12
REMARK    4  A    between atoms: N_3  and  C_13
REMARK    5  A    between atoms: C_5  and  C_10
REMARK    6  A    between atoms: C_5  and  C_11
REMARK    7  A    between atoms: C_6  and  C_9
REMARK    8  A    between atoms: C_9  and  C_14
REMARK    9  A    between atoms: C_12  and  C_15
REMARK   10  A    between atoms: C_13  and  C_16
REMARK   11  A    between atoms: C_18  and  C_19
REMARK   12  A    between atoms: C_19  and  C_20
REMARK                            x       y       z     vdW  Elec       q    Type
REMARK                         _______ _______ _______ _____ _____    ______ ____
ROOT
ATOM      5  C   UNL     1      -4.534   3.397  25.328  0.00  0.00    -0.016 C 
ATOM      6  C   UNL     1      -4.818   2.216  24.377  0.00  0.00    +0.004 C 
ATOM      7  C   UNL     1      -3.280   3.683  24.475  0.00  0.00    +0.063 C 
ATOM      8  C   UNL     1      -3.304   2.192  24.080  0.00  0.00    +0.024 C 
ATOM     10  C   UNL     1      -4.180   3.019  26.755  0.00  0.00    +0.013 C 
ATOM     11  C   UNL     1      -5.626   4.446  25.339  0.00  0.00    +0.013 C 
ENDROOT
BRANCH   7   3
ATOM      3  N   UNL     1      -2.104   3.933  25.325  0.00  0.00    -0.299 NA
BRANCH   3  12
ATOM     12  C   UNL     1      -1.726   5.341  25.218  0.00  0.00    +0.081 C 
ATOM     15  C   UNL     1      -0.455   5.509  24.403  0.00  0.00    +0.020 C 
ENDBRANCH   3  12
BRANCH   3  13
ATOM     13  C   UNL     1      -1.005   3.072  24.889  0.00  0.00    +0.081 C 
ATOM     16  C   UNL     1      -0.337   2.392  26.072  0.00  0.00    +0.020 C 
ENDBRANCH   3  13
ENDBRANCH   7   3
BRANCH   6   9
ATOM      9  C   UNL     1      -5.358   0.948  24.995  0.00  0.00    +0.063 C 
BRANCH   9  14
ATOM      1  O   UNL     1      -3.646  -2.028  23.881  0.00  0.00    -0.359 OA
ATOM      4  N   UNL     1      -4.716  -1.142  23.855  0.00  0.00    -0.083 NA
ATOM     14  C   UNL     1      -4.408  -0.201  24.753  0.00  0.00    +0.084 A 
ATOM     17  C   UNL     1      -3.168  -0.439  25.371  0.00  0.00    +0.071 A 
ATOM     18  C   UNL     1      -2.731  -1.598  24.788  0.00  0.00    +0.140 A 
BRANCH  18  19
ATOM     19  C   UNL     1      -1.527  -2.424  24.945  0.00  0.00    +0.105 C 
BRANCH  19  20
ATOM     20  C   UNL     1      -0.281  -1.629  25.379  0.00  0.00    +0.163 C 
BRANCH  20   2
ATOM      2  O   UNL     1       0.115  -0.762  24.324  0.00  0.00    -0.395 OA
ATOM     21  H   UNL     1      -0.697  -0.471  23.873  0.00  0.00    +0.209 HD
ENDBRANCH  20   2
ENDBRANCH  19  20
ENDBRANCH  18  19
ENDBRANCH   9  14
ENDBRANCH   6   9
TORSDOF 8
ENDMDL
MODEL 5
REMARK VINA RESULT:      -4.2      3.685      6.110
REMARK  Name = 56773974
REMARK  12 active torsions:
REMARK  status: ('A' for Active; 'I' for Inactive)
REMARK    1  A    between atoms: O_2  and  C_20
REMARK    2  A    between atoms: N_3  and  C_7
REMARK    3  A    between atoms: N_3  and  C_12
REMARK    4  A    between atoms: N_3  and  C_13
REMARK    5  A    between atoms: C_5  and  C_10
REMARK    6  A    between atoms: C_5  and  C_11
REMARK    7  A    between atoms: C_6  and  C_9
REMARK    8  A    between atoms: C_9  and  C_14
REMARK    9  A    between atoms: C_12  and  C_15
REMARK   10  A    between atoms: C_13  and  C_16
REMARK   11  A    between atoms: C_18  and  C_19
REMARK   12  A    between atoms: C_19  and  C_20
REMARK                            x       y       z     vdW  Elec       q    Type
REMARK                         _______ _______ _______ _____ _____    ______ ____
ROOT
ATOM      5  C   UNL     1      -0.939  -0.427  24.745  0.00  0.00    -0.016 C 
ATOM      6  C   UNL     1      -0.442   0.865  24.063  0.00  0.00    +0.004 C 
ATOM      7  C   UNL     1      -2.111  -0.415  23.741  0.00  0.00    +0.063 C 
ATOM      8  C   UNL     1      -1.905   1.110  23.636  0.00  0.00    +0.024 C 
ATOM     10  C   UNL     1      -1.416  -0.270  26.179  0.00  0.00    +0.013 C 
ATOM     11  C   UNL     1       0.042  -1.576  24.662  0.00  0.00    +0.013 C 
ENDROOT
BRANCH   7   3
ATOM      3  N   UNL     1      -3.394  -0.679  24.414  0.00  0.00    -0.299 NA
BRANCH   3  12
ATOM     12  C   UNL     1      -3.937  -1.947  23.931  0.00  0.00    +0.081 C 
ATOM     15  C   UNL     1      -3.410  -3.116  24.746  0.00  0.00    +0.020 C 
ENDBRANCH   3  12
BRANCH   3  13
ATOM     13  C   UNL     1      -4.318   0.418  24.131  0.00  0.00    +0.081 C 
ATOM     16  C   UNL     1      -5.193   0.724  25.335  0.00  0.00    +0.020 C 
ENDBRANCH   3  13
ENDBRANCH   7   3
BRANCH   6   9
ATOM      9  C   UNL     1       0.139   1.936  24.957  0.00  0.00    +0.063 C 
BRANCH   9  14
ATOM      1  O   UNL     1      -1.732   5.005  25.277  0.00  0.00    -0.359 OA
ATOM      4  N   UNL     1      -0.594   4.289  24.925  0.00  0.00    -0.083 NA
ATOM     14  C   UNL     1      -0.882   3.017  25.215  0.00  0.00    +0.084 A 
ATOM     17  C   UNL     1      -2.175   2.871  25.749  0.00  0.00    +0.071 A 
ATOM     18  C   UNL     1      -2.666   4.149  25.766  0.00  0.00    +0.140 A 
BRANCH  18  19
ATOM     19  C   UNL     1      -3.940   4.744  26.190  0.00  0.00    +0.105 C 
BRANCH  19  20
ATOM     20  C   UNL     1      -5.179   3.976  25.691  0.00  0.00    +0.163 C 
BRANCH  20   2
ATOM      2  O   UNL     1      -6.329   4.802  25.823  0.00  0.00    -0.395 OA
ATOM     21  H   UNL     1      -6.130   5.460  26.511  0.00  0.00    +0.209 HD
ENDBRANCH  20   2
ENDBRANCH  19  20
ENDBRANCH  18  19
ENDBRANCH   9  14
ENDBRANCH   6   9
TORSDOF 8
ENDMDL
MODEL 6
REMARK VINA RESULT:      -4.1      2.644      4.037
REMARK  Name = 56773974
REMARK  12 active torsions:
REMARK  status: ('A' for Active; 'I' for Inactive)
REMARK    1  A    between atoms: O_2  and  C_20
REMARK    2  A    between atoms: N_3  and  C_7
REMARK    3  A    between atoms: N_3  and  C_12
REMARK    4  A    between atoms: N_3  and  C_13
REMARK    5  A    between atoms: C_5  and  C_10
REMARK    6  A    between atoms: C_5  and  C_11
REMARK    7  A    between atoms: C_6  and  C_9
REMARK    8  A    between atoms: C_9  and  C_14
REMARK    9  A    between atoms: C_12  and  C_15
REMARK   10  A    between atoms: C_13  and  C_16
REMARK   11  A    between atoms: C_18  and  C_19
REMARK   12  A    between atoms: C_19  and  C_20
REMARK                            x       y       z     vdW  Elec       q    Type
REMARK                         _______ _______ _______ _____ _____    ______ ____
ROOT
ATOM      5  C   UNL     1      -1.601   3.819  24.947  0.00  0.00    -0.016 C 
ATOM      6  C   UNL     1      -0.771   2.915  25.882  0.00  0.00    +0.004 C 
ATOM      7  C   UNL     1      -2.846   3.360  25.733  0.00  0.00    +0.063 C 
ATOM      8  C   UNL     1      -2.056   2.085  26.092  0.00  0.00    +0.024 C 
ATOM     10  C   UNL     1      -1.653   3.384  23.492  0.00  0.00    +0.013 C 
ATOM     11  C   UNL     1      -1.225   5.282  25.024  0.00  0.00    +0.013 C 
ENDROOT
BRANCH   7   3
ATOM      3  N   UNL     1      -3.948   2.999  24.825  0.00  0.00    -0.299 NA
BRANCH   3  12
ATOM     12  C   UNL     1      -5.163   3.695  25.245  0.00  0.00    +0.081 C 
ATOM     15  C   UNL     1      -6.131   2.746  25.931  0.00  0.00    +0.020 C 
ENDBRANCH   3  12
BRANCH   3  13
ATOM     13  C   UNL     1      -4.146   1.551  24.862  0.00  0.00    +0.081 C 
ATOM     16  C   UNL     1      -3.776   0.911  23.535  0.00  0.00    +0.020 C 
ENDBRANCH   3  13
ENDBRANCH   7   3
BRANCH   6   9
ATOM      9  C   UNL     1       0.376   2.151  25.263  0.00  0.00    +0.063 C 
BRANCH   9  14
ATOM      1  O   UNL     1      -0.317  -0.893  23.452  0.00  0.00    -0.359 OA
ATOM      4  N   UNL     1       0.271   0.360  23.572  0.00  0.00    -0.083 NA
ATOM     14  C   UNL     1      -0.091   0.798  24.782  0.00  0.00    +0.084 A 
ATOM     17  C   UNL     1      -0.901  -0.127  25.464  0.00  0.00    +0.071 A 
ATOM     18  C   UNL     1      -1.012  -1.172  24.585  0.00  0.00    +0.140 A 
BRANCH  18  19
ATOM     19  C   UNL     1      -1.702  -2.467  24.628  0.00  0.00    +0.105 C 
BRANCH  19  20
ATOM     20  C   UNL     1      -3.174  -2.372  25.071  0.00  0.00    +0.163 C 
BRANCH  20   2
ATOM      2  O   UNL     1      -4.019  -2.645  23.961  0.00  0.00    -0.395 OA
ATOM     21  H   UNL     1      -4.907  -2.822  24.314  0.00  0.00    +0.209 HD
ENDBRANCH  20   2
ENDBRANCH  19  20
ENDBRANCH  18  19
ENDBRANCH   9  14
ENDBRANCH   6   9
TORSDOF 8
ENDMDL
MODEL 7
REMARK VINA RESULT:      -4.0      3.652      6.559
REMARK  Name = 56773974
REMARK  12 active torsions:
REMARK  status: ('A' for Active; 'I' for Inactive)
REMARK    1  A    between atoms: O_2  and  C_20
REMARK    2  A    between atoms: N_3  and  C_7
REMARK    3  A    between atoms: N_3  and  C_12
REMARK    4  A    between atoms: N_3  and  C_13
REMARK    5  A    between atoms: C_5  and  C_10
REMARK    6  A    between atoms: C_5  and  C_11
REMARK    7  A    between atoms: C_6  and  C_9
REMARK    8  A    between atoms: C_9  and  C_14
REMARK    9  A    between atoms: C_12  and  C_15
REMARK   10  A    between atoms: C_13  and  C_16
REMARK   11  A    between atoms: C_18  and  C_19
REMARK   12  A    between atoms: C_19  and  C_20
REMARK                            x       y       z     vdW  Elec       q    Type
REMARK                         _______ _______ _______ _____ _____    ______ ____
ROOT
ATOM      5  C   UNL     1      -0.301   1.185  24.236  0.00  0.00    -0.016 C 
ATOM      6  C   UNL     1      -0.937   2.302  23.381  0.00  0.00    +0.004 C 
ATOM      7  C   UNL     1      -1.367   0.236  23.650  0.00  0.00    +0.063 C 
ATOM      8  C   UNL     1      -2.245   1.484  23.425  0.00  0.00    +0.024 C 
ATOM     10  C   UNL     1      -0.447   1.348  25.739  0.00  0.00    +0.013 C 
ATOM     11  C   UNL     1       1.147   0.907  23.895  0.00  0.00    +0.013 C 
ENDROOT
BRANCH   7   3
ATOM      3  N   UNL     1      -1.978  -0.595  24.702  0.00  0.00    -0.299 NA
BRANCH   3  12
ATOM     12  C   UNL     1      -1.517  -1.974  24.552  0.00  0.00    +0.081 C 
ATOM     15  C   UNL     1      -0.251  -2.220  25.356  0.00  0.00    +0.020 C 
ENDBRANCH   3  12
BRANCH   3  13
ATOM     13  C   UNL     1      -3.434  -0.523  24.585  0.00  0.00    +0.081 C 
ATOM     16  C   UNL     1      -4.001  -1.804  23.997  0.00  0.00    +0.020 C 
ENDBRANCH   3  13
ENDBRANCH   7   3
BRANCH   6   9
ATOM      9  C   UNL     1      -1.034   3.675  24.004  0.00  0.00    +0.063 C 
BRANCH   9  14
ATOM      1  O   UNL     1      -3.586   4.236  26.492  0.00  0.00    -0.359 OA
ATOM      4  N   UNL     1      -2.264   4.237  26.065  0.00  0.00    -0.083 NA
ATOM     14  C   UNL     1      -2.309   3.803  24.801  0.00  0.00    +0.084 A 
ATOM     17  C   UNL     1      -3.620   3.515  24.382  0.00  0.00    +0.071 A 
ATOM     18  C   UNL     1      -4.384   3.805  25.482  0.00  0.00    +0.140 A 
BRANCH  18  19
ATOM     19  C   UNL     1      -5.823   3.742  25.765  0.00  0.00    +0.105 C 
BRANCH  19  20
ATOM     20  C   UNL     1      -6.337   2.318  26.054  0.00  0.00    +0.163 C 
BRANCH  20   2
ATOM      2  O   UNL     1      -6.720   1.700  24.833  0.00  0.00    -0.395 OA
ATOM     21  H   UNL     1      -6.012   1.875  24.189  0.00  0.00    +0.209 HD
ENDBRANCH  20   2
ENDBRANCH  19  20
ENDBRANCH  18  19
ENDBRANCH   9  14
ENDBRANCH   6   9
TORSDOF 8
ENDMDL
MODEL 8
REMARK VINA RESULT:      -3.2      3.506      5.891
REMARK  Name = 56773974
REMARK  12 active torsions:
REMARK  status: ('A' for Active; 'I' for Inactive)
REMARK    1  A    between atoms: O_2  and  C_20
REMARK    2  A    between atoms: N_3  and  C_7
REMARK    3  A    between atoms: N_3  and  C_12
REMARK    4  A    between atoms: N_3  and  C_13
REMARK    5  A    between atoms: C_5  and  C_10
REMARK    6  A    between atoms: C_5  and  C_11
REMARK    7  A    between atoms: C_6  and  C_9
REMARK    8  A    between atoms: C_9  and  C_14
REMARK    9  A    between atoms: C_12  and  C_15
REMARK   10  A    between atoms: C_13  and  C_16
REMARK   11  A    between atoms: C_18  and  C_19
REMARK   12  A    between atoms: C_19  and  C_20
REMARK                            x       y       z     vdW  Elec       q    Type
REMARK                         _______ _______ _______ _____ _____    ______ ____
ROOT
ATOM      5  C   UNL     1      -0.272   0.527  23.858  0.00  0.00    -0.016 C 
ATOM      6  C   UNL     1      -0.473  -0.596  24.897  0.00  0.00    +0.004 C 
ATOM      7  C   UNL     1      -0.124   1.497  25.048  0.00  0.00    +0.063 C 
ATOM      8  C   UNL     1      -0.964   0.497  25.869  0.00  0.00    +0.024 C 
ATOM     10  C   UNL     1      -1.485   0.853  23.004  0.00  0.00    +0.013 C 
ATOM     11  C   UNL     1       0.934   0.323  22.967  0.00  0.00    +0.013 C 
ENDROOT
BRANCH   7   3
ATOM      3  N   UNL     1      -0.912   2.724  24.838  0.00  0.00    -0.299 NA
BRANCH   3  12
ATOM     12  C   UNL     1      -0.079   3.719  24.164  0.00  0.00    +0.081 C 
ATOM     15  C   UNL     1      -0.474   5.129  24.567  0.00  0.00    +0.020 C 
ENDBRANCH   3  12
BRANCH   3  13
ATOM     13  C   UNL     1      -1.370   3.228  26.131  0.00  0.00    +0.081 C 
ATOM     16  C   UNL     1      -2.775   3.796  26.033  0.00  0.00    +0.020 C 
ENDBRANCH   3  13
ENDBRANCH   7   3
BRANCH   6   9
ATOM      9  C   UNL     1      -1.498  -1.658  24.575  0.00  0.00    +0.063 C 
BRANCH   9  14
ATOM      1  O   UNL     1      -4.976  -0.811  24.116  0.00  0.00    -0.359 OA
ATOM      4  N   UNL     1      -3.840  -1.553  23.814  0.00  0.00    -0.083 NA
ATOM     14  C   UNL     1      -2.891  -1.076  24.625  0.00  0.00    +0.084 A 
ATOM     17  C   UNL     1      -3.365  -0.044  25.453  0.00  0.00    +0.071 A 
ATOM     18  C   UNL     1      -4.680   0.084  25.094  0.00  0.00    +0.140 A 
BRANCH  18  19
ATOM     19  C   UNL     1      -5.775   0.955  25.537  0.00  0.00    +0.105 C 
BRANCH  19  20
ATOM     20  C   UNL     1      -5.710   2.380  24.953  0.00  0.00    +0.163 C 
BRANCH  20   2
ATOM      2  O   UNL     1      -6.185   3.306  25.921  0.00  0.00    -0.395 OA
ATOM     21  H   UNL     1      -5.549   4.041  25.949  0.00  0.00    +0.209 HD
ENDBRANCH  20   2
ENDBRANCH  19  20
ENDBRANCH  18  19
ENDBRANCH   9  14
ENDBRANCH   6   9
TORSDOF 8
ENDMDL
MODEL 9
REMARK VINA RESULT:      -3.1      2.864      3.963
REMARK  Name = 56773974
REMARK  12 active torsions:
REMARK  status: ('A' for Active; 'I' for Inactive)
REMARK    1  A    between atoms: O_2  and  C_20
REMARK    2  A    between atoms: N_3  and  C_7
REMARK    3  A    between atoms: N_3  and  C_12
REMARK    4  A    between atoms: N_3  and  C_13
REMARK    5  A    between atoms: C_5  and  C_10
REMARK    6  A    between atoms: C_5  and  C_11
REMARK    7  A    between atoms: C_6  and  C_9
REMARK    8  A    between atoms: C_9  and  C_14
REMARK    9  A    between atoms: C_12  and  C_15
REMARK   10  A    between atoms: C_13  and  C_16
REMARK   11  A    between atoms: C_18  and  C_19
REMARK   12  A    between atoms: C_19  and  C_20
REMARK                            x       y       z     vdW  Elec       q    Type
REMARK                         _______ _______ _______ _____ _____    ______ ____
ROOT
ATOM      5  C   UNL     1      -3.682  -0.357  24.337  0.00  0.00    -0.016 C 
ATOM      6  C   UNL     1      -2.464  -0.111  23.423  0.00  0.00    +0.004 C 
ATOM      7  C   UNL     1      -4.220   1.007  23.859  0.00  0.00    +0.063 C 
ATOM      8  C   UNL     1      -2.756   1.398  23.570  0.00  0.00    +0.024 C 
ATOM     10  C   UNL     1      -3.392  -0.365  25.828  0.00  0.00    +0.013 C 
ATOM     11  C   UNL     1      -4.478  -1.591  23.971  0.00  0.00    +0.013 C 
ENDROOT
BRANCH   7   3
ATOM      3  N   UNL     1      -4.715   1.811  24.989  0.00  0.00    -0.299 NA
BRANCH   3  12
ATOM     12  C   UNL     1      -6.163   1.641  25.101  0.00  0.00    +0.081 C 
ATOM     15  C   UNL     1      -6.628   1.822  26.536  0.00  0.00    +0.020 C 
ENDBRANCH   3  12
BRANCH   3  13
ATOM     13  C   UNL     1      -4.378   3.216  24.763  0.00  0.00    +0.081 C 
ATOM     16  C   UNL     1      -3.523   3.765  25.892  0.00  0.00    +0.020 C 
ENDBRANCH   3  13
ENDBRANCH   7   3
BRANCH   6   9
ATOM      9  C   UNL     1      -1.112  -0.542  23.945  0.00  0.00    +0.063 C 
BRANCH   9  14
ATOM      1  O   UNL     1       0.909   2.281  24.927  0.00  0.00    -0.359 OA
ATOM      4  N   UNL     1       0.496   1.324  24.008  0.00  0.00    -0.083 NA
ATOM     14  C   UNL     1      -0.430   0.605  24.649  0.00  0.00    +0.084 A 
ATOM     17  C   UNL     1      -0.640   1.058  25.964  0.00  0.00    +0.071 A 
ATOM     18  C   UNL     1       0.225   2.112  26.088  0.00  0.00    +0.140 A 
BRANCH  18  19
ATOM     19  C   UNL     1       0.540   3.046  27.175  0.00  0.00    +0.105 C 
BRANCH  19  20
ATOM     20  C   UNL     1       1.147   2.368  28.419  0.00  0.00    +0.163 C 
BRANCH  20   2
ATOM      2  O   UNL     1       2.535   2.670  28.489  0.00  0.00    -0.395 OA
ATOM     21  H   UNL     1       2.800   2.582  29.421  0.00  0.00    +0.209 HD
ENDBRANCH  20   2
ENDBRANCH  19  20
ENDBRANCH  18  19
ENDBRANCH   9  14
ENDBRANCH   6   9
TORSDOF 8
ENDMDL
MODEL 10
REMARK VINA RESULT:      -2.3      3.176      5.320
REMARK  Name = 56773974
REMARK  12 active torsions:
REMARK  status: ('A' for Active; 'I' for Inactive)
REMARK    1  A    between atoms: O_2  and  C_20
REMARK    2  A    between atoms: N_3  and  C_7
REMARK    3  A    between atoms: N_3  and  C_12
REMARK    4  A    between atoms: N_3  and  C_13
REMARK    5  A    between atoms: C_5  and  C_10
REMARK    6  A    between atoms: C_5  and  C_11
REMARK    7  A    between atoms: C_6  and  C_9
REMARK    8  A    between atoms: C_9  and  C_14
REMARK    9  A    between atoms: C_12  and  C_15
REMARK   10  A    between atoms: C_13  and  C_16
REMARK   11  A    between atoms: C_18  and  C_19
REMARK   12  A    between atoms: C_19  and  C_20
REMARK                            x       y       z     vdW  Elec       q    Type
REMARK                         _______ _______ _______ _____ _____    ______ ____
ROOT
ATOM      5  C   UNL     1      -0.597  -1.132  24.903  0.00  0.00    -0.016 C 
ATOM      6  C   UNL     1      -0.031  -0.316  23.722  0.00  0.00    +0.004 C 
ATOM      7  C   UNL     1      -1.899  -1.266  24.086  0.00  0.00    +0.063 C 
ATOM      8  C   UNL     1      -1.491   0.035  23.366  0.00  0.00    +0.024 C 
ATOM     10  C   UNL     1      -0.809  -0.357  26.192  0.00  0.00    +0.013 C 
ATOM     11  C   UNL     1       0.179  -2.397  25.195  0.00  0.00    +0.013 C 
ENDROOT
BRANCH   7   3
ATOM      3  N   UNL     1      -3.082  -0.999  24.922  0.00  0.00    -0.299 NA
BRANCH   3  12
ATOM     12  C   UNL     1      -3.766  -2.260  25.203  0.00  0.00    +0.081 C 
ATOM     15  C   UNL     1      -4.090  -3.007  23.920  0.00  0.00    +0.020 C 
ENDBRANCH   3  12
BRANCH   3  13
ATOM     13  C   UNL     1      -3.971  -0.079  24.214  0.00  0.00    +0.081 C 
ATOM     16  C   UNL     1      -4.778   0.764  25.188  0.00  0.00    +0.020 C 
ENDBRANCH   3  13
ENDBRANCH   7   3
BRANCH   6   9
ATOM      9  C   UNL     1       0.837   0.875  24.059  0.00  0.00    +0.063 C 
BRANCH   9  14
ATOM      1  O   UNL     1      -0.494   3.293  26.385  0.00  0.00    -0.359 OA
ATOM      4  N   UNL     1       0.457   2.359  25.990  0.00  0.00    -0.083 NA
ATOM     14  C   UNL     1       0.035   1.916  24.802  0.00  0.00    +0.084 A 
ATOM     17  C   UNL     1      -1.165   2.529  24.400  0.00  0.00    +0.071 A 
ATOM     18  C   UNL     1      -1.454   3.385  25.429  0.00  0.00    +0.140 A 
BRANCH  18  19
ATOM     19  C   UNL     1      -2.545   4.333  25.687  0.00  0.00    +0.105 C 
BRANCH  19  20
ATOM     20  C   UNL     1      -2.256   5.762  25.187  0.00  0.00    +0.163 C 
BRANCH  20   2
ATOM      2  O   UNL     1      -0.878   5.876  24.860  0.00  0.00    -0.395 OA
ATOM     21  H   UNL     1      -0.586   5.004  24.542  0.00  0.00    +0.209 HD
ENDBRANCH  20   2
ENDBRANCH  19  20
ENDBRANCH  18  19
ENDBRANCH   9  14
ENDBRANCH   6   9
TORSDOF 8
ENDMDL
