MODEL 1
REMARK VINA RESULT:      -4.0      0.000      0.000
REMARK  Name = 71693219
REMARK  7 active torsions:
REMARK  status: ('A' for Active; 'I' for Inactive)
REMARK    1  A    between atoms: O_2  and  C_17
REMARK    2  A    between atoms: O_2  and  C_22
REMARK    3  A    between atoms: O_3  and  C_23
REMARK    4  A    between atoms: N_6  and  C_16
REMARK    5  A    between atoms: C_8  and  C_12
REMARK    6  A    between atoms: C_13  and  C_17
REMARK    7  A    between atoms: C_22  and  C_23
REMARK                            x       y       z     vdW  Elec       q    Type
REMARK                         _______ _______ _______ _____ _____    ______ ____
ROOT
ATOM      1  O   UNL     1      -1.820   5.437  24.032  0.00  0.00    -0.273 OA
ATOM      5  N   UNL     1      -1.118   3.501  25.078  0.00  0.00    -0.299 N 
ATOM      8  C   UNL     1      -0.448   1.292  25.660  0.00  0.00    +0.074 C 
ATOM      9  C   UNL     1       0.424   1.812  24.506  0.00  0.00    +0.032 C 
ATOM     10  C   UNL     1      -1.047   2.591  26.220  0.00  0.00    +0.119 C 
ATOM     11  C   UNL     1      -0.370   2.983  23.943  0.00  0.00    +0.108 C 
ATOM     13  C   UNL     1      -1.791   4.708  25.024  0.00  0.00    +0.241 C 
ENDROOT
BRANCH   8  12
ATOM      6  N   UNL     1      -1.116  -1.088  25.138  0.00  0.00    -0.330 N 
ATOM      7  N   UNL     1      -2.664   0.466  24.777  0.00  0.00    -0.232 NA
ATOM     12  C   UNL     1      -1.435   0.241  25.185  0.00  0.00    +0.115 A 
ATOM     14  C   UNL     1      -2.213  -1.766  24.669  0.00  0.00    +0.069 A 
ATOM     15  C   UNL     1      -3.165  -0.774  24.451  0.00  0.00    +0.089 A 
ATOM     16  C   UNL     1       0.149  -1.678  25.516  0.00  0.00    +0.150 C 
ATOM     18  C   UNL     1      -2.446  -3.119  24.424  0.00  0.00    +0.028 A 
ATOM     19  C   UNL     1      -4.430  -1.135  23.959  0.00  0.00    +0.030 A 
ATOM     20  C   UNL     1      -3.711  -3.461  23.935  0.00  0.00    +0.002 A 
ATOM     21  C   UNL     1      -4.687  -2.489  23.706  0.00  0.00    +0.002 A 
ENDBRANCH   8  12
BRANCH  13  17
ATOM     17  C   UNL     1      -2.525   5.101  26.282  0.00  0.00    +0.256 C 
BRANCH  17   2
ATOM      2  O   UNL     1      -3.495   4.106  26.509  0.00  0.00    -0.359 OA
BRANCH   2  22
ATOM     22  C   UNL     1      -4.590   4.208  25.602  0.00  0.00    +0.280 C 
BRANCH  22  23
ATOM      4  O   UNL     1      -5.758   2.079  25.690  0.00  0.00    -0.248 OA
ATOM     23  C   UNL     1      -4.985   2.839  25.125  0.00  0.00    +0.331 C 
BRANCH  23   3
ATOM      3  O   UNL     1      -4.358   2.551  23.956  0.00  0.00    -0.479 OA
ATOM     24  H   UNL     1      -3.913   1.677  23.985  0.00  0.00    +0.295 HD
ENDBRANCH  23   3
ENDBRANCH  22  23
ENDBRANCH   2  22
ENDBRANCH  17   2
ENDBRANCH  13  17
TORSDOF 6
ENDMDL
MODEL 2
REMARK VINA RESULT:      -3.9      4.082      6.513
REMARK  Name = 71693219
REMARK  7 active torsions:
REMARK  status: ('A' for Active; 'I' for Inactive)
REMARK    1  A    between atoms: O_2  and  C_17
REMARK    2  A    between atoms: O_2  and  C_22
REMARK    3  A    between atoms: O_3  and  C_23
REMARK    4  A    between atoms: N_6  and  C_16
REMARK    5  A    between atoms: C_8  and  C_12
REMARK    6  A    between atoms: C_13  and  C_17
REMARK    7  A    between atoms: C_22  and  C_23
REMARK                            x       y       z     vdW  Elec       q    Type
REMARK                         _______ _______ _______ _____ _____    ______ ____
ROOT
ATOM      1  O   UNL     1       1.045  -0.627  21.456  0.00  0.00    -0.273 OA
ATOM      5  N   UNL     1       0.132  -0.646  23.578  0.00  0.00    -0.299 N 
ATOM      8  C   UNL     1      -1.279  -0.710  25.495  0.00  0.00    +0.074 C 
ATOM      9  C   UNL     1      -1.541  -1.943  24.617  0.00  0.00    +0.032 C 
ATOM     10  C   UNL     1       0.087  -0.234  24.980  0.00  0.00    +0.119 C 
ATOM     11  C   UNL     1      -0.952  -1.564  23.264  0.00  0.00    +0.108 C 
ATOM     13  C   UNL     1       1.056  -0.249  22.629  0.00  0.00    +0.241 C 
ENDROOT
BRANCH   8  12
ATOM      6  N   UNL     1      -2.214   1.638  25.488  0.00  0.00    -0.330 N 
ATOM      7  N   UNL     1      -3.692  -0.006  25.260  0.00  0.00    -0.232 NA
ATOM     12  C   UNL     1      -2.420   0.288  25.411  0.00  0.00    +0.115 A 
ATOM     14  C   UNL     1      -3.434   2.255  25.380  0.00  0.00    +0.069 A 
ATOM     15  C   UNL     1      -4.340   1.208  25.239  0.00  0.00    +0.089 A 
ATOM     16  C   UNL     1      -0.939   2.300  25.653  0.00  0.00    +0.150 C 
ATOM     18  C   UNL     1      -3.811   3.598  25.393  0.00  0.00    +0.028 A 
ATOM     19  C   UNL     1      -5.707   1.499  25.102  0.00  0.00    +0.030 A 
ATOM     20  C   UNL     1      -5.176   3.870  25.255  0.00  0.00    +0.002 A 
ATOM     21  C   UNL     1      -6.109   2.841  25.112  0.00  0.00    +0.002 A 
ENDBRANCH   8  12
BRANCH  13  17
ATOM     17  C   UNL     1       2.113   0.712  23.111  0.00  0.00    +0.256 C 
BRANCH  17   2
ATOM      2  O   UNL     1       3.316   0.336  22.485  0.00  0.00    -0.359 OA
BRANCH   2  22
ATOM     22  C   UNL     1       4.457   0.877  23.147  0.00  0.00    +0.280 C 
BRANCH  22  23
ATOM      4  O   UNL     1       6.603  -0.261  23.182  0.00  0.00    -0.248 OA
ATOM     23  C   UNL     1       5.420  -0.226  23.486  0.00  0.00    +0.331 C 
BRANCH  23   3
ATOM      3  O   UNL     1       4.789  -1.199  24.191  0.00  0.00    -0.479 OA
ATOM     24  H   UNL     1       5.020  -2.095  23.866  0.00  0.00    +0.295 HD
ENDBRANCH  23   3
ENDBRANCH  22  23
ENDBRANCH   2  22
ENDBRANCH  17   2
ENDBRANCH  13  17
TORSDOF 6
ENDMDL
MODEL 3
REMARK VINA RESULT:      -3.5      1.927      3.617
REMARK  Name = 71693219
REMARK  7 active torsions:
REMARK  status: ('A' for Active; 'I' for Inactive)
REMARK    1  A    between atoms: O_2  and  C_17
REMARK    2  A    between atoms: O_2  and  C_22
REMARK    3  A    between atoms: O_3  and  C_23
REMARK    4  A    between atoms: N_6  and  C_16
REMARK    5  A    between atoms: C_8  and  C_12
REMARK    6  A    between atoms: C_13  and  C_17
REMARK    7  A    between atoms: C_22  and  C_23
REMARK                            x       y       z     vdW  Elec       q    Type
REMARK                         _______ _______ _______ _____ _____    ______ ____
ROOT
ATOM      1  O   UNL     1      -3.141   5.139  27.078  0.00  0.00    -0.273 OA
ATOM      5  N   UNL     1      -3.912   3.821  25.344  0.00  0.00    -0.299 N 
ATOM      8  C   UNL     1      -4.783   2.097  23.953  0.00  0.00    +0.074 C 
ATOM      9  C   UNL     1      -5.772   2.396  25.089  0.00  0.00    +0.032 C 
ATOM     10  C   UNL     1      -3.897   3.352  23.960  0.00  0.00    +0.119 C 
ATOM     11  C   UNL     1      -4.935   3.139  26.121  0.00  0.00    +0.108 C 
ATOM     13  C   UNL     1      -3.087   4.783  25.900  0.00  0.00    +0.241 C 
ENDROOT
BRANCH   8  12
ATOM      6  N   UNL     1      -2.811   0.537  23.700  0.00  0.00    -0.330 N 
ATOM      7  N   UNL     1      -4.573  -0.277  24.783  0.00  0.00    -0.232 NA
ATOM     12  C   UNL     1      -4.077   0.769  24.161  0.00  0.00    +0.115 A 
ATOM     14  C   UNL     1      -2.467  -0.744  24.047  0.00  0.00    +0.069 A 
ATOM     15  C   UNL     1      -3.583  -1.231  24.722  0.00  0.00    +0.089 A 
ATOM     16  C   UNL     1      -1.980   1.473  22.975  0.00  0.00    +0.150 C 
ATOM     18  C   UNL     1      -1.310  -1.496  23.835  0.00  0.00    +0.028 A 
ATOM     19  C   UNL     1      -3.561  -2.544  25.222  0.00  0.00    +0.030 A 
ATOM     20  C   UNL     1      -1.307  -2.800  24.340  0.00  0.00    +0.002 A 
ATOM     21  C   UNL     1      -2.411  -3.317  25.021  0.00  0.00    +0.002 A 
ENDBRANCH   8  12
BRANCH  13  17
ATOM     17  C   UNL     1      -2.073   5.390  24.964  0.00  0.00    +0.256 C 
BRANCH  17   2
ATOM      2  O   UNL     1      -0.812   4.916  25.374  0.00  0.00    -0.359 OA
BRANCH   2  22
ATOM     22  C   UNL     1      -0.402   3.772  24.628  0.00  0.00    +0.280 C 
BRANCH  22  23
ATOM      4  O   UNL     1      -0.425   2.525  26.713  0.00  0.00    -0.248 OA
ATOM     23  C   UNL     1      -0.023   2.661  25.566  0.00  0.00    +0.331 C 
BRANCH  23   3
ATOM      3  O   UNL     1       0.839   1.807  24.959  0.00  0.00    -0.479 OA
ATOM     24  H   UNL     1       1.452   2.276  24.353  0.00  0.00    +0.295 HD
ENDBRANCH  23   3
ENDBRANCH  22  23
ENDBRANCH   2  22
ENDBRANCH  17   2
ENDBRANCH  13  17
TORSDOF 6
ENDMDL
MODEL 4
REMARK VINA RESULT:      -2.5      2.687      6.459
REMARK  Name = 71693219
REMARK  7 active torsions:
REMARK  status: ('A' for Active; 'I' for Inactive)
REMARK    1  A    between atoms: O_2  and  C_17
REMARK    2  A    between atoms: O_2  and  C_22
REMARK    3  A    between atoms: O_3  and  C_23
REMARK    4  A    between atoms: N_6  and  C_16
REMARK    5  A    between atoms: C_8  and  C_12
REMARK    6  A    between atoms: C_13  and  C_17
REMARK    7  A    between atoms: C_22  and  C_23
REMARK                            x       y       z     vdW  Elec       q    Type
REMARK                         _______ _______ _______ _____ _____    ______ ____
ROOT
ATOM      1  O   UNL     1      -4.345  -2.456  22.875  0.00  0.00    -0.273 OA
ATOM      5  N   UNL     1      -4.359  -0.870  24.555  0.00  0.00    -0.299 N 
ATOM      8  C   UNL     1      -4.383   1.115  25.870  0.00  0.00    +0.074 C 
ATOM      9  C   UNL     1      -5.574   1.121  24.900  0.00  0.00    +0.032 C 
ATOM     10  C   UNL     1      -3.980  -0.367  25.875  0.00  0.00    +0.119 C 
ATOM     11  C   UNL     1      -5.199   0.085  23.849  0.00  0.00    +0.108 C 
ATOM     13  C   UNL     1      -3.998  -2.083  23.997  0.00  0.00    +0.241 C 
ENDROOT
BRANCH   8  12
ATOM      6  N   UNL     1      -3.428   3.447  25.686  0.00  0.00    -0.330 N 
ATOM      7  N   UNL     1      -2.193   1.812  24.824  0.00  0.00    -0.232 NA
ATOM     12  C   UNL     1      -3.313   2.106  25.447  0.00  0.00    +0.115 A 
ATOM     14  C   UNL     1      -2.307   4.059  25.186  0.00  0.00    +0.069 A 
ATOM     15  C   UNL     1      -1.553   3.018  24.653  0.00  0.00    +0.089 A 
ATOM     16  C   UNL     1      -4.531   4.106  26.350  0.00  0.00    +0.150 C 
ATOM     18  C   UNL     1      -1.902   5.394  25.154  0.00  0.00    +0.028 A 
ATOM     19  C   UNL     1      -0.318   3.306  24.049  0.00  0.00    +0.030 A 
ATOM     20  C   UNL     1      -0.670   5.663  24.549  0.00  0.00    +0.002 A 
ATOM     21  C   UNL     1       0.110   4.639  24.006  0.00  0.00    +0.002 A 
ENDBRANCH   8  12
BRANCH  13  17
ATOM     17  C   UNL     1      -3.117  -2.956  24.854  0.00  0.00    +0.256 C 
BRANCH  17   2
ATOM      2  O   UNL     1      -1.819  -2.871  24.316  0.00  0.00    -0.359 OA
BRANCH   2  22
ATOM     22  C   UNL     1      -0.878  -2.367  25.262  0.00  0.00    +0.280 C 
BRANCH  22  23
ATOM      4  O   UNL     1      -0.025  -0.691  23.723  0.00  0.00    -0.248 OA
ATOM     23  C   UNL     1      -0.413  -1.001  24.840  0.00  0.00    +0.331 C 
BRANCH  23   3
ATOM      3  O   UNL     1      -0.484  -0.139  25.885  0.00  0.00    -0.479 OA
ATOM     24  H   UNL     1      -1.411   0.090  26.108  0.00  0.00    +0.295 HD
ENDBRANCH  23   3
ENDBRANCH  22  23
ENDBRANCH   2  22
ENDBRANCH  17   2
ENDBRANCH  13  17
TORSDOF 6
ENDMDL
MODEL 5
REMARK VINA RESULT:      -2.0      2.488      5.496
REMARK  Name = 71693219
REMARK  7 active torsions:
REMARK  status: ('A' for Active; 'I' for Inactive)
REMARK    1  A    between atoms: O_2  and  C_17
REMARK    2  A    between atoms: O_2  and  C_22
REMARK    3  A    between atoms: O_3  and  C_23
REMARK    4  A    between atoms: N_6  and  C_16
REMARK    5  A    between atoms: C_8  and  C_12
REMARK    6  A    between atoms: C_13  and  C_17
REMARK    7  A    between atoms: C_22  and  C_23
REMARK                            x       y       z     vdW  Elec       q    Type
REMARK                         _______ _______ _______ _____ _____    ______ ____
ROOT
ATOM      1  O   UNL     1       0.031  -1.947  26.060  0.00  0.00    -0.273 OA
ATOM      5  N   UNL     1      -0.488  -0.186  24.658  0.00  0.00    -0.299 N 
ATOM      8  C   UNL     1      -1.134   1.886  23.680  0.00  0.00    +0.074 C 
ATOM      9  C   UNL     1      -0.015   2.123  24.705  0.00  0.00    +0.032 C 
ATOM     10  C   UNL     1      -1.013   0.378  23.416  0.00  0.00    +0.119 C 
ATOM     11  C   UNL     1      -0.020   0.860  25.555  0.00  0.00    +0.108 C 
ATOM     13  C   UNL     1      -0.420  -1.526  24.994  0.00  0.00    +0.241 C 
ENDROOT
BRANCH   8  12
ATOM      6  N   UNL     1      -2.645   3.641  24.690  0.00  0.00    -0.330 N 
ATOM      7  N   UNL     1      -3.591   1.685  24.220  0.00  0.00    -0.232 NA
ATOM     12  C   UNL     1      -2.475   2.379  24.192  0.00  0.00    +0.115 A 
ATOM     14  C   UNL     1      -3.958   3.770  25.064  0.00  0.00    +0.069 A 
ATOM     15  C   UNL     1      -4.527   2.536  24.761  0.00  0.00    +0.089 A 
ATOM     16  C   UNL     1      -1.626   4.661  24.803  0.00  0.00    +0.150 C 
ATOM     18  C   UNL     1      -4.675   4.828  25.625  0.00  0.00    +0.028 A 
ATOM     19  C   UNL     1      -5.891   2.327  25.026  0.00  0.00    +0.030 A 
ATOM     20  C   UNL     1      -6.031   4.602  25.882  0.00  0.00    +0.002 A 
ATOM     21  C   UNL     1      -6.631   3.375  25.589  0.00  0.00    +0.002 A 
ENDBRANCH   8  12
BRANCH  13  17
ATOM     17  C   UNL     1      -0.954  -2.484  23.959  0.00  0.00    +0.256 C 
BRANCH  17   2
ATOM      2  O   UNL     1      -2.029  -3.166  24.558  0.00  0.00    -0.359 OA
BRANCH   2  22
ATOM     22  C   UNL     1      -3.287  -2.755  24.027  0.00  0.00    +0.280 C 
BRANCH  22  23
ATOM      4  O   UNL     1      -3.577  -1.401  26.023  0.00  0.00    -0.248 OA
ATOM     23  C   UNL     1      -3.847  -1.632  24.854  0.00  0.00    +0.331 C 
BRANCH  23   3
ATOM      3  O   UNL     1      -4.711  -0.891  24.115  0.00  0.00    -0.479 OA
ATOM     24  H   UNL     1      -5.633  -1.214  24.196  0.00  0.00    +0.295 HD
ENDBRANCH  23   3
ENDBRANCH  22  23
ENDBRANCH   2  22
ENDBRANCH  17   2
ENDBRANCH  13  17
TORSDOF 6
ENDMDL
MODEL 6
REMARK VINA RESULT:      -1.8      3.815      6.349
REMARK  Name = 71693219
REMARK  7 active torsions:
REMARK  status: ('A' for Active; 'I' for Inactive)
REMARK    1  A    between atoms: O_2  and  C_17
REMARK    2  A    between atoms: O_2  and  C_22
REMARK    3  A    between atoms: O_3  and  C_23
REMARK    4  A    between atoms: N_6  and  C_16
REMARK    5  A    between atoms: C_8  and  C_12
REMARK    6  A    between atoms: C_13  and  C_17
REMARK    7  A    between atoms: C_22  and  C_23
REMARK                            x       y       z     vdW  Elec       q    Type
REMARK                         _______ _______ _______ _____ _____    ______ ____
ROOT
ATOM      1  O   UNL     1       1.129  -1.253  24.305  0.00  0.00    -0.273 OA
ATOM      5  N   UNL     1       0.381   0.928  24.449  0.00  0.00    -0.299 N 
ATOM      8  C   UNL     1      -0.700   2.977  24.997  0.00  0.00    +0.074 C 
ATOM      9  C   UNL     1      -0.042   2.385  26.253  0.00  0.00    +0.032 C 
ATOM     10  C   UNL     1       0.022   2.222  23.871  0.00  0.00    +0.119 C 
ATOM     11  C   UNL     1       0.195   0.925  25.892  0.00  0.00    +0.108 C 
ATOM     13  C   UNL     1       0.843  -0.183  23.766  0.00  0.00    +0.241 C 
ENDROOT
BRANCH   8  12
ATOM      6  N   UNL     1      -3.025   3.891  25.375  0.00  0.00    -0.330 N 
ATOM      7  N   UNL     1      -2.897   1.754  24.778  0.00  0.00    -0.232 NA
ATOM     12  C   UNL     1      -2.211   2.844  25.042  0.00  0.00    +0.115 A 
ATOM     14  C   UNL     1      -4.322   3.447  25.322  0.00  0.00    +0.069 A 
ATOM     15  C   UNL     1      -4.215   2.111  24.947  0.00  0.00    +0.089 A 
ATOM     16  C   UNL     1      -2.599   5.229  25.721  0.00  0.00    +0.150 C 
ATOM     18  C   UNL     1      -5.542   4.080  25.564  0.00  0.00    +0.028 A 
ATOM     19  C   UNL     1      -5.384   1.345  24.799  0.00  0.00    +0.030 A 
ATOM     20  C   UNL     1      -6.694   3.303  25.411  0.00  0.00    +0.002 A 
ATOM     21  C   UNL     1      -6.620   1.960  25.036  0.00  0.00    +0.002 A 
ENDBRANCH   8  12
BRANCH  13  17
ATOM     17  C   UNL     1       0.973  -0.020  22.273  0.00  0.00    +0.256 C 
BRANCH  17   2
ATOM      2  O   UNL     1       2.325  -0.259  21.959  0.00  0.00    -0.359 OA
BRANCH   2  22
ATOM     22  C   UNL     1       3.184   0.747  22.490  0.00  0.00    +0.280 C 
BRANCH  22  23
ATOM      4  O   UNL     1       5.385   0.634  23.512  0.00  0.00    -0.248 OA
ATOM     23  C   UNL     1       4.318   0.105  23.239  0.00  0.00    +0.331 C 
BRANCH  23   3
ATOM      3  O   UNL     1       3.992  -1.167  23.583  0.00  0.00    -0.479 OA
ATOM     24  H   UNL     1       4.111  -1.790  22.834  0.00  0.00    +0.295 HD
ENDBRANCH  23   3
ENDBRANCH  22  23
ENDBRANCH   2  22
ENDBRANCH  17   2
ENDBRANCH  13  17
TORSDOF 6
ENDMDL
MODEL 7
REMARK VINA RESULT:      -1.0      2.360      4.793
REMARK  Name = 71693219
REMARK  7 active torsions:
REMARK  status: ('A' for Active; 'I' for Inactive)
REMARK    1  A    between atoms: O_2  and  C_17
REMARK    2  A    between atoms: O_2  and  C_22
REMARK    3  A    between atoms: O_3  and  C_23
REMARK    4  A    between atoms: N_6  and  C_16
REMARK    5  A    between atoms: C_8  and  C_12
REMARK    6  A    between atoms: C_13  and  C_17
REMARK    7  A    between atoms: C_22  and  C_23
REMARK                            x       y       z     vdW  Elec       q    Type
REMARK                         _______ _______ _______ _____ _____    ______ ____
ROOT
ATOM      1  O   UNL     1       1.207  -0.403  21.625  0.00  0.00    -0.273 OA
ATOM      5  N   UNL     1       0.117  -0.708  23.639  0.00  0.00    -0.299 N 
ATOM      8  C   UNL     1      -1.450  -1.034  25.401  0.00  0.00    +0.074 C 
ATOM      9  C   UNL     1      -1.612  -2.143  24.351  0.00  0.00    +0.032 C 
ATOM     10  C   UNL     1      -0.054  -0.483  25.073  0.00  0.00    +0.119 C 
ATOM     11  C   UNL     1      -0.918  -1.585  23.115  0.00  0.00    +0.108 C 
ATOM     13  C   UNL     1       1.111  -0.182  22.833  0.00  0.00    +0.241 C 
ENDROOT
BRANCH   8  12
ATOM      6  N   UNL     1      -3.864  -0.413  24.986  0.00  0.00    -0.330 N 
ATOM      7  N   UNL     1      -2.525   1.239  25.633  0.00  0.00    -0.232 NA
ATOM     12  C   UNL     1      -2.599  -0.043  25.349  0.00  0.00    +0.115 A 
ATOM     14  C   UNL     1      -4.659   0.703  25.040  0.00  0.00    +0.069 A 
ATOM     15  C   UNL     1      -3.800   1.720  25.446  0.00  0.00    +0.089 A 
ATOM     16  C   UNL     1      -4.292  -1.743  24.612  0.00  0.00    +0.150 C 
ATOM     18  C   UNL     1      -6.015   0.904  24.775  0.00  0.00    +0.028 A 
ATOM     19  C   UNL     1      -4.306   3.021  25.603  0.00  0.00    +0.030 A 
ATOM     20  C   UNL     1      -6.501   2.205  24.938  0.00  0.00    +0.002 A 
ATOM     21  C   UNL     1      -5.664   3.246  25.344  0.00  0.00    +0.002 A 
ENDBRANCH   8  12
BRANCH  13  17
ATOM     17  C   UNL     1       2.104   0.716  23.527  0.00  0.00    +0.256 C 
BRANCH  17   2
ATOM      2  O   UNL     1       1.553   2.011  23.512  0.00  0.00    -0.359 OA
BRANCH   2  22
ATOM     22  C   UNL     1       0.708   2.247  24.636  0.00  0.00    +0.280 C 
BRANCH  22  23
ATOM      4  O   UNL     1      -0.667   4.250  24.646  0.00  0.00    -0.248 OA
ATOM     23  C   UNL     1      -0.445   3.122  24.232  0.00  0.00    +0.331 C 
BRANCH  23   3
ATOM      3  O   UNL     1      -1.224   2.482  23.323  0.00  0.00    -0.479 OA
ATOM     24  H   UNL     1      -1.054   2.796  22.410  0.00  0.00    +0.295 HD
ENDBRANCH  23   3
ENDBRANCH  22  23
ENDBRANCH   2  22
ENDBRANCH  17   2
ENDBRANCH  13  17
TORSDOF 6
ENDMDL
MODEL 8
REMARK VINA RESULT:      -0.7      2.497      4.597
REMARK  Name = 71693219
REMARK  7 active torsions:
REMARK  status: ('A' for Active; 'I' for Inactive)
REMARK    1  A    between atoms: O_2  and  C_17
REMARK    2  A    between atoms: O_2  and  C_22
REMARK    3  A    between atoms: O_3  and  C_23
REMARK    4  A    between atoms: N_6  and  C_16
REMARK    5  A    between atoms: C_8  and  C_12
REMARK    6  A    between atoms: C_13  and  C_17
REMARK    7  A    between atoms: C_22  and  C_23
REMARK                            x       y       z     vdW  Elec       q    Type
REMARK                         _______ _______ _______ _____ _____    ______ ____
ROOT
ATOM      1  O   UNL     1      -5.169   3.069  23.805  0.00  0.00    -0.273 OA
ATOM      5  N   UNL     1      -3.192   2.911  24.989  0.00  0.00    -0.299 N 
ATOM      8  C   UNL     1      -0.933   2.915  25.741  0.00  0.00    +0.074 C 
ATOM      9  C   UNL     1      -1.294   4.297  25.175  0.00  0.00    +0.032 C 
ATOM     10  C   UNL     1      -2.318   2.298  25.988  0.00  0.00    +0.119 C 
ATOM     11  C   UNL     1      -2.541   4.039  24.341  0.00  0.00    +0.108 C 
ATOM     13  C   UNL     1      -4.475   2.515  24.660  0.00  0.00    +0.241 C 
ENDROOT
BRANCH   8  12
ATOM      6  N   UNL     1      -0.378   0.977  24.218  0.00  0.00    -0.330 N 
ATOM      7  N   UNL     1       1.210   2.513  24.469  0.00  0.00    -0.232 NA
ATOM     12  C   UNL     1      -0.008   2.154  24.809  0.00  0.00    +0.115 A 
ATOM     14  C   UNL     1       0.671   0.549  23.445  0.00  0.00    +0.069 A 
ATOM     15  C   UNL     1       1.649   1.524  23.618  0.00  0.00    +0.089 A 
ATOM     16  C   UNL     1      -1.647   0.303  24.375  0.00  0.00    +0.150 C 
ATOM     18  C   UNL     1       0.843  -0.573  22.633  0.00  0.00    +0.028 A 
ATOM     19  C   UNL     1       2.878   1.388  22.951  0.00  0.00    +0.030 A 
ATOM     20  C   UNL     1       2.071  -0.692  21.976  0.00  0.00    +0.002 A 
ATOM     21  C   UNL     1       3.072   0.269  22.131  0.00  0.00    +0.002 A 
ENDBRANCH   8  12
BRANCH  13  17
ATOM     17  C   UNL     1      -5.003   1.323  25.417  0.00  0.00    +0.256 C 
BRANCH  17   2
ATOM      2  O   UNL     1      -4.768   0.196  24.608  0.00  0.00    -0.359 OA
BRANCH   2  22
ATOM     22  C   UNL     1      -4.007  -0.801  25.286  0.00  0.00    +0.280 C 
BRANCH  22  23
ATOM      4  O   UNL     1      -4.476  -2.213  23.365  0.00  0.00    -0.248 OA
ATOM     23  C   UNL     1      -4.000  -2.071  24.481  0.00  0.00    +0.331 C 
BRANCH  23   3
ATOM      3  O   UNL     1      -3.380  -3.060  25.173  0.00  0.00    -0.479 OA
ATOM     24  H   UNL     1      -3.198  -2.800  26.101  0.00  0.00    +0.295 HD
ENDBRANCH  23   3
ENDBRANCH  22  23
ENDBRANCH   2  22
ENDBRANCH  17   2
ENDBRANCH  13  17
TORSDOF 6
ENDMDL
MODEL 9
REMARK VINA RESULT:      -0.0      2.584      5.592
REMARK  Name = 71693219
REMARK  7 active torsions:
REMARK  status: ('A' for Active; 'I' for Inactive)
REMARK    1  A    between atoms: O_2  and  C_17
REMARK    2  A    between atoms: O_2  and  C_22
REMARK    3  A    between atoms: O_3  and  C_23
REMARK    4  A    between atoms: N_6  and  C_16
REMARK    5  A    between atoms: C_8  and  C_12
REMARK    6  A    between atoms: C_13  and  C_17
REMARK    7  A    between atoms: C_22  and  C_23
REMARK                            x       y       z     vdW  Elec       q    Type
REMARK                         _______ _______ _______ _____ _____    ______ ____
ROOT
ATOM      1  O   UNL     1       0.149  -2.416  25.729  0.00  0.00    -0.273 OA
ATOM      5  N   UNL     1      -0.241  -0.648  24.293  0.00  0.00    -0.299 N 
ATOM      8  C   UNL     1      -0.583   1.471  23.265  0.00  0.00    +0.074 C 
ATOM      9  C   UNL     1       0.760   1.467  24.010  0.00  0.00    +0.032 C 
ATOM     10  C   UNL     1      -0.882  -0.030  23.135  0.00  0.00    +0.119 C 
ATOM     11  C   UNL     1       0.648   0.287  24.966  0.00  0.00    +0.108 C 
ATOM     13  C   UNL     1      -0.417  -1.946  24.741  0.00  0.00    +0.241 C 
ENDROOT
BRANCH   8  12
ATOM      6  N   UNL     1      -2.845   2.584  23.443  0.00  0.00    -0.330 N 
ATOM      7  N   UNL     1      -1.483   2.849  25.179  0.00  0.00    -0.232 NA
ATOM     12  C   UNL     1      -1.622   2.308  23.990  0.00  0.00    +0.115 A 
ATOM     14  C   UNL     1      -3.541   3.353  24.340  0.00  0.00    +0.069 A 
ATOM     15  C   UNL     1      -2.669   3.505  25.415  0.00  0.00    +0.089 A 
ATOM     16  C   UNL     1      -3.324   2.144  22.152  0.00  0.00    +0.150 C 
ATOM     18  C   UNL     1      -4.818   3.913  24.305  0.00  0.00    +0.028 A 
ATOM     19  C   UNL     1      -3.080   4.256  26.529  0.00  0.00    +0.030 A 
ATOM     20  C   UNL     1      -5.210   4.657  25.422  0.00  0.00    +0.002 A 
ATOM     21  C   UNL     1      -4.359   4.827  26.515  0.00  0.00    +0.002 A 
ENDBRANCH   8  12
BRANCH  13  17
ATOM     17  C   UNL     1      -1.378  -2.786  23.939  0.00  0.00    +0.256 C 
BRANCH  17   2
ATOM      2  O   UNL     1      -2.524  -2.959  24.737  0.00  0.00    -0.359 OA
BRANCH   2  22
ATOM     22  C   UNL     1      -3.664  -2.301  24.189  0.00  0.00    +0.280 C 
BRANCH  22  23
ATOM      4  O   UNL     1      -4.545  -0.066  24.552  0.00  0.00    -0.248 OA
ATOM     23  C   UNL     1      -3.955  -1.051  24.971  0.00  0.00    +0.331 C 
BRANCH  23   3
ATOM      3  O   UNL     1      -3.469  -1.163  26.233  0.00  0.00    -0.479 OA
ATOM     24  H   UNL     1      -2.531  -0.881  26.290  0.00  0.00    +0.295 HD
ENDBRANCH  23   3
ENDBRANCH  22  23
ENDBRANCH   2  22
ENDBRANCH  17   2
ENDBRANCH  13  17
TORSDOF 6
ENDMDL
MODEL 10
REMARK VINA RESULT:      -0.0      2.257      3.933
REMARK  Name = 71693219
REMARK  7 active torsions:
REMARK  status: ('A' for Active; 'I' for Inactive)
REMARK    1  A    between atoms: O_2  and  C_17
REMARK    2  A    between atoms: O_2  and  C_22
REMARK    3  A    between atoms: O_3  and  C_23
REMARK    4  A    between atoms: N_6  and  C_16
REMARK    5  A    between atoms: C_8  and  C_12
REMARK    6  A    between atoms: C_13  and  C_17
REMARK    7  A    between atoms: C_22  and  C_23
REMARK                            x       y       z     vdW  Elec       q    Type
REMARK                         _______ _______ _______ _____ _____    ______ ____
ROOT
ATOM      1  O   UNL     1      -2.662   5.514  24.973  0.00  0.00    -0.273 OA
ATOM      5  N   UNL     1      -1.998   3.345  25.407  0.00  0.00    -0.299 N 
ATOM      8  C   UNL     1      -0.815   1.315  25.793  0.00  0.00    +0.074 C 
ATOM      9  C   UNL     1      -0.316   2.399  26.760  0.00  0.00    +0.032 C 
ATOM     10  C   UNL     1      -2.160   1.894  25.330  0.00  0.00    +0.119 C 
ATOM     11  C   UNL     1      -0.787   3.702  26.129  0.00  0.00    +0.108 C 
ATOM     13  C   UNL     1      -2.849   4.300  24.881  0.00  0.00    +0.241 C 
ENDROOT
BRANCH   8  12
ATOM      6  N   UNL     1       0.001   0.058  23.760  0.00  0.00    -0.330 N 
ATOM      7  N   UNL     1       1.361   1.627  24.552  0.00  0.00    -0.232 NA
ATOM     12  C   UNL     1       0.205   1.021  24.709  0.00  0.00    +0.115 A 
ATOM     14  C   UNL     1       1.098   0.042  22.936  0.00  0.00    +0.069 A 
ATOM     15  C   UNL     1       1.932   1.030  23.452  0.00  0.00    +0.089 A 
ATOM     16  C   UNL     1      -1.161  -0.794  23.641  0.00  0.00    +0.150 C 
ATOM     18  C   UNL     1       1.423  -0.729  21.819  0.00  0.00    +0.028 A 
ATOM     19  C   UNL     1       3.166   1.278  22.829  0.00  0.00    +0.030 A 
ATOM     20  C   UNL     1       2.655  -0.468  21.212  0.00  0.00    +0.002 A 
ATOM     21  C   UNL     1       3.513   0.517  21.706  0.00  0.00    +0.002 A 
ENDBRANCH   8  12
BRANCH  13  17
ATOM     17  C   UNL     1      -4.057   3.766  24.153  0.00  0.00    +0.256 C 
BRANCH  17   2
ATOM      2  O   UNL     1      -5.166   4.004  24.987  0.00  0.00    -0.359 OA
BRANCH   2  22
ATOM     22  C   UNL     1      -5.401   2.922  25.886  0.00  0.00    +0.280 C 
BRANCH  22  23
ATOM      4  O   UNL     1      -5.093   0.713  24.922  0.00  0.00    -0.248 OA
ATOM     23  C   UNL     1      -5.796   1.694  25.114  0.00  0.00    +0.331 C 
BRANCH  23   3
ATOM      3  O   UNL     1      -7.065   1.821  24.650  0.00  0.00    -0.479 OA
ATOM     24  H   UNL     1      -7.487   0.948  24.495  0.00  0.00    +0.295 HD
ENDBRANCH  23   3
ENDBRANCH  22  23
ENDBRANCH   2  22
ENDBRANCH  17   2
ENDBRANCH  13  17
TORSDOF 6
ENDMDL
