MODEL 1
REMARK VINA RESULT:      -4.6      0.000      0.000
REMARK  Name = 75537105
REMARK  3 active torsions:
REMARK  status: ('A' for Active; 'I' for Inactive)
REMARK    1  A    between atoms: N_3  and  C_12
REMARK    2  A    between atoms: N_4  and  C_13
REMARK    3  A    between atoms: C_12  and  C_14
REMARK                            x       y       z     vdW  Elec       q    Type
REMARK                         _______ _______ _______ _____ _____    ______ ____
ROOT
ATOM      1  O   UNL     1      -1.428 -10.347  15.435  0.00  0.00    -0.252 OA
ATOM      2  N   UNL     1      -2.586 -10.524  13.399  0.00  0.00    -0.278 N 
ATOM      3  N   UNL     1      -3.299  -9.998  10.730  0.00  0.00    -0.295 NA
ATOM      4  N   UNL     1      -3.776 -10.511  15.303  0.00  0.00    -0.287 N 
ATOM      6  C   UNL     1      -3.951 -10.763  12.977  0.00  0.00    +0.109 C 
ATOM      7  C   UNL     1      -4.309  -9.858  11.800  0.00  0.00    +0.109 C 
ATOM      8  C   UNL     1      -4.770 -10.524  14.243  0.00  0.00    +0.132 C 
ATOM      9  C   UNL     1      -1.533 -10.491  12.407  0.00  0.00    +0.125 C 
ATOM     10  C   UNL     1      -1.958  -9.623  11.220  0.00  0.00    +0.104 C 
ATOM     11  C   UNL     1      -2.464 -10.452  14.793  0.00  0.00    +0.305 C 
ATOM     13  C   UNL     1      -4.146 -10.418  16.699  0.00  0.00    +0.133 C 
ENDROOT
BRANCH   3  12
ATOM     12  C   UNL     1      -3.666  -9.181   9.574  0.00  0.00    +0.121 C 
BRANCH  12  14
ATOM      5  N   UNL     1      -7.326  -8.332   9.110  0.00  0.00    -0.263 NA
ATOM     14  C   UNL     1      -5.124  -9.323   9.226  0.00  0.00    -0.015 A 
ATOM     15  C   UNL     1      -5.626 -10.517   8.718  0.00  0.00    +0.008 A 
ATOM     16  C   UNL     1      -6.007  -8.270   9.401  0.00  0.00    +0.115 A 
ATOM     17  C   UNL     1      -6.977 -10.619   8.407  0.00  0.00    +0.020 A 
ATOM     18  C   UNL     1      -7.778  -9.509   8.619  0.00  0.00    +0.111 A 
ENDBRANCH  12  14
ENDBRANCH   3  12
TORSDOF 2
ENDMDL
MODEL 2
REMARK VINA RESULT:      -4.6     16.461     17.895
REMARK  Name = 75537105
REMARK  3 active torsions:
REMARK  status: ('A' for Active; 'I' for Inactive)
REMARK    1  A    between atoms: N_3  and  C_12
REMARK    2  A    between atoms: N_4  and  C_13
REMARK    3  A    between atoms: C_12  and  C_14
REMARK                            x       y       z     vdW  Elec       q    Type
REMARK                         _______ _______ _______ _____ _____    ______ ____
ROOT
ATOM      1  O   UNL     1      -2.836   3.697  25.729  0.00  0.00    -0.252 OA
ATOM      2  N   UNL     1      -1.532   1.876  25.020  0.00  0.00    -0.278 N 
ATOM      3  N   UNL     1       0.519   0.469  23.708  0.00  0.00    -0.295 NA
ATOM      4  N   UNL     1      -3.768   1.670  24.967  0.00  0.00    -0.287 N 
ATOM      6  C   UNL     1      -1.762   0.499  24.633  0.00  0.00    +0.109 C 
ATOM      7  C   UNL     1      -0.893   0.134  23.431  0.00  0.00    +0.109 C 
ATOM      8  C   UNL     1      -3.266   0.439  24.380  0.00  0.00    +0.132 C 
ATOM      9  C   UNL     1      -0.175   2.352  25.175  0.00  0.00    +0.125 C 
ATOM     10  C   UNL     1       0.674   1.912  23.979  0.00  0.00    +0.104 C 
ATOM     11  C   UNL     1      -2.725   2.557  25.298  0.00  0.00    +0.305 C 
ATOM     13  C   UNL     1      -5.183   1.962  25.042  0.00  0.00    +0.133 C 
ENDROOT
BRANCH   3  12
ATOM     12  C   UNL     1       1.368   0.067  22.588  0.00  0.00    +0.121 C 
BRANCH  12  14
ATOM      5  N   UNL     1       4.545  -1.481  23.944  0.00  0.00    -0.263 NA
ATOM     14  C   UNL     1       2.807  -0.090  23.001  0.00  0.00    -0.015 A 
ATOM     15  C   UNL     1       3.715   0.951  22.843  0.00  0.00    +0.008 A 
ATOM     16  C   UNL     1       3.268  -1.275  23.552  0.00  0.00    +0.115 A 
ATOM     17  C   UNL     1       5.038   0.777  23.235  0.00  0.00    +0.020 A 
ATOM     18  C   UNL     1       5.399  -0.447  23.775  0.00  0.00    +0.111 A 
ENDBRANCH  12  14
ENDBRANCH   3  12
TORSDOF 2
ENDMDL
MODEL 3
REMARK VINA RESULT:      -3.8      1.817      2.773
REMARK  Name = 75537105
REMARK  3 active torsions:
REMARK  status: ('A' for Active; 'I' for Inactive)
REMARK    1  A    between atoms: N_3  and  C_12
REMARK    2  A    between atoms: N_4  and  C_13
REMARK    3  A    between atoms: C_12  and  C_14
REMARK                            x       y       z     vdW  Elec       q    Type
REMARK                         _______ _______ _______ _____ _____    ______ ____
ROOT
ATOM      1  O   UNL     1      -0.969  -9.890  11.878  0.00  0.00    -0.252 OA
ATOM      2  N   UNL     1      -3.265 -10.050  11.408  0.00  0.00    -0.278 N 
ATOM      3  N   UNL     1      -5.780  -9.377  10.344  0.00  0.00    -0.295 NA
ATOM      4  N   UNL     1      -2.579 -10.443  13.510  0.00  0.00    -0.287 N 
ATOM      6  C   UNL     1      -4.460 -10.475  12.108  0.00  0.00    +0.109 C 
ATOM      7  C   UNL     1      -5.619  -9.527  11.805  0.00  0.00    +0.109 C 
ATOM      8  C   UNL     1      -4.028 -10.516  13.572  0.00  0.00    +0.132 C 
ATOM      9  C   UNL     1      -3.344  -9.732   9.999  0.00  0.00    +0.125 C 
ATOM     10  C   UNL     1      -4.553  -8.830   9.732  0.00  0.00    +0.104 C 
ATOM     11  C   UNL     1      -2.124 -10.105  12.220  0.00  0.00    +0.305 C 
ATOM     13  C   UNL     1      -1.754 -10.562  14.694  0.00  0.00    +0.133 C 
ENDROOT
BRANCH   3  12
ATOM     12  C   UNL     1      -6.925  -8.520  10.044  0.00  0.00    +0.121 C 
BRANCH  12  14
ATOM      5  N   UNL     1     -10.302 -10.205  10.332  0.00  0.00    -0.263 NA
ATOM     14  C   UNL     1      -8.148  -9.321   9.683  0.00  0.00    -0.015 A 
ATOM     15  C   UNL     1      -8.276  -9.908   8.429  0.00  0.00    +0.008 A 
ATOM     16  C   UNL     1      -9.180  -9.498  10.591  0.00  0.00    +0.115 A 
ATOM     17  C   UNL     1      -9.416 -10.643   8.125  0.00  0.00    +0.020 A 
ATOM     18  C   UNL     1     -10.391 -10.761   9.102  0.00  0.00    +0.111 A 
ENDBRANCH  12  14
ENDBRANCH   3  12
TORSDOF 2
ENDMDL
MODEL 4
REMARK VINA RESULT:      -3.3     15.546     18.032
REMARK  Name = 75537105
REMARK  3 active torsions:
REMARK  status: ('A' for Active; 'I' for Inactive)
REMARK    1  A    between atoms: N_3  and  C_12
REMARK    2  A    between atoms: N_4  and  C_13
REMARK    3  A    between atoms: C_12  and  C_14
REMARK                            x       y       z     vdW  Elec       q    Type
REMARK                         _______ _______ _______ _____ _____    ______ ____
ROOT
ATOM      1  O   UNL     1      -3.203   5.248  26.454  0.00  0.00    -0.252 OA
ATOM      2  N   UNL     1      -3.812   3.420  25.111  0.00  0.00    -0.278 N 
ATOM      3  N   UNL     1      -4.837   0.892  24.426  0.00  0.00    -0.295 NA
ATOM      4  N   UNL     1      -1.809   4.374  24.765  0.00  0.00    -0.287 N 
ATOM      6  C   UNL     1      -3.280   2.738  23.949  0.00  0.00    +0.109 C 
ATOM      7  C   UNL     1      -3.434   1.226  24.103  0.00  0.00    +0.109 C 
ATOM      8  C   UNL     1      -1.838   3.232  23.867  0.00  0.00    +0.132 C 
ATOM      9  C   UNL     1      -5.125   3.061  25.604  0.00  0.00    +0.125 C 
ATOM     10  C   UNL     1      -5.256   1.538  25.686  0.00  0.00    +0.104 C 
ATOM     11  C   UNL     1      -2.974   4.451  25.555  0.00  0.00    +0.305 C 
ATOM     13  C   UNL     1      -0.637   5.212  24.902  0.00  0.00    +0.133 C 
ENDROOT
BRANCH   3  12
ATOM     12  C   UNL     1      -5.007  -0.558  24.515  0.00  0.00    +0.121 C 
BRANCH  12  14
ATOM      5  N   UNL     1      -1.490  -1.335  25.682  0.00  0.00    -0.263 NA
ATOM     14  C   UNL     1      -3.690  -1.269  24.681  0.00  0.00    -0.015 A 
ATOM     15  C   UNL     1      -3.436  -2.467  24.024  0.00  0.00    +0.008 A 
ATOM     16  C   UNL     1      -2.693  -0.749  25.491  0.00  0.00    +0.115 A 
ATOM     17  C   UNL     1      -2.210  -3.100  24.195  0.00  0.00    +0.020 A 
ATOM     18  C   UNL     1      -1.280  -2.499  25.026  0.00  0.00    +0.111 A 
ENDBRANCH  12  14
ENDBRANCH   3  12
TORSDOF 2
ENDMDL
MODEL 5
REMARK VINA RESULT:      -3.1     15.107     17.521
REMARK  Name = 75537105
REMARK  3 active torsions:
REMARK  status: ('A' for Active; 'I' for Inactive)
REMARK    1  A    between atoms: N_3  and  C_12
REMARK    2  A    between atoms: N_4  and  C_13
REMARK    3  A    between atoms: C_12  and  C_14
REMARK                            x       y       z     vdW  Elec       q    Type
REMARK                         _______ _______ _______ _____ _____    ______ ____
ROOT
ATOM      1  O   UNL     1       0.030   4.428  23.200  0.00  0.00    -0.252 OA
ATOM      2  N   UNL     1       0.004   2.487  24.523  0.00  0.00    -0.278 N 
ATOM      3  N   UNL     1      -0.134  -0.246  25.172  0.00  0.00    -0.295 NA
ATOM      4  N   UNL     1      -1.201   4.256  25.204  0.00  0.00    -0.287 N 
ATOM      6  C   UNL     1      -0.513   2.098  25.819  0.00  0.00    +0.109 C 
ATOM      7  C   UNL     1      -1.114   0.695  25.753  0.00  0.00    +0.109 C 
ATOM      8  C   UNL     1      -1.507   3.207  26.161  0.00  0.00    +0.132 C 
ATOM      9  C   UNL     1       0.857   1.572  23.797  0.00  0.00    +0.125 C 
ATOM     10  C   UNL     1       0.248   0.167  23.807  0.00  0.00    +0.104 C 
ATOM     11  C   UNL     1      -0.338   3.804  24.186  0.00  0.00    +0.305 C 
ATOM     13  C   UNL     1      -1.851   5.548  25.250  0.00  0.00    +0.133 C 
ENDROOT
BRANCH   3  12
ATOM     12  C   UNL     1      -0.677  -1.603  25.161  0.00  0.00    +0.121 C 
BRANCH  12  14
ATOM      5  N   UNL     1      -4.090  -0.418  24.030  0.00  0.00    -0.263 NA
ATOM     14  C   UNL     1      -2.104  -1.633  24.681  0.00  0.00    -0.015 A 
ATOM     15  C   UNL     1      -2.756  -2.839  24.447  0.00  0.00    +0.008 A 
ATOM     16  C   UNL     1      -2.809  -0.461  24.459  0.00  0.00    +0.115 A 
ATOM     17  C   UNL     1      -4.074  -2.836  24.006  0.00  0.00    +0.020 A 
ATOM     18  C   UNL     1      -4.691  -1.610  23.814  0.00  0.00    +0.111 A 
ENDBRANCH  12  14
ENDBRANCH   3  12
TORSDOF 2
ENDMDL
MODEL 6
REMARK VINA RESULT:      -2.9     15.335     17.213
REMARK  Name = 75537105
REMARK  3 active torsions:
REMARK  status: ('A' for Active; 'I' for Inactive)
REMARK    1  A    between atoms: N_3  and  C_12
REMARK    2  A    between atoms: N_4  and  C_13
REMARK    3  A    between atoms: C_12  and  C_14
REMARK                            x       y       z     vdW  Elec       q    Type
REMARK                         _______ _______ _______ _____ _____    ______ ____
ROOT
ATOM      1  O   UNL     1      -3.928   0.409  25.032  0.00  0.00    -0.252 OA
ATOM      2  N   UNL     1      -1.630   0.062  24.688  0.00  0.00    -0.278 N 
ATOM      3  N   UNL     1       0.970   0.485  23.704  0.00  0.00    -0.295 NA
ATOM      4  N   UNL     1      -2.999  -1.716  24.599  0.00  0.00    -0.287 N 
ATOM      6  C   UNL     1      -0.743  -1.073  24.535  0.00  0.00    +0.109 C 
ATOM      7  C   UNL     1       0.288  -0.799  23.442  0.00  0.00    +0.109 C 
ATOM      8  C   UNL     1      -1.690  -2.237  24.248  0.00  0.00    +0.132 C 
ATOM      9  C   UNL     1      -1.067   1.390  24.803  0.00  0.00    +0.125 C 
ATOM     10  C   UNL     1       0.003   1.601  23.727  0.00  0.00    +0.104 C 
ATOM     11  C   UNL     1      -2.972  -0.322  24.807  0.00  0.00    +0.305 C 
ATOM     13  C   UNL     1      -4.185  -2.544  24.577  0.00  0.00    +0.133 C 
ENDROOT
BRANCH   3  12
ATOM     12  C   UNL     1       2.002   0.728  22.697  0.00  0.00    +0.121 C 
BRANCH  12  14
ATOM      5  N   UNL     1       4.660  -1.649  23.969  0.00  0.00    -0.263 NA
ATOM     14  C   UNL     1       3.343   0.196  23.127  0.00  0.00    -0.015 A 
ATOM     15  C   UNL     1       4.477   1.001  23.096  0.00  0.00    +0.008 A 
ATOM     16  C   UNL     1       3.487  -1.110  23.568  0.00  0.00    +0.115 A 
ATOM     17  C   UNL     1       5.701   0.483  23.502  0.00  0.00    +0.020 A 
ATOM     18  C   UNL     1       5.740  -0.836  23.925  0.00  0.00    +0.111 A 
ENDBRANCH  12  14
ENDBRANCH   3  12
TORSDOF 2
ENDMDL
MODEL 7
REMARK VINA RESULT:      -2.6     15.355     17.631
REMARK  Name = 75537105
REMARK  3 active torsions:
REMARK  status: ('A' for Active; 'I' for Inactive)
REMARK    1  A    between atoms: N_3  and  C_12
REMARK    2  A    between atoms: N_4  and  C_13
REMARK    3  A    between atoms: C_12  and  C_14
REMARK                            x       y       z     vdW  Elec       q    Type
REMARK                         _______ _______ _______ _____ _____    ______ ____
ROOT
ATOM      1  O   UNL     1      -1.911  -3.279  23.671  0.00  0.00    -0.252 OA
ATOM      2  N   UNL     1      -2.758  -1.341  24.693  0.00  0.00    -0.278 N 
ATOM      3  N   UNL     1      -3.977   1.182  24.932  0.00  0.00    -0.295 NA
ATOM      4  N   UNL     1      -0.762  -2.115  25.370  0.00  0.00    -0.287 N 
ATOM      6  C   UNL     1      -2.395  -0.488  25.806  0.00  0.00    +0.109 C 
ATOM      7  C   UNL     1      -2.605   0.981  25.441  0.00  0.00    +0.109 C 
ATOM      8  C   UNL     1      -0.948  -0.875  26.104  0.00  0.00    +0.132 C 
ATOM      9  C   UNL     1      -4.023  -1.130  24.022  0.00  0.00    +0.125 C 
ATOM     10  C   UNL     1      -4.219   0.360  23.729  0.00  0.00    +0.104 C 
ATOM     11  C   UNL     1      -1.825  -2.363  24.478  0.00  0.00    +0.305 C 
ATOM     13  C   UNL     1       0.458  -2.888  25.468  0.00  0.00    +0.133 C 
ENDROOT
BRANCH   3  12
ATOM     12  C   UNL     1      -4.208   2.596  24.637  0.00  0.00    +0.121 C 
BRANCH  12  14
ATOM      5  N   UNL     1      -0.611   3.578  23.982  0.00  0.00    -0.263 NA
ATOM     14  C   UNL     1      -2.928   3.388  24.648  0.00  0.00    -0.015 A 
ATOM     15  C   UNL     1      -2.849   4.613  25.300  0.00  0.00    +0.008 A 
ATOM     16  C   UNL     1      -1.791   2.919  24.009  0.00  0.00    +0.115 A 
ATOM     17  C   UNL     1      -1.652   5.322  25.294  0.00  0.00    +0.020 A 
ATOM     18  C   UNL     1      -0.573   4.766  24.627  0.00  0.00    +0.111 A 
ENDBRANCH  12  14
ENDBRANCH   3  12
TORSDOF 2
ENDMDL
MODEL 8
REMARK VINA RESULT:      -2.6     15.137     17.491
REMARK  Name = 75537105
REMARK  3 active torsions:
REMARK  status: ('A' for Active; 'I' for Inactive)
REMARK    1  A    between atoms: N_3  and  C_12
REMARK    2  A    between atoms: N_4  and  C_13
REMARK    3  A    between atoms: C_12  and  C_14
REMARK                            x       y       z     vdW  Elec       q    Type
REMARK                         _______ _______ _______ _____ _____    ______ ____
ROOT
ATOM      1  O   UNL     1      -0.669  -2.875  25.205  0.00  0.00    -0.252 OA
ATOM      2  N   UNL     1      -1.135  -0.817  24.172  0.00  0.00    -0.278 N 
ATOM      3  N   UNL     1      -1.081   1.955  23.701  0.00  0.00    -0.295 NA
ATOM      4  N   UNL     1      -2.830  -2.255  24.493  0.00  0.00    -0.287 N 
ATOM      6  C   UNL     1      -2.268  -0.193  23.522  0.00  0.00    +0.109 C 
ATOM      7  C   UNL     1      -2.373   1.275  23.929  0.00  0.00    +0.109 C 
ATOM      8  C   UNL     1      -3.452  -1.062  23.943  0.00  0.00    +0.132 C 
ATOM      9  C   UNL     1       0.153  -0.157  24.138  0.00  0.00    +0.125 C 
ATOM     10  C   UNL     1      -0.007   1.324  24.493  0.00  0.00    +0.104 C 
ATOM     11  C   UNL     1      -1.444  -2.084  24.685  0.00  0.00    +0.305 C 
ATOM     13  C   UNL     1      -3.608  -3.399  24.917  0.00  0.00    +0.133 C 
ENDROOT
BRANCH   3  12
ATOM     12  C   UNL     1      -1.189   3.376  24.030  0.00  0.00    +0.121 C 
BRANCH  12  14
ATOM      5  N   UNL     1      -4.866   3.925  24.744  0.00  0.00    -0.263 NA
ATOM     14  C   UNL     1      -2.460   3.685  24.775  0.00  0.00    -0.015 A 
ATOM     15  C   UNL     1      -2.437   4.010  26.127  0.00  0.00    +0.008 A 
ATOM     16  C   UNL     1      -3.689   3.657  24.135  0.00  0.00    +0.115 A 
ATOM     17  C   UNL     1      -3.627   4.293  26.788  0.00  0.00    +0.020 A 
ATOM     18  C   UNL     1      -4.804   4.237  26.058  0.00  0.00    +0.111 A 
ENDBRANCH  12  14
ENDBRANCH   3  12
TORSDOF 2
ENDMDL
MODEL 9
REMARK VINA RESULT:      -2.2     15.627     17.458
REMARK  Name = 75537105
REMARK  3 active torsions:
REMARK  status: ('A' for Active; 'I' for Inactive)
REMARK    1  A    between atoms: N_3  and  C_12
REMARK    2  A    between atoms: N_4  and  C_13
REMARK    3  A    between atoms: C_12  and  C_14
REMARK                            x       y       z     vdW  Elec       q    Type
REMARK                         _______ _______ _______ _____ _____    ______ ____
ROOT
ATOM      1  O   UNL     1       1.097  -1.079  22.630  0.00  0.00    -0.252 OA
ATOM      2  N   UNL     1      -0.598  -0.533  24.163  0.00  0.00    -0.278 N 
ATOM      3  N   UNL     1      -3.186  -0.273  25.232  0.00  0.00    -0.295 NA
ATOM      4  N   UNL     1       1.040   0.962  23.810  0.00  0.00    -0.287 N 
ATOM      6  C   UNL     1      -0.861   0.526  25.115  0.00  0.00    +0.109 C 
ATOM      7  C   UNL     1      -2.335   0.925  25.073  0.00  0.00    +0.109 C 
ATOM      8  C   UNL     1       0.114   1.629  24.709  0.00  0.00    +0.132 C 
ATOM      9  C   UNL     1      -1.466  -1.691  24.133  0.00  0.00    +0.125 C 
ATOM     10  C   UNL     1      -2.932  -1.247  24.152  0.00  0.00    +0.104 C 
ATOM     11  C   UNL     1       0.580  -0.316  23.436  0.00  0.00    +0.305 C 
ATOM     13  C   UNL     1       2.204   1.633  23.272  0.00  0.00    +0.133 C 
ENDROOT
BRANCH   3  12
ATOM     12  C   UNL     1      -4.598   0.106  25.254  0.00  0.00    +0.121 C 
BRANCH  12  14
ATOM      5  N   UNL     1      -5.821   3.606  26.017  0.00  0.00    -0.263 NA
ATOM     14  C   UNL     1      -4.782   1.597  25.164  0.00  0.00    -0.015 A 
ATOM     15  C   UNL     1      -4.124   2.342  24.191  0.00  0.00    +0.008 A 
ATOM     16  C   UNL     1      -5.612   2.271  26.045  0.00  0.00    +0.115 A 
ATOM     17  C   UNL     1      -4.314   3.718  24.130  0.00  0.00    +0.020 A 
ATOM     18  C   UNL     1      -5.164   4.296  25.058  0.00  0.00    +0.111 A 
ENDBRANCH  12  14
ENDBRANCH   3  12
TORSDOF 2
ENDMDL
MODEL 10
REMARK VINA RESULT:      -1.9     16.130     18.109
REMARK  Name = 75537105
REMARK  3 active torsions:
REMARK  status: ('A' for Active; 'I' for Inactive)
REMARK    1  A    between atoms: N_3  and  C_12
REMARK    2  A    between atoms: N_4  and  C_13
REMARK    3  A    between atoms: C_12  and  C_14
REMARK                            x       y       z     vdW  Elec       q    Type
REMARK                         _______ _______ _______ _____ _____    ______ ____
ROOT
ATOM      1  O   UNL     1      -4.110   3.237  24.096  0.00  0.00    -0.252 OA
ATOM      2  N   UNL     1      -1.901   2.478  23.846  0.00  0.00    -0.278 N 
ATOM      3  N   UNL     1       0.224   0.735  23.250  0.00  0.00    -0.295 NA
ATOM      4  N   UNL     1      -2.429   3.623  25.705  0.00  0.00    -0.287 N 
ATOM      6  C   UNL     1      -0.642   2.642  24.543  0.00  0.00    +0.109 C 
ATOM      7  C   UNL     1       0.108   1.313  24.605  0.00  0.00    +0.109 C 
ATOM      8  C   UNL     1      -1.049   3.213  25.899  0.00  0.00    +0.132 C 
ATOM      9  C   UNL     1      -1.923   1.789  22.574  0.00  0.00    +0.125 C 
ATOM     10  C   UNL     1      -1.110   0.495  22.664  0.00  0.00    +0.104 C 
ATOM     11  C   UNL     1      -2.959   3.129  24.495  0.00  0.00    +0.305 C 
ATOM     13  C   UNL     1      -3.173   4.324  26.729  0.00  0.00    +0.133 C 
ENDROOT
BRANCH   3  12
ATOM     12  C   UNL     1       0.994  -0.507  23.290  0.00  0.00    +0.121 C 
BRANCH  12  14
ATOM      5  N   UNL     1       4.300   1.235  22.689  0.00  0.00    -0.263 NA
ATOM     14  C   UNL     1       2.477  -0.251  23.248  0.00  0.00    -0.015 A 
ATOM     15  C   UNL     1       3.382  -1.205  23.699  0.00  0.00    +0.008 A 
ATOM     16  C   UNL     1       2.983   0.942  22.757  0.00  0.00    +0.115 A 
ATOM     17  C   UNL     1       4.746  -0.941  23.646  0.00  0.00    +0.020 A 
ATOM     18  C   UNL     1       5.150   0.283  23.138  0.00  0.00    +0.111 A 
ENDBRANCH  12  14
ENDBRANCH   3  12
TORSDOF 2
ENDMDL
