MODEL 1
REMARK VINA RESULT:       8.8      0.000      0.000
REMARK  Name = 7685394
REMARK  5 active torsions:
REMARK  status: ('A' for Active; 'I' for Inactive)
REMARK    1  A    between atoms: S_1  and  N_7
REMARK    2  A    between atoms: S_1  and  C_22
REMARK    3  A    between atoms: N_9  and  C_30
REMARK    4  A    between atoms: C_17  and  C_21
REMARK    5  A    between atoms: C_31  and  C_32
REMARK                            x       y       z     vdW  Elec       q    Type
REMARK                         _______ _______ _______ _____ _____    ______ ____
ROOT
ATOM      5  O   UNL     1      -3.463   4.767  26.272  0.00  0.00    -0.268 OA
ATOM      7  N   UNL     1      -3.572   0.427  23.902  0.00  0.00    -0.175 NA
ATOM      8  N   UNL     1      -2.655   3.359  24.583  0.00  0.00    -0.311 N 
ATOM     10  C   UNL     1      -4.179   2.521  22.698  0.00  0.00    +0.025 C 
ATOM     11  C   UNL     1      -1.831   1.810  22.783  0.00  0.00    +0.053 C 
ATOM     12  C   UNL     1      -2.894   2.445  21.890  0.00  0.00    +0.017 C 
ATOM     13  C   UNL     1      -4.639   1.120  23.127  0.00  0.00    +0.114 C 
ATOM     14  C   UNL     1      -2.273   0.385  23.170  0.00  0.00    +0.119 C 
ATOM     15  C   UNL     1      -3.949   3.448  23.892  0.00  0.00    +0.130 C 
ATOM     16  C   UNL     1      -1.563   2.655  24.035  0.00  0.00    +0.034 A 
ATOM     17  C   UNL     1      -0.342   2.730  24.630  0.00  0.00    +0.002 A 
ATOM     18  C   UNL     1      -2.548   4.122  25.760  0.00  0.00    +0.252 A 
ATOM     19  C   UNL     1      -0.198   3.503  25.851  0.00  0.00    +0.015 A 
ATOM     20  C   UNL     1      -1.219   4.153  26.409  0.00  0.00    +0.071 A 
ENDROOT
BRANCH  17  21
ATOM     21  C   UNL     1       0.792   2.043  24.076  0.00  0.00    -0.016 A 
ATOM     23  C   UNL     1       1.882   2.771  23.605  0.00  0.00    +0.010 A 
ATOM     24  C   UNL     1       0.794   0.652  24.015  0.00  0.00    +0.010 A 
ATOM     27  C   UNL     1       2.982   2.102  23.068  0.00  0.00    +0.024 A 
ATOM     28  C   UNL     1       1.894  -0.016  23.479  0.00  0.00    +0.024 A 
ATOM     30  C   UNL     1       2.988   0.708  23.005  0.00  0.00    +0.033 A 
BRANCH  30   9
ATOM      6  O   UNL     1       5.719   0.202  24.165  0.00  0.00    -0.276 OA
ATOM      9  N   UNL     1       4.090   0.040  22.470  0.00  0.00    -0.286 N 
ATOM     31  C   UNL     1       5.345  -0.167  23.056  0.00  0.00    +0.214 C 
ATOM     32  C   UNL     1       6.267  -0.940  22.149  0.00  0.00    +0.109 C 
ATOM     33  H   UNL     1       3.954  -0.342  21.536  0.00  0.00    +0.155 HD
ENDBRANCH  30   9
ENDBRANCH  17  21
BRANCH   7   1
ATOM      1  S   UNL     1      -4.038  -1.029  24.668  0.00  0.00    +0.067 S 
ATOM      3  O   UNL     1      -4.756  -1.855  23.720  0.00  0.00    -0.152 OA
ATOM      4  O   UNL     1      -4.603  -0.720  25.965  0.00  0.00    -0.152 OA
BRANCH   1  22
ATOM      2  S   UNL     1      -1.487  -0.972  26.096  0.00  0.00    -0.077 S 
ATOM     22  C   UNL     1      -2.453  -1.763  24.929  0.00  0.00    +0.143 A 
ATOM     25  C   UNL     1      -1.826  -2.853  24.379  0.00  0.00    +0.036 A 
ATOM     26  C   UNL     1      -0.525  -3.047  24.927  0.00  0.00    +0.010 A 
ATOM     29  C   UNL     1      -0.213  -2.094  25.872  0.00  0.00    +0.047 A 
ENDBRANCH   1  22
ENDBRANCH   7   1
TORSDOF 4
ENDMDL
MODEL 2
REMARK VINA RESULT:      12.7      2.217      5.034
REMARK  Name = 7685394
REMARK  5 active torsions:
REMARK  status: ('A' for Active; 'I' for Inactive)
REMARK    1  A    between atoms: S_1  and  N_7
REMARK    2  A    between atoms: S_1  and  C_22
REMARK    3  A    between atoms: N_9  and  C_30
REMARK    4  A    between atoms: C_17  and  C_21
REMARK    5  A    between atoms: C_31  and  C_32
REMARK                            x       y       z     vdW  Elec       q    Type
REMARK                         _______ _______ _______ _____ _____    ______ ____
ROOT
ATOM      5  O   UNL     1      -4.286  -3.722  24.078  0.00  0.00    -0.268 OA
ATOM      7  N   UNL     1      -3.059   1.023  24.748  0.00  0.00    -0.175 NA
ATOM      8  N   UNL     1      -2.748  -2.109  24.800  0.00  0.00    -0.311 N 
ATOM     10  C   UNL     1      -3.306  -0.491  26.710  0.00  0.00    +0.025 C 
ATOM     11  C   UNL     1      -1.140  -0.335  25.566  0.00  0.00    +0.053 C 
ATOM     12  C   UNL     1      -1.803  -0.468  26.935  0.00  0.00    +0.017 C 
ATOM     13  C   UNL     1      -3.778   0.805  26.033  0.00  0.00    +0.114 C 
ATOM     14  C   UNL     1      -1.577   0.991  24.912  0.00  0.00    +0.119 C 
ATOM     15  C   UNL     1      -3.657  -1.734  25.893  0.00  0.00    +0.130 C 
ATOM     16  C   UNL     1      -1.473  -1.525  24.658  0.00  0.00    +0.034 A 
ATOM     17  C   UNL     1      -0.606  -2.012  23.728  0.00  0.00    +0.002 A 
ATOM     18  C   UNL     1      -3.190  -3.167  23.986  0.00  0.00    +0.252 A 
ATOM     19  C   UNL     1      -1.033  -3.100  22.867  0.00  0.00    +0.015 A 
ATOM     20  C   UNL     1      -2.244  -3.650  22.958  0.00  0.00    +0.071 A 
ENDROOT
BRANCH  17  21
ATOM     21  C   UNL     1       0.709  -1.452  23.582  0.00  0.00    -0.016 A 
ATOM     23  C   UNL     1       1.793  -2.051  24.220  0.00  0.00    +0.010 A 
ATOM     24  C   UNL     1       0.892  -0.314  22.801  0.00  0.00    +0.010 A 
ATOM     27  C   UNL     1       3.069  -1.507  24.076  0.00  0.00    +0.024 A 
ATOM     28  C   UNL     1       2.168   0.230  22.657  0.00  0.00    +0.024 A 
ATOM     30  C   UNL     1       3.257  -0.366  23.294  0.00  0.00    +0.033 A 
BRANCH  30   9
ATOM      6  O   UNL     1       5.789  -0.886  24.837  0.00  0.00    -0.276 OA
ATOM      9  N   UNL     1       4.534   0.176  23.149  0.00  0.00    -0.286 N 
ATOM     31  C   UNL     1       5.683  -0.102  23.900  0.00  0.00    +0.214 C 
ATOM     32  C   UNL     1       6.870   0.697  23.425  0.00  0.00    +0.109 C 
ATOM     33  H   UNL     1       4.632   0.859  22.400  0.00  0.00    +0.155 HD
ENDBRANCH  30   9
ENDBRANCH  17  21
BRANCH   7   1
ATOM      1  S   UNL     1      -3.668   2.280  23.760  0.00  0.00    +0.067 S 
ATOM      3  O   UNL     1      -5.050   2.530  24.111  0.00  0.00    -0.152 OA
ATOM      4  O   UNL     1      -3.281   2.031  22.388  0.00  0.00    -0.152 OA
BRANCH   1  22
ATOM      2  S   UNL     1      -1.049   3.565  23.947  0.00  0.00    -0.077 S 
ATOM     22  C   UNL     1      -2.707   3.635  24.358  0.00  0.00    +0.143 A 
ATOM     25  C   UNL     1      -3.018   4.750  25.095  0.00  0.00    +0.036 A 
ATOM     26  C   UNL     1      -1.875   5.567  25.329  0.00  0.00    +0.010 A 
ATOM     29  C   UNL     1      -0.736   5.040  24.760  0.00  0.00    +0.047 A 
ENDBRANCH   1  22
ENDBRANCH   7   1
TORSDOF 4
ENDMDL
