MODEL 1
REMARK VINA RESULT:      -1.9      0.000      0.000
REMARK  Name = 45360871
REMARK  7 active torsions:
REMARK  status: ('A' for Active; 'I' for Inactive)
REMARK    1  A    between atoms: N_3  and  C_16
REMARK    2  A    between atoms: N_4  and  C_15
REMARK    3  A    between atoms: C_11  and  C_14
REMARK    4  A    between atoms: C_14  and  C_17
REMARK    5  A    between atoms: C_15  and  C_18
REMARK    6  A    between atoms: C_17  and  C_19
REMARK    7  A    between atoms: C_28  and  C_29
REMARK                            x       y       z     vdW  Elec       q    Type
REMARK                         _______ _______ _______ _____ _____    ______ ____
ROOT
ATOM      1  O   UNL     1      -0.530   2.090  23.594  0.00  0.00    -0.274 OA
ATOM      3  N   UNL     1      -3.014  -0.369  25.259  0.00  0.00    -0.296 NA
ATOM      4  N   UNL     1       0.343  -0.456  23.806  0.00  0.00    -0.286 NA
ATOM      5  N   UNL     1      -2.692   1.522  23.104  0.00  0.00    -0.312 N 
ATOM      7  C   UNL     1      -1.873  -1.045  24.605  0.00  0.00    +0.084 C 
ATOM      8  C   UNL     1      -1.089  -0.277  23.501  0.00  0.00    +0.161 C 
ATOM      9  C   UNL     1      -0.745  -1.447  25.576  0.00  0.00    +0.036 C 
ATOM     10  C   UNL     1       0.454  -1.627  24.669  0.00  0.00    +0.087 C 
ATOM     11  C   UNL     1      -4.147  -0.051  24.345  0.00  0.00    +0.074 C 
ATOM     12  C   UNL     1      -1.382   1.219  23.422  0.00  0.00    +0.232 C 
ATOM     13  C   UNL     1      -3.735   0.525  22.976  0.00  0.00    +0.123 C 
ATOM     16  C   UNL     1      -3.493  -1.147  26.414  0.00  0.00    +0.105 C 
ATOM     30  H   UNL     1      -2.934   2.498  22.959  0.00  0.00    +0.149 HD
ENDROOT
BRANCH  11  14
ATOM     14  C   UNL     1      -5.105   0.963  25.005  0.00  0.00    +0.029 C 
BRANCH  14  17
ATOM     17  C   UNL     1      -4.365   1.959  25.875  0.00  0.00    +0.097 C 
BRANCH  17  19
ATOM      2  O   UNL     1      -5.267   3.804  24.670  0.00  0.00    -0.276 OA
ATOM      6  N   UNL     1      -3.032   3.909  25.242  0.00  0.00    -0.301 N 
ATOM     19  C   UNL     1      -4.276   3.308  25.206  0.00  0.00    +0.216 C 
ATOM     20  C   UNL     1      -1.823   3.378  25.863  0.00  0.00    +0.108 C 
ATOM     21  C   UNL     1      -2.779   5.209  24.637  0.00  0.00    +0.108 C 
ATOM     22  C   UNL     1      -0.710   4.292  25.371  0.00  0.00    +0.020 C 
ATOM     23  C   UNL     1      -1.421   5.625  25.181  0.00  0.00    +0.020 C 
ENDBRANCH  17  19
ENDBRANCH  14  17
ENDBRANCH  11  14
BRANCH   4  15
ATOM     15  C   UNL     1       1.176  -0.572  22.616  0.00  0.00    +0.120 C 
BRANCH  15  18
ATOM     18  C   UNL     1       2.636  -0.378  22.933  0.00  0.00    -0.033 A 
ATOM     24  C   UNL     1       3.264   0.827  22.620  0.00  0.00    +0.005 A 
ATOM     25  C   UNL     1       3.361  -1.406  23.537  0.00  0.00    +0.005 A 
ATOM     26  C   UNL     1       4.616   1.006  22.912  0.00  0.00    +0.003 A 
ATOM     27  C   UNL     1       4.713  -1.227  23.829  0.00  0.00    +0.003 A 
ATOM     28  C   UNL     1       5.340  -0.021  23.516  0.00  0.00    -0.050 A 
ATOM     29  C   UNL     1       6.787   0.170  23.827  0.00  0.00    +0.044 C 
ENDBRANCH  15  18
ENDBRANCH   4  15
TORSDOF 5
ENDMDL
MODEL 2
REMARK VINA RESULT:       0.1      1.645      6.840
REMARK  Name = 45360871
REMARK  7 active torsions:
REMARK  status: ('A' for Active; 'I' for Inactive)
REMARK    1  A    between atoms: N_3  and  C_16
REMARK    2  A    between atoms: N_4  and  C_15
REMARK    3  A    between atoms: C_11  and  C_14
REMARK    4  A    between atoms: C_14  and  C_17
REMARK    5  A    between atoms: C_15  and  C_18
REMARK    6  A    between atoms: C_17  and  C_19
REMARK    7  A    between atoms: C_28  and  C_29
REMARK                            x       y       z     vdW  Elec       q    Type
REMARK                         _______ _______ _______ _____ _____    ______ ____
ROOT
ATOM      1  O   UNL     1      -3.159   0.954  22.303  0.00  0.00    -0.274 OA
ATOM      3  N   UNL     1      -0.897  -1.254  24.540  0.00  0.00    -0.296 NA
ATOM      4  N   UNL     1      -4.179   0.352  24.730  0.00  0.00    -0.286 NA
ATOM      5  N   UNL     1      -1.010   1.212  23.047  0.00  0.00    -0.312 N 
ATOM      7  C   UNL     1      -2.041  -0.663  25.268  0.00  0.00    +0.084 C 
ATOM      8  C   UNL     1      -2.727   0.601  24.673  0.00  0.00    +0.161 C 
ATOM      9  C   UNL     1      -3.235  -1.623  25.441  0.00  0.00    +0.036 C 
ATOM     10  C   UNL     1      -4.396  -0.694  25.723  0.00  0.00    +0.087 C 
ATOM     11  C   UNL     1       0.295  -0.365  24.441  0.00  0.00    +0.074 C 
ATOM     12  C   UNL     1      -2.349   0.922  23.229  0.00  0.00    +0.232 C 
ATOM     13  C   UNL     1      -0.018   1.105  24.098  0.00  0.00    +0.123 C 
ATOM     16  C   UNL     1      -0.518  -2.552  25.123  0.00  0.00    +0.105 C 
ATOM     30  H   UNL     1      -0.708   1.511  22.124  0.00  0.00    +0.149 HD
ENDROOT
BRANCH  11  14
ATOM     14  C   UNL     1       1.274  -0.892  23.371  0.00  0.00    +0.029 C 
BRANCH  14  17
ATOM     17  C   UNL     1       1.695   0.195  22.401  0.00  0.00    +0.097 C 
BRANCH  17  19
ATOM      2  O   UNL     1       3.075   2.098  22.777  0.00  0.00    -0.276 OA
ATOM      6  N   UNL     1       3.940   0.036  23.356  0.00  0.00    -0.301 N 
ATOM     19  C   UNL     1       2.960   0.875  22.860  0.00  0.00    +0.216 C 
ATOM     20  C   UNL     1       3.865  -1.416  23.484  0.00  0.00    +0.108 C 
ATOM     21  C   UNL     1       5.222   0.536  23.833  0.00  0.00    +0.108 C 
ATOM     22  C   UNL     1       5.288  -1.843  23.812  0.00  0.00    +0.020 C 
ATOM     23  C   UNL     1       5.839  -0.643  24.571  0.00  0.00    +0.020 C 
ENDBRANCH  17  19
ENDBRANCH  14  17
ENDBRANCH  11  14
BRANCH   4  15
ATOM     15  C   UNL     1      -4.959   1.550  25.016  0.00  0.00    +0.120 C 
BRANCH  15  18
ATOM     18  C   UNL     1      -4.103   2.788  25.019  0.00  0.00    -0.033 A 
ATOM     24  C   UNL     1      -4.109   3.644  23.917  0.00  0.00    +0.005 A 
ATOM     25  C   UNL     1      -3.300   3.079  26.122  0.00  0.00    +0.005 A 
ATOM     26  C   UNL     1      -3.314   4.789  23.919  0.00  0.00    +0.003 A 
ATOM     27  C   UNL     1      -2.504   4.225  26.124  0.00  0.00    +0.003 A 
ATOM     28  C   UNL     1      -2.512   5.080  25.022  0.00  0.00    -0.050 A 
ATOM     29  C   UNL     1      -1.661   6.305  25.023  0.00  0.00    +0.044 C 
ENDBRANCH  15  18
ENDBRANCH   4  15
TORSDOF 5
ENDMDL
MODEL 3
REMARK VINA RESULT:       1.0      1.488      6.565
REMARK  Name = 45360871
REMARK  7 active torsions:
REMARK  status: ('A' for Active; 'I' for Inactive)
REMARK    1  A    between atoms: N_3  and  C_16
REMARK    2  A    between atoms: N_4  and  C_15
REMARK    3  A    between atoms: C_11  and  C_14
REMARK    4  A    between atoms: C_14  and  C_17
REMARK    5  A    between atoms: C_15  and  C_18
REMARK    6  A    between atoms: C_17  and  C_19
REMARK    7  A    between atoms: C_28  and  C_29
REMARK                            x       y       z     vdW  Elec       q    Type
REMARK                         _______ _______ _______ _____ _____    ______ ____
ROOT
ATOM      1  O   UNL     1      -3.193   2.116  22.518  0.00  0.00    -0.274 OA
ATOM      3  N   UNL     1      -2.690  -1.236  24.388  0.00  0.00    -0.296 NA
ATOM      4  N   UNL     1      -4.916   1.663  24.546  0.00  0.00    -0.286 NA
ATOM      5  N   UNL     1      -1.384   1.207  23.584  0.00  0.00    -0.312 N 
ATOM      7  C   UNL     1      -3.610  -0.311  25.085  0.00  0.00    +0.084 C 
ATOM      8  C   UNL     1      -3.529   1.207  24.750  0.00  0.00    +0.161 C 
ATOM      9  C   UNL     1      -5.102  -0.612  24.842  0.00  0.00    +0.036 C 
ATOM     10  C   UNL     1      -5.787   0.690  25.197  0.00  0.00    +0.087 C 
ATOM     11  C   UNL     1      -1.247  -1.008  24.683  0.00  0.00    +0.074 C 
ATOM     12  C   UNL     1      -2.719   1.552  23.503  0.00  0.00    +0.232 C 
ATOM     13  C   UNL     1      -0.813   0.471  24.694  0.00  0.00    +0.123 C 
ATOM     16  C   UNL     1      -3.050  -2.638  24.661  0.00  0.00    +0.105 C 
ATOM     30  H   UNL     1      -0.774   1.480  22.819  0.00  0.00    +0.149 HD
ENDROOT
BRANCH  11  14
ATOM     14  C   UNL     1      -0.363  -1.743  23.655  0.00  0.00    +0.029 C 
BRANCH  14  17
ATOM     17  C   UNL     1       1.114  -1.578  23.955  0.00  0.00    +0.097 C 
BRANCH  17  19
ATOM      2  O   UNL     1       1.035   0.143  22.311  0.00  0.00    -0.276 OA
ATOM      6  N   UNL     1       3.105  -0.379  23.193  0.00  0.00    -0.301 N 
ATOM     19  C   UNL     1       1.735  -0.523  23.074  0.00  0.00    +0.216 C 
ATOM     20  C   UNL     1       3.988  -1.131  24.078  0.00  0.00    +0.108 C 
ATOM     21  C   UNL     1       3.855   0.592  22.408  0.00  0.00    +0.108 C 
ATOM     22  C   UNL     1       5.391  -0.775  23.607  0.00  0.00    +0.020 C 
ATOM     23  C   UNL     1       5.223   0.641  23.071  0.00  0.00    +0.020 C 
ENDBRANCH  17  19
ENDBRANCH  14  17
ENDBRANCH  11  14
BRANCH   4  15
ATOM     15  C   UNL     1      -5.155   3.018  25.026  0.00  0.00    +0.120 C 
BRANCH  15  18
ATOM     18  C   UNL     1      -3.898   3.847  25.013  0.00  0.00    -0.033 A 
ATOM     24  C   UNL     1      -3.725   4.839  24.049  0.00  0.00    +0.005 A 
ATOM     25  C   UNL     1      -2.903   3.619  25.965  0.00  0.00    +0.005 A 
ATOM     26  C   UNL     1      -2.558   5.604  24.036  0.00  0.00    +0.003 A 
ATOM     27  C   UNL     1      -1.737   4.384  25.952  0.00  0.00    +0.003 A 
ATOM     28  C   UNL     1      -1.565   5.376  24.988  0.00  0.00    -0.050 A 
ATOM     29  C   UNL     1      -0.317   6.194  24.973  0.00  0.00    +0.044 C 
ENDBRANCH  15  18
ENDBRANCH   4  15
TORSDOF 5
ENDMDL
