MODEL 1
REMARK VINA RESULT:       8.8      0.000      0.000
REMARK  Name = 45360453
REMARK  7 active torsions:
REMARK  status: ('A' for Active; 'I' for Inactive)
REMARK    1  A    between atoms: N_4  and  C_16
REMARK    2  A    between atoms: N_7  and  C_26
REMARK    3  A    between atoms: C_10  and  C_17
REMARK    4  A    between atoms: C_11  and  C_16
REMARK    5  A    between atoms: C_19  and  C_22
REMARK    6  A    between atoms: C_20  and  C_23
REMARK    7  A    between atoms: C_32  and  C_35
REMARK                            x       y       z     vdW  Elec       q    Type
REMARK                         _______ _______ _______ _____ _____    ______ ____
ROOT
ATOM      3  N   UNL     1      -4.164   4.817  23.912  0.00  0.00    -0.297 NA
ATOM      9  C   UNL     1      -2.079   5.012  25.460  0.00  0.00    +0.002 C 
ATOM     10  C   UNL     1      -1.770   4.094  24.244  0.00  0.00    +0.055 C 
ATOM     11  C   UNL     1      -4.550   4.548  25.322  0.00  0.00    +0.074 C 
ATOM     12  C   UNL     1      -3.299   4.455  26.222  0.00  0.00    +0.024 C 
ATOM     13  C   UNL     1      -2.488   6.385  24.888  0.00  0.00    +0.019 C 
ATOM     14  C   UNL     1      -3.107   3.866  23.484  0.00  0.00    +0.094 C 
ATOM     15  C   UNL     1      -3.605   6.189  23.848  0.00  0.00    +0.085 C 
ENDROOT
BRANCH  10  17
ATOM      5  N   UNL     1      -1.504   1.993  25.468  0.00  0.00    -0.237 NA
ATOM      6  N   UNL     1       0.286   0.450  24.999  0.00  0.00    -0.232 NA
ATOM     17  C   UNL     1      -1.019   2.794  24.498  0.00  0.00    +0.050 A 
ATOM     18  C   UNL     1       0.098   2.496  23.745  0.00  0.00    +0.052 A 
ATOM     19  C   UNL     1       0.716   1.299  24.042  0.00  0.00    +0.076 A 
ATOM     20  C   UNL     1      -0.814   0.853  25.663  0.00  0.00    +0.127 A 
ATOM     23  C   UNL     1      -1.319  -0.057  26.730  0.00  0.00    +0.088 C 
BRANCH  19  22
ATOM      1 BR   UNL     1       0.197  -0.826  21.709  0.00  0.00    -0.050 Br
ATOM     22  C   UNL     1       1.896   0.871  23.328  0.00  0.00    +0.014 A 
ATOM     24  C   UNL     1       1.834  -0.050  22.282  0.00  0.00    +0.027 A 
ATOM     25  C   UNL     1       3.124   1.410  23.712  0.00  0.00    +0.011 A 
ATOM     27  C   UNL     1       3.001  -0.434  21.621  0.00  0.00    +0.016 A 
ATOM     28  C   UNL     1       4.291   1.026  23.051  0.00  0.00    +0.001 A 
ATOM     29  C   UNL     1       4.230   0.104  22.005  0.00  0.00    +0.001 A 
ENDBRANCH  19  22
ENDBRANCH  10  17
BRANCH  11  16
ATOM     16  C   UNL     1      -5.443   3.312  25.457  0.00  0.00    +0.124 C 
BRANCH  16   4
ATOM      2  O   UNL     1      -4.535   0.709  26.233  0.00  0.00    -0.253 OA
ATOM      4  N   UNL     1      -5.002   2.267  24.588  0.00  0.00    -0.298 N 
ATOM      7  N   UNL     1      -4.200   0.193  23.968  0.00  0.00    -0.269 N 
ATOM     21  C   UNL     1      -4.568   1.008  25.042  0.00  0.00    +0.304 C 
ATOM     36  H   UNL     1      -4.998   2.444  23.587  0.00  0.00    +0.150 HD
ATOM     37  H   UNL     1      -4.288   0.596  23.038  0.00  0.00    +0.156 HD
BRANCH   7  26
ATOM     26  C   UNL     1      -3.714  -1.134  24.011  0.00  0.00    +0.036 A 
ATOM     30  C   UNL     1      -2.428  -1.393  24.484  0.00  0.00    +0.042 A 
ATOM     31  C   UNL     1      -4.524  -2.186  23.582  0.00  0.00    +0.023 A 
ATOM     32  C   UNL     1      -1.950  -2.703  24.526  0.00  0.00    +0.054 A 
ATOM     33  C   UNL     1      -4.047  -3.496  23.624  0.00  0.00    +0.003 A 
ATOM     34  C   UNL     1      -2.760  -3.755  24.097  0.00  0.00    +0.019 A 
BRANCH  32  35
ATOM      8  N   UNL     1       0.438  -3.185  25.401  0.00  0.00    -0.191 NA
ATOM     35  C   UNL     1      -0.632  -2.969  25.009  0.00  0.00    +0.099 C 
ENDBRANCH  32  35
ENDBRANCH   7  26
ENDBRANCH  16   4
ENDBRANCH  11  16
TORSDOF 6
ENDMDL
MODEL 2
REMARK VINA RESULT:       9.1      2.318      6.862
REMARK  Name = 45360453
REMARK  7 active torsions:
REMARK  status: ('A' for Active; 'I' for Inactive)
REMARK    1  A    between atoms: N_4  and  C_16
REMARK    2  A    between atoms: N_7  and  C_26
REMARK    3  A    between atoms: C_10  and  C_17
REMARK    4  A    between atoms: C_11  and  C_16
REMARK    5  A    between atoms: C_19  and  C_22
REMARK    6  A    between atoms: C_20  and  C_23
REMARK    7  A    between atoms: C_32  and  C_35
REMARK                            x       y       z     vdW  Elec       q    Type
REMARK                         _______ _______ _______ _____ _____    ______ ____
ROOT
ATOM      3  N   UNL     1      -2.023  -2.442  23.897  0.00  0.00    -0.297 NA
ATOM      9  C   UNL     1      -4.476  -2.000  24.651  0.00  0.00    +0.002 C 
ATOM     10  C   UNL     1      -3.904  -0.760  23.909  0.00  0.00    +0.055 C 
ATOM     11  C   UNL     1      -2.184  -2.788  25.334  0.00  0.00    +0.074 C 
ATOM     12  C   UNL     1      -3.568  -2.341  25.851  0.00  0.00    +0.024 C 
ATOM     13  C   UNL     1      -4.392  -3.185  23.667  0.00  0.00    +0.019 C 
ATOM     14  C   UNL     1      -2.389  -1.020  23.672  0.00  0.00    +0.094 C 
ATOM     15  C   UNL     1      -2.958  -3.289  23.119  0.00  0.00    +0.085 C 
ENDROOT
BRANCH  10  17
ATOM      5  N   UNL     1      -5.339   0.784  25.149  0.00  0.00    -0.237 NA
ATOM      6  N   UNL     1      -4.698   3.066  25.583  0.00  0.00    -0.232 NA
ATOM     17  C   UNL     1      -4.168   0.617  24.502  0.00  0.00    +0.050 A 
ATOM     18  C   UNL     1      -3.225   1.613  24.354  0.00  0.00    +0.052 A 
ATOM     19  C   UNL     1      -3.546   2.829  24.921  0.00  0.00    +0.076 A 
ATOM     20  C   UNL     1      -5.536   2.015  25.659  0.00  0.00    +0.127 A 
ATOM     23  C   UNL     1      -6.821   2.238  26.381  0.00  0.00    +0.088 C 
BRANCH  19  22
ATOM      1 BR   UNL     1      -0.592   2.289  26.020  0.00  0.00    -0.050 Br
ATOM     22  C   UNL     1      -2.645   3.954  24.836  0.00  0.00    +0.014 A 
ATOM     24  C   UNL     1      -1.322   3.876  25.273  0.00  0.00    +0.027 A 
ATOM     25  C   UNL     1      -3.134   5.143  24.297  0.00  0.00    +0.011 A 
ATOM     27  C   UNL     1      -0.488   4.989  25.170  0.00  0.00    +0.016 A 
ATOM     28  C   UNL     1      -2.299   6.256  24.195  0.00  0.00    +0.001 A 
ATOM     29  C   UNL     1      -0.976   6.180  24.631  0.00  0.00    +0.001 A 
ENDBRANCH  19  22
ENDBRANCH  10  17
BRANCH  11  16
ATOM     16  C   UNL     1      -1.047  -2.236  26.198  0.00  0.00    +0.124 C 
BRANCH  16   4
ATOM      2  O   UNL     1       0.264  -0.119  24.784  0.00  0.00    -0.253 OA
ATOM      4  N   UNL     1       0.203  -2.314  25.509  0.00  0.00    -0.298 N 
ATOM      7  N   UNL     1       2.005  -1.602  24.256  0.00  0.00    -0.269 N 
ATOM     21  C   UNL     1       0.788  -1.228  24.833  0.00  0.00    +0.304 C 
ATOM     36  H   UNL     1       0.692  -3.204  25.503  0.00  0.00    +0.150 HD
ATOM     37  H   UNL     1       2.297  -2.566  24.391  0.00  0.00    +0.156 HD
BRANCH   7  26
ATOM     26  C   UNL     1       2.889  -0.799  23.498  0.00  0.00    +0.036 A 
ATOM     30  C   UNL     1       4.264  -0.869  23.725  0.00  0.00    +0.042 A 
ATOM     31  C   UNL     1       2.385   0.062  22.523  0.00  0.00    +0.023 A 
ATOM     32  C   UNL     1       5.135  -0.076  22.977  0.00  0.00    +0.054 A 
ATOM     33  C   UNL     1       3.257   0.855  21.775  0.00  0.00    +0.003 A 
ATOM     34  C   UNL     1       4.631   0.785  22.001  0.00  0.00    +0.019 A 
BRANCH  32  35
ATOM      8  N   UNL     1       7.687  -0.204  23.397  0.00  0.00    -0.191 NA
ATOM     35  C   UNL     1       6.543  -0.147  23.209  0.00  0.00    +0.099 C 
ENDBRANCH  32  35
ENDBRANCH   7  26
ENDBRANCH  16   4
ENDBRANCH  11  16
TORSDOF 6
ENDMDL
MODEL 3
REMARK VINA RESULT:       9.4      2.769      6.556
REMARK  Name = 45360453
REMARK  7 active torsions:
REMARK  status: ('A' for Active; 'I' for Inactive)
REMARK    1  A    between atoms: N_4  and  C_16
REMARK    2  A    between atoms: N_7  and  C_26
REMARK    3  A    between atoms: C_10  and  C_17
REMARK    4  A    between atoms: C_11  and  C_16
REMARK    5  A    between atoms: C_19  and  C_22
REMARK    6  A    between atoms: C_20  and  C_23
REMARK    7  A    between atoms: C_32  and  C_35
REMARK                            x       y       z     vdW  Elec       q    Type
REMARK                         _______ _______ _______ _____ _____    ______ ____
ROOT
ATOM      3  N   UNL     1      -0.221   3.967  24.957  0.00  0.00    -0.297 NA
ATOM      9  C   UNL     1      -2.684   4.657  24.467  0.00  0.00    +0.002 C 
ATOM     10  C   UNL     1      -2.628   3.635  25.636  0.00  0.00    +0.055 C 
ATOM     11  C   UNL     1      -0.504   3.840  23.504  0.00  0.00    +0.074 C 
ATOM     12  C   UNL     1      -2.009   4.044  23.222  0.00  0.00    +0.024 C 
ATOM     13  C   UNL     1      -1.831   5.870  24.894  0.00  0.00    +0.019 C 
ATOM     14  C   UNL     1      -1.163   3.123  25.735  0.00  0.00    +0.094 C 
ATOM     15  C   UNL     1      -0.443   5.382  25.342  0.00  0.00    +0.085 C 
ENDROOT
BRANCH  10  17
ATOM      5  N   UNL     1      -4.868   2.783  26.124  0.00  0.00    -0.237 NA
ATOM      6  N   UNL     1      -5.497   0.497  25.689  0.00  0.00    -0.232 NA
ATOM     17  C   UNL     1      -3.640   2.498  25.646  0.00  0.00    +0.050 A 
ATOM     18  C   UNL     1      -3.269   1.254  25.178  0.00  0.00    +0.052 A 
ATOM     19  C   UNL     1      -4.248   0.283  25.224  0.00  0.00    +0.076 A 
ATOM     20  C   UNL     1      -5.735   1.752  26.116  0.00  0.00    +0.127 A 
ATOM     23  C   UNL     1      -7.104   2.029  26.639  0.00  0.00    +0.088 C 
BRANCH  19  22
ATOM      1 BR   UNL     1      -1.427  -0.932  26.113  0.00  0.00    -0.050 Br
ATOM     22  C   UNL     1      -3.987  -1.062  24.766  0.00  0.00    +0.014 A 
ATOM     24  C   UNL     1      -2.802  -1.730  25.073  0.00  0.00    +0.027 A 
ATOM     25  C   UNL     1      -4.965  -1.691  23.996  0.00  0.00    +0.011 A 
ATOM     27  C   UNL     1      -2.593  -3.029  24.608  0.00  0.00    +0.016 A 
ATOM     28  C   UNL     1      -4.756  -2.990  23.532  0.00  0.00    +0.001 A 
ATOM     29  C   UNL     1      -3.571  -3.659  23.838  0.00  0.00    +0.001 A 
ENDBRANCH  19  22
ENDBRANCH  10  17
BRANCH  11  16
ATOM     16  C   UNL     1       0.011   2.522  22.921  0.00  0.00    +0.124 C 
BRANCH  16   4
ATOM      2  O   UNL     1       1.478   0.069  22.739  0.00  0.00    -0.253 OA
ATOM      4  N   UNL     1       1.389   2.324  23.246  0.00  0.00    -0.298 N 
ATOM      7  N   UNL     1       3.383   1.196  23.519  0.00  0.00    -0.269 N 
ATOM     21  C   UNL     1       2.045   1.085  23.132  0.00  0.00    +0.304 C 
ATOM     36  H   UNL     1       1.921   3.121  23.583  0.00  0.00    +0.150 HD
ATOM     37  H   UNL     1       3.697   2.115  23.820  0.00  0.00    +0.156 HD
BRANCH   7  26
ATOM     26  C   UNL     1       4.367   0.180  23.544  0.00  0.00    +0.036 A 
ATOM     30  C   UNL     1       5.707   0.498  23.325  0.00  0.00    +0.042 A 
ATOM     31  C   UNL     1       3.995  -1.142  23.791  0.00  0.00    +0.023 A 
ATOM     32  C   UNL     1       6.676  -0.506  23.351  0.00  0.00    +0.054 A 
ATOM     33  C   UNL     1       4.964  -2.146  23.817  0.00  0.00    +0.003 A 
ATOM     34  C   UNL     1       6.304  -1.828  23.598  0.00  0.00    +0.019 A 
BRANCH  32  35
ATOM      8  N   UNL     1       9.163   0.084  22.941  0.00  0.00    -0.191 NA
ATOM     35  C   UNL     1       8.048  -0.180  23.125  0.00  0.00    +0.099 C 
ENDBRANCH  32  35
ENDBRANCH   7  26
ENDBRANCH  16   4
ENDBRANCH  11  16
TORSDOF 6
ENDMDL
MODEL 4
REMARK VINA RESULT:       9.6      2.163      5.376
REMARK  Name = 45360453
REMARK  7 active torsions:
REMARK  status: ('A' for Active; 'I' for Inactive)
REMARK    1  A    between atoms: N_4  and  C_16
REMARK    2  A    between atoms: N_7  and  C_26
REMARK    3  A    between atoms: C_10  and  C_17
REMARK    4  A    between atoms: C_11  and  C_16
REMARK    5  A    between atoms: C_19  and  C_22
REMARK    6  A    between atoms: C_20  and  C_23
REMARK    7  A    between atoms: C_32  and  C_35
REMARK                            x       y       z     vdW  Elec       q    Type
REMARK                         _______ _______ _______ _____ _____    ______ ____
ROOT
ATOM      3  N   UNL     1      -3.213   5.005  26.575  0.00  0.00    -0.297 NA
ATOM      9  C   UNL     1      -4.771   4.544  24.539  0.00  0.00    +0.002 C 
ATOM     10  C   UNL     1      -4.282   3.207  25.164  0.00  0.00    +0.055 C 
ATOM     11  C   UNL     1      -2.770   5.807  25.403  0.00  0.00    +0.074 C 
ATOM     12  C   UNL     1      -3.549   5.395  24.135  0.00  0.00    +0.024 C 
ATOM     13  C   UNL     1      -5.510   5.312  25.655  0.00  0.00    +0.019 C 
ATOM     14  C   UNL     1      -3.209   3.560  26.232  0.00  0.00    +0.094 C 
ATOM     15  C   UNL     1      -4.606   5.400  26.896  0.00  0.00    +0.085 C 
ENDROOT
BRANCH  10  17
ATOM      5  N   UNL     1      -3.352   2.486  23.019  0.00  0.00    -0.237 NA
ATOM      6  N   UNL     1      -2.983   0.162  22.496  0.00  0.00    -0.232 NA
ATOM     17  C   UNL     1      -3.821   2.101  24.224  0.00  0.00    +0.050 A 
ATOM     18  C   UNL     1      -3.902   0.786  24.632  0.00  0.00    +0.052 A 
ATOM     19  C   UNL     1      -3.464  -0.151  23.718  0.00  0.00    +0.076 A 
ATOM     20  C   UNL     1      -2.955   1.479  22.217  0.00  0.00    +0.127 A 
ATOM     23  C   UNL     1      -2.431   1.865  20.875  0.00  0.00    +0.088 C 
BRANCH  19  22
ATOM      1 BR   UNL     1      -1.172  -1.168  25.702  0.00  0.00    -0.050 Br
ATOM     22  C   UNL     1      -3.497  -1.562  24.021  0.00  0.00    +0.014 A 
ATOM     24  C   UNL     1      -2.566  -2.157  24.872  0.00  0.00    +0.027 A 
ATOM     25  C   UNL     1      -4.500  -2.333  23.434  0.00  0.00    +0.011 A 
ATOM     27  C   UNL     1      -2.637  -3.525  25.136  0.00  0.00    +0.016 A 
ATOM     28  C   UNL     1      -4.571  -3.701  23.698  0.00  0.00    +0.001 A 
ATOM     29  C   UNL     1      -3.640  -4.297  24.549  0.00  0.00    +0.001 A 
ENDBRANCH  19  22
ENDBRANCH  10  17
BRANCH  11  16
ATOM     16  C   UNL     1      -1.257   5.741  25.190  0.00  0.00    +0.124 C 
BRANCH  16   4
ATOM      2  O   UNL     1       0.056   4.249  23.127  0.00  0.00    -0.253 OA
ATOM      4  N   UNL     1      -0.786   4.394  25.277  0.00  0.00    -0.298 N 
ATOM      7  N   UNL     1       0.199   2.422  24.594  0.00  0.00    -0.269 N 
ATOM     21  C   UNL     1      -0.148   3.723  24.218  0.00  0.00    +0.304 C 
ATOM     36  H   UNL     1      -0.925   3.893  26.149  0.00  0.00    +0.150 HD
ATOM     37  H   UNL     1      -0.043   2.140  25.540  0.00  0.00    +0.156 HD
BRANCH   7  26
ATOM     26  C   UNL     1       0.852   1.438  23.815  0.00  0.00    +0.036 A 
ATOM     30  C   UNL     1       2.245   1.376  23.792  0.00  0.00    +0.042 A 
ATOM     31  C   UNL     1       0.100   0.529  23.071  0.00  0.00    +0.023 A 
ATOM     32  C   UNL     1       2.888   0.404  23.024  0.00  0.00    +0.054 A 
ATOM     33  C   UNL     1       0.743  -0.443  22.302  0.00  0.00    +0.003 A 
ATOM     34  C   UNL     1       2.136  -0.505  22.279  0.00  0.00    +0.019 A 
BRANCH  32  35
ATOM      8  N   UNL     1       5.474   0.289  22.980  0.00  0.00    -0.191 NA
ATOM     35  C   UNL     1       4.314   0.341  22.999  0.00  0.00    +0.099 C 
ENDBRANCH  32  35
ENDBRANCH   7  26
ENDBRANCH  16   4
ENDBRANCH  11  16
TORSDOF 6
ENDMDL
MODEL 5
REMARK VINA RESULT:      10.2      2.107      5.481
REMARK  Name = 45360453
REMARK  7 active torsions:
REMARK  status: ('A' for Active; 'I' for Inactive)
REMARK    1  A    between atoms: N_4  and  C_16
REMARK    2  A    between atoms: N_7  and  C_26
REMARK    3  A    between atoms: C_10  and  C_17
REMARK    4  A    between atoms: C_11  and  C_16
REMARK    5  A    between atoms: C_19  and  C_22
REMARK    6  A    between atoms: C_20  and  C_23
REMARK    7  A    between atoms: C_32  and  C_35
REMARK                            x       y       z     vdW  Elec       q    Type
REMARK                         _______ _______ _______ _____ _____    ______ ____
ROOT
ATOM      3  N   UNL     1      -3.246   5.771  24.723  0.00  0.00    -0.297 NA
ATOM      9  C   UNL     1      -3.801   3.838  23.068  0.00  0.00    +0.002 C 
ATOM     10  C   UNL     1      -4.709   3.755  24.326  0.00  0.00    +0.055 C 
ATOM     11  C   UNL     1      -1.997   5.074  24.318  0.00  0.00    +0.074 C 
ATOM     12  C   UNL     1      -2.321   3.803  23.504  0.00  0.00    +0.024 C 
ATOM     13  C   UNL     1      -4.052   5.220  22.428  0.00  0.00    +0.019 C 
ATOM     14  C   UNL     1      -4.187   4.806  25.346  0.00  0.00    +0.094 C 
ATOM     15  C   UNL     1      -3.882   6.313  23.498  0.00  0.00    +0.085 C 
ENDROOT
BRANCH  10  17
ATOM      5  N   UNL     1      -5.823   2.328  25.971  0.00  0.00    -0.237 NA
ATOM      6  N   UNL     1      -5.363  -0.031  26.148  0.00  0.00    -0.232 NA
ATOM     17  C   UNL     1      -4.929   2.390  24.964  0.00  0.00    +0.050 A 
ATOM     18  C   UNL     1      -4.221   1.301  24.499  0.00  0.00    +0.052 A 
ATOM     19  C   UNL     1      -4.481   0.104  25.134  0.00  0.00    +0.076 A 
ATOM     20  C   UNL     1      -5.990   1.104  26.509  0.00  0.00    +0.127 A 
ATOM     23  C   UNL     1      -6.970   0.996  27.627  0.00  0.00    +0.088 C 
BRANCH  19  22
ATOM      1 BR   UNL     1      -1.441  -0.128  26.096  0.00  0.00    -0.050 Br
ATOM     22  C   UNL     1      -3.805  -1.111  24.743  0.00  0.00    +0.014 A 
ATOM     24  C   UNL     1      -2.477  -1.361  25.088  0.00  0.00    +0.027 A 
ATOM     25  C   UNL     1      -4.523  -2.048  24.000  0.00  0.00    +0.011 A 
ATOM     27  C   UNL     1      -1.865  -2.549  24.689  0.00  0.00    +0.016 A 
ATOM     28  C   UNL     1      -3.910  -3.236  23.600  0.00  0.00    +0.001 A 
ATOM     29  C   UNL     1      -2.582  -3.487  23.945  0.00  0.00    +0.001 A 
ENDBRANCH  19  22
ENDBRANCH  10  17
BRANCH  11  16
ATOM     16  C   UNL     1      -1.084   4.772  25.508  0.00  0.00    +0.124 C 
BRANCH  16   4
ATOM      2  O   UNL     1       0.526   3.777  23.359  0.00  0.00    -0.253 OA
ATOM      4  N   UNL     1      -0.518   3.464  25.400  0.00  0.00    -0.298 N 
ATOM      7  N   UNL     1       0.679   1.720  24.478  0.00  0.00    -0.269 N 
ATOM     21  C   UNL     1       0.265   3.044  24.309  0.00  0.00    +0.304 C 
ATOM     36  H   UNL     1      -0.696   2.801  26.148  0.00  0.00    +0.150 HD
ATOM     37  H   UNL     1       0.374   1.251  25.328  0.00  0.00    +0.156 HD
BRANCH   7  26
ATOM     26  C   UNL     1       1.476   0.941  23.607  0.00  0.00    +0.036 A 
ATOM     30  C   UNL     1       2.862   0.912  23.766  0.00  0.00    +0.042 A 
ATOM     31  C   UNL     1       0.875   0.202  22.588  0.00  0.00    +0.023 A 
ATOM     32  C   UNL     1       3.647   0.143  22.906  0.00  0.00    +0.054 A 
ATOM     33  C   UNL     1       1.660  -0.567  21.728  0.00  0.00    +0.003 A 
ATOM     34  C   UNL     1       3.045  -0.597  21.887  0.00  0.00    +0.019 A 
BRANCH  32  35
ATOM      8  N   UNL     1       6.218   0.088  23.200  0.00  0.00    -0.191 NA
ATOM     35  C   UNL     1       5.065   0.113  23.069  0.00  0.00    +0.099 C 
ENDBRANCH  32  35
ENDBRANCH   7  26
ENDBRANCH  16   4
ENDBRANCH  11  16
TORSDOF 6
ENDMDL
MODEL 6
REMARK VINA RESULT:      10.5      2.851      5.281
REMARK  Name = 45360453
REMARK  7 active torsions:
REMARK  status: ('A' for Active; 'I' for Inactive)
REMARK    1  A    between atoms: N_4  and  C_16
REMARK    2  A    between atoms: N_7  and  C_26
REMARK    3  A    between atoms: C_10  and  C_17
REMARK    4  A    between atoms: C_11  and  C_16
REMARK    5  A    between atoms: C_19  and  C_22
REMARK    6  A    between atoms: C_20  and  C_23
REMARK    7  A    between atoms: C_32  and  C_35
REMARK                            x       y       z     vdW  Elec       q    Type
REMARK                         _______ _______ _______ _____ _____    ______ ____
ROOT
ATOM      3  N   UNL     1      -4.538   3.246  25.809  0.00  0.00    -0.297 NA
ATOM      9  C   UNL     1      -5.449   1.359  24.263  0.00  0.00    +0.002 C 
ATOM     10  C   UNL     1      -4.553   0.759  25.383  0.00  0.00    +0.055 C 
ATOM     11  C   UNL     1      -4.295   3.594  24.384  0.00  0.00    +0.074 C 
ATOM     12  C   UNL     1      -4.639   2.402  23.465  0.00  0.00    +0.024 C 
ATOM     13  C   UNL     1      -6.595   2.115  24.967  0.00  0.00    +0.019 C 
ATOM     14  C   UNL     1      -3.891   1.949  26.133  0.00  0.00    +0.094 C 
ATOM     15  C   UNL     1      -6.001   3.092  25.997  0.00  0.00    +0.085 C 
ENDROOT
BRANCH  10  17
ATOM      5  N   UNL     1      -3.979  -1.592  25.029  0.00  0.00    -0.237 NA
ATOM      6  N   UNL     1      -1.781  -2.285  24.321  0.00  0.00    -0.232 NA
ATOM     17  C   UNL     1      -3.545  -0.315  24.998  0.00  0.00    +0.050 A 
ATOM     18  C   UNL     1      -2.263   0.051  24.646  0.00  0.00    +0.052 A 
ATOM     19  C   UNL     1      -1.415  -0.986  24.313  0.00  0.00    +0.076 A 
ATOM     20  C   UNL     1      -3.059  -2.512  24.682  0.00  0.00    +0.127 A 
ATOM     23  C   UNL     1      -3.500  -3.936  24.705  0.00  0.00    +0.088 C 
BRANCH  19  22
ATOM      1 BR   UNL     1      -0.961   1.626  22.525  0.00  0.00    -0.050 Br
ATOM     22  C   UNL     1      -0.046  -0.737  23.928  0.00  0.00    +0.014 A 
ATOM     24  C   UNL     1       0.314   0.363  23.150  0.00  0.00    +0.027 A 
ATOM     25  C   UNL     1       0.928  -1.636  24.359  0.00  0.00    +0.011 A 
ATOM     27  C   UNL     1       1.650   0.564  22.802  0.00  0.00    +0.016 A 
ATOM     28  C   UNL     1       2.264  -1.436  24.011  0.00  0.00    +0.001 A 
ATOM     29  C   UNL     1       2.625  -0.336  23.233  0.00  0.00    +0.001 A 
ENDBRANCH  19  22
ENDBRANCH  10  17
BRANCH  11  16
ATOM     16  C   UNL     1      -2.875   4.109  24.143  0.00  0.00    +0.124 C 
BRANCH  16   4
ATOM      2  O   UNL     1      -1.253   4.819  26.395  0.00  0.00    -0.253 OA
ATOM      4  N   UNL     1      -1.913   3.280  24.799  0.00  0.00    -0.298 N 
ATOM      7  N   UNL     1      -0.295   2.677  26.331  0.00  0.00    -0.269 N 
ATOM     21  C   UNL     1      -1.149   3.698  25.904  0.00  0.00    +0.304 C 
ATOM     36  H   UNL     1      -1.769   2.339  24.444  0.00  0.00    +0.150 HD
ATOM     37  H   UNL     1      -0.333   1.804  25.812  0.00  0.00    +0.156 HD
BRANCH   7  26
ATOM     26  C   UNL     1       0.624   2.707  27.405  0.00  0.00    +0.036 A 
ATOM     30  C   UNL     1       0.173   2.551  28.716  0.00  0.00    +0.042 A 
ATOM     31  C   UNL     1       1.984   2.892  27.153  0.00  0.00    +0.023 A 
ATOM     32  C   UNL     1       1.082   2.580  29.775  0.00  0.00    +0.054 A 
ATOM     33  C   UNL     1       2.892   2.921  28.211  0.00  0.00    +0.003 A 
ATOM     34  C   UNL     1       2.441   2.764  29.522  0.00  0.00    +0.019 A 
BRANCH  32  35
ATOM      8  N   UNL     1       0.245   2.292  32.208  0.00  0.00    -0.191 NA
ATOM     35  C   UNL     1       0.620   2.421  31.117  0.00  0.00    +0.099 C 
ENDBRANCH  32  35
ENDBRANCH   7  26
ENDBRANCH  16   4
ENDBRANCH  11  16
TORSDOF 6
ENDMDL
MODEL 7
REMARK VINA RESULT:      10.8      2.825      7.494
REMARK  Name = 45360453
REMARK  7 active torsions:
REMARK  status: ('A' for Active; 'I' for Inactive)
REMARK    1  A    between atoms: N_4  and  C_16
REMARK    2  A    between atoms: N_7  and  C_26
REMARK    3  A    between atoms: C_10  and  C_17
REMARK    4  A    between atoms: C_11  and  C_16
REMARK    5  A    between atoms: C_19  and  C_22
REMARK    6  A    between atoms: C_20  and  C_23
REMARK    7  A    between atoms: C_32  and  C_35
REMARK                            x       y       z     vdW  Elec       q    Type
REMARK                         _______ _______ _______ _____ _____    ______ ____
ROOT
ATOM      3  N   UNL     1      -1.566  -2.890  24.226  0.00  0.00    -0.297 NA
ATOM      9  C   UNL     1      -3.849  -1.779  24.806  0.00  0.00    +0.002 C 
ATOM     10  C   UNL     1      -3.292  -1.212  23.470  0.00  0.00    +0.055 C 
ATOM     11  C   UNL     1      -1.550  -2.397  25.628  0.00  0.00    +0.074 C 
ATOM     12  C   UNL     1      -2.810  -1.557  25.926  0.00  0.00    +0.024 C 
ATOM     13  C   UNL     1      -3.994  -3.303  24.617  0.00  0.00    +0.019 C 
ATOM     14  C   UNL     1      -1.850  -1.767  23.296  0.00  0.00    +0.094 C 
ATOM     15  C   UNL     1      -2.663  -3.880  24.104  0.00  0.00    +0.085 C 
ENDROOT
BRANCH  10  17
ATOM      5  N   UNL     1      -2.634   0.786  22.222  0.00  0.00    -0.237 NA
ATOM      6  N   UNL     1      -3.456   2.981  22.786  0.00  0.00    -0.232 NA
ATOM     17  C   UNL     1      -3.366   0.291  23.241  0.00  0.00    +0.050 A 
ATOM     18  C   UNL     1      -4.155   1.066  24.066  0.00  0.00    +0.052 A 
ATOM     19  C   UNL     1      -4.162   2.418  23.788  0.00  0.00    +0.076 A 
ATOM     20  C   UNL     1      -2.725   2.119  22.052  0.00  0.00    +0.127 A 
ATOM     23  C   UNL     1      -1.929   2.704  20.936  0.00  0.00    +0.088 C 
BRANCH  19  22
ATOM      1 BR   UNL     1      -5.909   1.073  26.105  0.00  0.00    -0.050 Br
ATOM     22  C   UNL     1      -4.946   3.338  24.578  0.00  0.00    +0.014 A 
ATOM     24  C   UNL     1      -5.758   2.906  25.626  0.00  0.00    +0.027 A 
ATOM     25  C   UNL     1      -4.873   4.695  24.265  0.00  0.00    +0.011 A 
ATOM     27  C   UNL     1      -6.498   3.831  26.363  0.00  0.00    +0.016 A 
ATOM     28  C   UNL     1      -5.613   5.620  25.001  0.00  0.00    +0.001 A 
ATOM     29  C   UNL     1      -6.425   5.189  26.050  0.00  0.00    +0.001 A 
ENDBRANCH  19  22
ENDBRANCH  10  17
BRANCH  11  16
ATOM     16  C   UNL     1      -0.265  -1.638  25.966  0.00  0.00    +0.124 C 
BRANCH  16   4
ATOM      2  O   UNL     1      -0.330   0.650  24.244  0.00  0.00    -0.253 OA
ATOM      4  N   UNL     1      -0.553  -0.290  26.345  0.00  0.00    -0.298 N 
ATOM      7  N   UNL     1      -0.879   1.981  26.097  0.00  0.00    -0.269 N 
ATOM     21  C   UNL     1      -0.567   0.787  25.441  0.00  0.00    +0.304 C 
ATOM     36  H   UNL     1      -0.755  -0.100  27.323  0.00  0.00    +0.150 HD
ATOM     37  H   UNL     1      -1.049   1.921  27.098  0.00  0.00    +0.156 HD
BRANCH   7  26
ATOM     26  C   UNL     1      -0.990   3.276  25.538  0.00  0.00    +0.036 A 
ATOM     30  C   UNL     1      -0.206   3.634  24.442  0.00  0.00    +0.042 A 
ATOM     31  C   UNL     1      -1.887   4.195  26.084  0.00  0.00    +0.023 A 
ATOM     32  C   UNL     1      -0.317   4.911  23.891  0.00  0.00    +0.054 A 
ATOM     33  C   UNL     1      -1.998   5.472  25.534  0.00  0.00    +0.003 A 
ATOM     34  C   UNL     1      -1.213   5.830  24.438  0.00  0.00    +0.019 A 
BRANCH  32  35
ATOM      8  N   UNL     1       1.140   5.577  21.858  0.00  0.00    -0.191 NA
ATOM     35  C   UNL     1       0.487   5.278  22.769  0.00  0.00    +0.099 C 
ENDBRANCH  32  35
ENDBRANCH   7  26
ENDBRANCH  16   4
ENDBRANCH  11  16
TORSDOF 6
ENDMDL
MODEL 8
REMARK VINA RESULT:      10.8      2.779      7.306
REMARK  Name = 45360453
REMARK  7 active torsions:
REMARK  status: ('A' for Active; 'I' for Inactive)
REMARK    1  A    between atoms: N_4  and  C_16
REMARK    2  A    between atoms: N_7  and  C_26
REMARK    3  A    between atoms: C_10  and  C_17
REMARK    4  A    between atoms: C_11  and  C_16
REMARK    5  A    between atoms: C_19  and  C_22
REMARK    6  A    between atoms: C_20  and  C_23
REMARK    7  A    between atoms: C_32  and  C_35
REMARK                            x       y       z     vdW  Elec       q    Type
REMARK                         _______ _______ _______ _____ _____    ______ ____
ROOT
ATOM      3  N   UNL     1      -2.677  -2.162  23.497  0.00  0.00    -0.297 NA
ATOM      9  C   UNL     1      -3.103  -1.445  25.964  0.00  0.00    +0.002 C 
ATOM     10  C   UNL     1      -4.071  -0.696  25.005  0.00  0.00    +0.055 C 
ATOM     11  C   UNL     1      -1.393  -1.790  24.147  0.00  0.00    +0.074 C 
ATOM     12  C   UNL     1      -1.647  -1.168  25.538  0.00  0.00    +0.024 C 
ATOM     13  C   UNL     1      -3.356  -2.954  25.762  0.00  0.00    +0.019 C 
ATOM     14  C   UNL     1      -3.625  -1.020  23.552  0.00  0.00    +0.094 C 
ATOM     15  C   UNL     1      -3.265  -3.287  24.263  0.00  0.00    +0.085 C 
ENDROOT
BRANCH  10  17
ATOM      5  N   UNL     1      -5.522   1.176  25.615  0.00  0.00    -0.237 NA
ATOM      6  N   UNL     1      -4.739   3.455  25.633  0.00  0.00    -0.232 NA
ATOM     17  C   UNL     1      -4.289   0.794  25.225  0.00  0.00    +0.050 A 
ATOM     18  C   UNL     1      -3.243   1.671  25.021  0.00  0.00    +0.052 A 
ATOM     19  C   UNL     1      -3.528   3.003  25.243  0.00  0.00    +0.076 A 
ATOM     20  C   UNL     1      -5.675   2.501  25.799  0.00  0.00    +0.127 A 
ATOM     23  C   UNL     1      -7.026   2.962  26.228  0.00  0.00    +0.088 C 
BRANCH  19  22
ATOM      1 BR   UNL     1      -0.528   2.067  25.831  0.00  0.00    -0.050 Br
ATOM     22  C   UNL     1      -2.522   4.022  25.062  0.00  0.00    +0.014 A 
ATOM     24  C   UNL     1      -1.167   3.769  25.278  0.00  0.00    +0.027 A 
ATOM     25  C   UNL     1      -2.940   5.290  24.659  0.00  0.00    +0.011 A 
ATOM     27  C   UNL     1      -0.230   4.785  25.091  0.00  0.00    +0.016 A 
ATOM     28  C   UNL     1      -2.002   6.306  24.472  0.00  0.00    +0.001 A 
ATOM     29  C   UNL     1      -0.648   6.054  24.688  0.00  0.00    +0.001 A 
ENDBRANCH  19  22
ENDBRANCH  10  17
BRANCH  11  16
ATOM     16  C   UNL     1      -0.534  -0.883  23.265  0.00  0.00    +0.124 C 
BRANCH  16   4
ATOM      2  O   UNL     1       1.708   0.896  23.399  0.00  0.00    -0.253 OA
ATOM      4  N   UNL     1       0.846  -1.250  23.345  0.00  0.00    -0.298 N 
ATOM      7  N   UNL     1       3.132  -0.967  23.479  0.00  0.00    -0.269 N 
ATOM     21  C   UNL     1       1.897  -0.317  23.408  0.00  0.00    +0.304 C 
ATOM     36  H   UNL     1       1.079  -2.238  23.352  0.00  0.00    +0.150 HD
ATOM     37  H   UNL     1       3.114  -1.984  23.476  0.00  0.00    +0.156 HD
BRANCH   7  26
ATOM     26  C   UNL     1       4.418  -0.383  23.555  0.00  0.00    +0.036 A 
ATOM     30  C   UNL     1       5.516  -1.032  22.990  0.00  0.00    +0.042 A 
ATOM     31  C   UNL     1       4.587   0.846  24.195  0.00  0.00    +0.023 A 
ATOM     32  C   UNL     1       6.783  -0.454  23.066  0.00  0.00    +0.054 A 
ATOM     33  C   UNL     1       5.855   1.424  24.270  0.00  0.00    +0.003 A 
ATOM     34  C   UNL     1       6.952   0.774  23.706  0.00  0.00    +0.019 A 
BRANCH  32  35
ATOM      8  N   UNL     1       8.821  -1.660  22.020  0.00  0.00    -0.191 NA
ATOM     35  C   UNL     1       7.908  -1.119  22.489  0.00  0.00    +0.099 C 
ENDBRANCH  32  35
ENDBRANCH   7  26
ENDBRANCH  16   4
ENDBRANCH  11  16
TORSDOF 6
ENDMDL
MODEL 9
REMARK VINA RESULT:      11.3      1.924      4.877
REMARK  Name = 45360453
REMARK  7 active torsions:
REMARK  status: ('A' for Active; 'I' for Inactive)
REMARK    1  A    between atoms: N_4  and  C_16
REMARK    2  A    between atoms: N_7  and  C_26
REMARK    3  A    between atoms: C_10  and  C_17
REMARK    4  A    between atoms: C_11  and  C_16
REMARK    5  A    between atoms: C_19  and  C_22
REMARK    6  A    between atoms: C_20  and  C_23
REMARK    7  A    between atoms: C_32  and  C_35
REMARK                            x       y       z     vdW  Elec       q    Type
REMARK                         _______ _______ _______ _____ _____    ______ ____
ROOT
ATOM      3  N   UNL     1      -4.555   3.851  26.340  0.00  0.00    -0.297 NA
ATOM      9  C   UNL     1      -4.979   2.883  23.959  0.00  0.00    +0.002 C 
ATOM     10  C   UNL     1      -5.219   1.793  25.040  0.00  0.00    +0.055 C 
ATOM     11  C   UNL     1      -3.409   4.171  25.448  0.00  0.00    +0.074 C 
ATOM     12  C   UNL     1      -3.545   3.434  24.099  0.00  0.00    +0.024 C 
ATOM     13  C   UNL     1      -5.944   4.045  24.277  0.00  0.00    +0.019 C 
ATOM     14  C   UNL     1      -4.754   2.381  26.403  0.00  0.00    +0.094 C 
ATOM     15  C   UNL     1      -5.772   4.458  25.749  0.00  0.00    +0.085 C 
ENDROOT
BRANCH  10  17
ATOM      5  N   UNL     1      -5.463  -0.472  24.150  0.00  0.00    -0.237 NA
ATOM      6  N   UNL     1      -3.708  -2.115  24.318  0.00  0.00    -0.232 NA
ATOM     17  C   UNL     1      -4.658   0.399  24.791  0.00  0.00    +0.050 A 
ATOM     18  C   UNL     1      -3.384   0.092  25.222  0.00  0.00    +0.052 A 
ATOM     19  C   UNL     1      -2.957  -1.192  24.955  0.00  0.00    +0.076 A 
ATOM     20  C   UNL     1      -4.932  -1.693  23.948  0.00  0.00    +0.127 A 
ATOM     23  C   UNL     1      -5.793  -2.686  23.243  0.00  0.00    +0.088 C 
BRANCH  19  22
ATOM      1 BR   UNL     1      -1.745  -3.580  23.207  0.00  0.00    -0.050 Br
ATOM     22  C   UNL     1      -1.644  -1.640  25.355  0.00  0.00    +0.014 A 
ATOM     24  C   UNL     1      -0.980  -2.672  24.691  0.00  0.00    +0.027 A 
ATOM     25  C   UNL     1      -1.040  -1.007  26.441  0.00  0.00    +0.011 A 
ATOM     27  C   UNL     1       0.288  -3.071  25.113  0.00  0.00    +0.016 A 
ATOM     28  C   UNL     1       0.228  -1.406  26.863  0.00  0.00    +0.001 A 
ATOM     29  C   UNL     1       0.892  -2.438  26.200  0.00  0.00    +0.001 A 
ENDBRANCH  19  22
ENDBRANCH  10  17
BRANCH  11  16
ATOM     16  C   UNL     1      -2.058   3.898  26.114  0.00  0.00    +0.124 C 
BRANCH  16   4
ATOM      2  O   UNL     1      -0.056   3.522  24.100  0.00  0.00    -0.253 OA
ATOM      4  N   UNL     1      -1.514   2.653  25.672  0.00  0.00    -0.298 N 
ATOM      7  N   UNL     1      -0.192   1.206  24.453  0.00  0.00    -0.269 N 
ATOM     21  C   UNL     1      -0.529   2.544  24.674  0.00  0.00    +0.304 C 
ATOM     36  H   UNL     1      -1.861   1.799  26.100  0.00  0.00    +0.150 HD
ATOM     37  H   UNL     1      -0.680   0.514  25.017  0.00  0.00    +0.156 HD
BRANCH   7  26
ATOM     26  C   UNL     1       0.752   0.687  23.536  0.00  0.00    +0.036 A 
ATOM     30  C   UNL     1       2.117   0.841  23.776  0.00  0.00    +0.042 A 
ATOM     31  C   UNL     1       0.315   0.021  22.391  0.00  0.00    +0.023 A 
ATOM     32  C   UNL     1       3.047   0.328  22.871  0.00  0.00    +0.054 A 
ATOM     33  C   UNL     1       1.245  -0.491  21.485  0.00  0.00    +0.003 A 
ATOM     34  C   UNL     1       2.610  -0.338  21.725  0.00  0.00    +0.019 A 
BRANCH  32  35
ATOM      8  N   UNL     1       5.581   0.614  23.315  0.00  0.00    -0.191 NA
ATOM     35  C   UNL     1       4.445   0.486  23.116  0.00  0.00    +0.099 C 
ENDBRANCH  32  35
ENDBRANCH   7  26
ENDBRANCH  16   4
ENDBRANCH  11  16
TORSDOF 6
ENDMDL
MODEL 10
REMARK VINA RESULT:      11.4      2.661      7.464
REMARK  Name = 45360453
REMARK  7 active torsions:
REMARK  status: ('A' for Active; 'I' for Inactive)
REMARK    1  A    between atoms: N_4  and  C_16
REMARK    2  A    between atoms: N_7  and  C_26
REMARK    3  A    between atoms: C_10  and  C_17
REMARK    4  A    between atoms: C_11  and  C_16
REMARK    5  A    between atoms: C_19  and  C_22
REMARK    6  A    between atoms: C_20  and  C_23
REMARK    7  A    between atoms: C_32  and  C_35
REMARK                            x       y       z     vdW  Elec       q    Type
REMARK                         _______ _______ _______ _____ _____    ______ ____
ROOT
ATOM      3  N   UNL     1      -1.758  -3.192  24.097  0.00  0.00    -0.297 NA
ATOM      9  C   UNL     1      -3.395  -1.680  25.445  0.00  0.00    +0.002 C 
ATOM     10  C   UNL     1      -3.463  -1.340  23.930  0.00  0.00    +0.055 C 
ATOM     11  C   UNL     1      -1.050  -2.577  25.251  0.00  0.00    +0.074 C 
ATOM     12  C   UNL     1      -1.942  -1.521  25.939  0.00  0.00    +0.024 C 
ATOM     13  C   UNL     1      -3.761  -3.172  25.583  0.00  0.00    +0.019 C 
ATOM     14  C   UNL     1      -2.326  -2.131  23.226  0.00  0.00    +0.094 C 
ATOM     15  C   UNL     1      -2.880  -4.000  24.632  0.00  0.00    +0.085 C 
ENDROOT
BRANCH  10  17
ATOM      5  N   UNL     1      -2.741   0.470  22.452  0.00  0.00    -0.237 NA
ATOM      6  N   UNL     1      -3.481   2.745  22.749  0.00  0.00    -0.232 NA
ATOM     17  C   UNL     1      -3.484   0.128  23.523  0.00  0.00    +0.050 A 
ATOM     18  C   UNL     1      -4.241   1.023  24.250  0.00  0.00    +0.052 A 
ATOM     19  C   UNL     1      -4.202   2.331  23.813  0.00  0.00    +0.076 A 
ATOM     20  C   UNL     1      -2.786   1.776  22.124  0.00  0.00    +0.127 A 
ATOM     23  C   UNL     1      -1.975   2.194  20.944  0.00  0.00    +0.088 C 
BRANCH  19  22
ATOM      1 BR   UNL     1      -6.150   1.309  26.133  0.00  0.00    -0.050 Br
ATOM     22  C   UNL     1      -4.948   3.367  24.488  0.00  0.00    +0.014 A 
ATOM     24  C   UNL     1      -5.838   3.081  25.523  0.00  0.00    +0.027 A 
ATOM     25  C   UNL     1      -4.757   4.685  24.075  0.00  0.00    +0.011 A 
ATOM     27  C   UNL     1      -6.538   4.114  26.147  0.00  0.00    +0.016 A 
ATOM     28  C   UNL     1      -5.457   5.719  24.699  0.00  0.00    +0.001 A 
ATOM     29  C   UNL     1      -6.347   5.434  25.734  0.00  0.00    +0.001 A 
ENDBRANCH  19  22
ENDBRANCH  10  17
BRANCH  11  16
ATOM     16  C   UNL     1       0.314  -2.004  24.860  0.00  0.00    +0.124 C 
BRANCH  16   4
ATOM      2  O   UNL     1      -0.579   0.369  26.193  0.00  0.00    -0.253 OA
ATOM      4  N   UNL     1       0.176  -0.702  24.286  0.00  0.00    -0.298 N 
ATOM      7  N   UNL     1      -0.305   1.553  24.186  0.00  0.00    -0.269 N 
ATOM     21  C   UNL     1      -0.271   0.422  25.005  0.00  0.00    +0.304 C 
ATOM     36  H   UNL     1       0.408  -0.583  23.305  0.00  0.00    +0.150 HD
ATOM     37  H   UNL     1      -0.016   1.425  23.219  0.00  0.00    +0.156 HD
BRANCH   7  26
ATOM     26  C   UNL     1      -0.695   2.867  24.534  0.00  0.00    +0.036 A 
ATOM     30  C   UNL     1      -1.586   3.076  25.587  0.00  0.00    +0.042 A 
ATOM     31  C   UNL     1      -0.185   3.956  23.825  0.00  0.00    +0.023 A 
ATOM     32  C   UNL     1      -1.969   4.373  25.930  0.00  0.00    +0.054 A 
ATOM     33  C   UNL     1      -0.568   5.252  24.169  0.00  0.00    +0.003 A 
ATOM     34  C   UNL     1      -1.460   5.461  25.221  0.00  0.00    +0.019 A 
BRANCH  32  35
ATOM      8  N   UNL     1      -3.625   4.761  27.882  0.00  0.00    -0.191 NA
ATOM     35  C   UNL     1      -2.883   4.587  27.007  0.00  0.00    +0.099 C 
ENDBRANCH  32  35
ENDBRANCH   7  26
ENDBRANCH  16   4
ENDBRANCH  11  16
TORSDOF 6
ENDMDL
