MODEL 1
REMARK VINA RESULT:       6.4      0.000      0.000
REMARK  Name = 7682261
REMARK  5 active torsions:
REMARK  status: ('A' for Active; 'I' for Inactive)
REMARK    1  A    between atoms: N_4  and  C_14
REMARK    2  A    between atoms: N_6  and  C_28
REMARK    3  A    between atoms: C_14  and  C_20
REMARK    4  A    between atoms: C_15  and  C_19
REMARK    5  A    between atoms: C_29  and  C_30
REMARK                            x       y       z     vdW  Elec       q    Type
REMARK                         _______ _______ _______ _____ _____    ______ ____
ROOT
ATOM      2  O   UNL     1      -4.056   4.577  27.425  0.00  0.00    -0.268 OA
ATOM      4  N   UNL     1      -4.486   0.654  24.378  0.00  0.00    -0.297 NA
ATOM      5  N   UNL     1      -3.389   3.420  25.501  0.00  0.00    -0.311 N 
ATOM      7  C   UNL     1      -5.017   2.960  23.571  0.00  0.00    +0.024 C 
ATOM      8  C   UNL     1      -2.712   2.149  23.442  0.00  0.00    +0.051 C 
ATOM      9  C   UNL     1      -3.764   2.979  22.712  0.00  0.00    +0.017 C 
ATOM     10  C   UNL     1      -5.509   1.512  23.772  0.00  0.00    +0.090 C 
ATOM     11  C   UNL     1      -3.230   0.700  23.617  0.00  0.00    +0.094 C 
ATOM     12  C   UNL     1      -4.708   3.662  24.896  0.00  0.00    +0.130 C 
ATOM     13  C   UNL     1      -2.358   2.767  24.798  0.00  0.00    +0.034 A 
ATOM     15  C   UNL     1      -1.114   2.689  25.338  0.00  0.00    +0.002 A 
ATOM     16  C   UNL     1      -3.196   3.983  26.774  0.00  0.00    +0.252 A 
ATOM     17  C   UNL     1      -0.877   3.254  26.654  0.00  0.00    +0.015 A 
ATOM     18  C   UNL     1      -1.839   3.854  27.355  0.00  0.00    +0.071 A 
ENDROOT
BRANCH  15  19
ATOM     19  C   UNL     1       0.004   2.031  24.628  0.00  0.00    -0.016 A 
ATOM     21  C   UNL     1       1.020   2.804  24.073  0.00  0.00    +0.010 A 
ATOM     22  C   UNL     1       0.033   0.644  24.520  0.00  0.00    +0.010 A 
ATOM     25  C   UNL     1       2.074   2.184  23.403  0.00  0.00    +0.024 A 
ATOM     26  C   UNL     1       1.088   0.024  23.850  0.00  0.00    +0.024 A 
ATOM     28  C   UNL     1       2.108   0.794  23.292  0.00  0.00    +0.033 A 
BRANCH  28   6
ATOM      3  O   UNL     1       5.070   0.853  23.834  0.00  0.00    -0.276 OA
ATOM      6  N   UNL     1       3.164   0.173  22.623  0.00  0.00    -0.286 N 
ATOM     29  C   UNL     1       4.532   0.237  22.919  0.00  0.00    +0.214 C 
ATOM     30  C   UNL     1       5.352  -0.580  21.952  0.00  0.00    +0.109 C 
ATOM     31  H   UNL     1       2.896  -0.395  21.822  0.00  0.00    +0.155 HD
ENDBRANCH  28   6
ENDBRANCH  15  19
BRANCH   4  14
ATOM     14  C   UNL     1      -4.967  -0.720  24.509  0.00  0.00    +0.126 C 
BRANCH  14  20
ATOM      1  S   UNL     1      -2.548  -1.449  25.620  0.00  0.00    -0.100 S 
ATOM     20  C   UNL     1      -3.838  -1.710  24.541  0.00  0.00    +0.004 A 
ATOM     23  C   UNL     1      -3.697  -2.840  23.791  0.00  0.00    +0.012 A 
ATOM     24  C   UNL     1      -2.487  -3.524  24.107  0.00  0.00    +0.008 A 
ATOM     27  C   UNL     1      -1.767  -2.875  25.086  0.00  0.00    +0.045 A 
ENDBRANCH  14  20
ENDBRANCH   4  14
TORSDOF 4
ENDMDL
