MODEL 1
REMARK VINA RESULT:      -2.1      0.000      0.000
REMARK  Name = 26741971
REMARK  8 active torsions:
REMARK  status: ('A' for Active; 'I' for Inactive)
REMARK    1  A    between atoms: O_1  and  C_11
REMARK    2  A    between atoms: O_4  and  C_25
REMARK    3  A    between atoms: O_4  and  C_26
REMARK    4  A    between atoms: N_7  and  C_10
REMARK    5  A    between atoms: N_8  and  C_19
REMARK    6  A    between atoms: C_17  and  C_18
REMARK    7  A    between atoms: C_19  and  C_22
REMARK    8  A    between atoms: C_26  and  C_27
REMARK                            x       y       z     vdW  Elec       q    Type
REMARK                         _______ _______ _______ _____ _____    ______ ____
ROOT
ATOM      3  O   UNL     1      -1.725   1.005  25.558  0.00  0.00    -0.270 OA
ATOM      7  N   UNL     1      -2.614   0.506  23.476  0.00  0.00    -0.305 N 
ATOM     17  C   UNL     1      -1.582   0.717  24.373  0.00  0.00    +0.244 C 
ATOM     28  H   UNL     1      -2.421   0.280  22.507  0.00  0.00    +0.149 HD
ENDROOT
BRANCH   7  10
ATOM      2  O   UNL     1      -2.349   3.602  23.461  0.00  0.00    -0.253 OA
ATOM      6  N   UNL     1      -4.437   3.040  24.304  0.00  0.00    -0.284 N 
ATOM      8  N   UNL     1      -3.142   4.758  25.283  0.00  0.00    -0.300 N 
ATOM     10  C   UNL     1      -4.009   0.609  23.862  0.00  0.00    +0.119 C 
ATOM     11  C   UNL     1      -4.132   0.325  25.371  0.00  0.00    +0.136 C 
ATOM     12  C   UNL     1      -5.443   0.772  26.029  0.00  0.00    +0.035 C 
ATOM     13  C   UNL     1      -4.596   1.936  23.359  0.00  0.00    +0.134 C 
ATOM     14  C   UNL     1      -5.448   2.250  26.433  0.00  0.00    +0.022 C 
ATOM     15  C   UNL     1      -5.539   3.213  25.257  0.00  0.00    +0.109 C 
ATOM     16  C   UNL     1      -3.247   3.791  24.288  0.00  0.00    +0.302 C 
ATOM     30  H   UNL     1      -3.831   4.823  26.019  0.00  0.00    +0.150 HD
BRANCH  11   1
ATOM      1  O   UNL     1      -4.015  -1.094  25.533  0.00  0.00    -0.390 OA
ATOM     29  H   UNL     1      -3.074  -1.296  25.681  0.00  0.00    +0.210 HD
ENDBRANCH  11   1
BRANCH   8  19
ATOM     19  C   UNL     1      -1.978   5.604  25.413  0.00  0.00    +0.102 C 
ATOM     22  C   UNL     1      -0.712   4.871  25.017  0.00  0.00    +0.024 C 
ENDBRANCH   8  19
ENDBRANCH   7  10
BRANCH  17  18
ATOM     18  C   UNL     1      -0.210   0.601  23.814  0.00  0.00    +0.037 A 
ATOM     20  C   UNL     1       0.731   1.600  24.064  0.00  0.00    +0.016 A 
ATOM     21  C   UNL     1       0.136  -0.506  23.038  0.00  0.00    +0.016 A 
ATOM     23  C   UNL     1       2.018   1.493  23.538  0.00  0.00    +0.046 A 
ATOM     24  C   UNL     1       1.423  -0.613  22.512  0.00  0.00    +0.046 A 
ATOM     25  C   UNL     1       2.364   0.386  22.762  0.00  0.00    +0.121 A 
BRANCH  25   4
ATOM      4  O   UNL     1       3.620   0.280  22.248  0.00  0.00    -0.483 OA
BRANCH   4  26
ATOM     26  C   UNL     1       4.687   0.831  23.020  0.00  0.00    +0.324 C 
BRANCH  26  27
ATOM      5  O   UNL     1       6.800  -0.335  23.157  0.00  0.00    -0.272 OA
ATOM      9  N   UNL     1       4.975  -1.211  24.252  0.00  0.00    -0.327 N 
ATOM     27  C   UNL     1       5.613  -0.277  23.465  0.00  0.00    +0.248 C 
ATOM     31  H   UNL     1       3.991  -1.137  24.491  0.00  0.00    +0.145 HD
ATOM     32  H   UNL     1       5.476  -2.011  24.621  0.00  0.00    +0.145 HD
ENDBRANCH  26  27
ENDBRANCH   4  26
ENDBRANCH  25   4
ENDBRANCH  17  18
TORSDOF 7
ENDMDL
MODEL 2
REMARK VINA RESULT:      -0.8      1.611      3.630
REMARK  Name = 26741971
REMARK  8 active torsions:
REMARK  status: ('A' for Active; 'I' for Inactive)
REMARK    1  A    between atoms: O_1  and  C_11
REMARK    2  A    between atoms: O_4  and  C_25
REMARK    3  A    between atoms: O_4  and  C_26
REMARK    4  A    between atoms: N_7  and  C_10
REMARK    5  A    between atoms: N_8  and  C_19
REMARK    6  A    between atoms: C_17  and  C_18
REMARK    7  A    between atoms: C_19  and  C_22
REMARK    8  A    between atoms: C_26  and  C_27
REMARK                            x       y       z     vdW  Elec       q    Type
REMARK                         _______ _______ _______ _____ _____    ______ ____
ROOT
ATOM      3  O   UNL     1      -2.372   1.614  22.903  0.00  0.00    -0.270 OA
ATOM      7  N   UNL     1      -1.530   2.315  24.946  0.00  0.00    -0.305 N 
ATOM     17  C   UNL     1      -1.440   1.734  23.694  0.00  0.00    +0.244 C 
ATOM     28  H   UNL     1      -0.719   2.371  25.551  0.00  0.00    +0.149 HD
ENDROOT
BRANCH   7  10
ATOM      2  O   UNL     1      -2.635  -0.578  25.206  0.00  0.00    -0.253 OA
ATOM      6  N   UNL     1      -4.349   0.916  25.670  0.00  0.00    -0.284 N 
ATOM      8  N   UNL     1      -4.725  -1.011  24.355  0.00  0.00    -0.300 N 
ATOM     10  C   UNL     1      -2.775   2.856  25.461  0.00  0.00    +0.119 C 
ATOM     11  C   UNL     1      -3.611   3.392  24.284  0.00  0.00    +0.136 C 
ATOM     12  C   UNL     1      -5.097   3.632  24.577  0.00  0.00    +0.035 C 
ATOM     13  C   UNL     1      -3.453   1.829  26.379  0.00  0.00    +0.134 C 
ATOM     14  C   UNL     1      -5.953   2.367  24.448  0.00  0.00    +0.022 C 
ATOM     15  C   UNL     1      -5.744   1.360  25.570  0.00  0.00    +0.109 C 
ATOM     16  C   UNL     1      -3.820  -0.251  25.089  0.00  0.00    +0.302 C 
ATOM     30  H   UNL     1      -5.661  -0.673  24.173  0.00  0.00    +0.150 HD
BRANCH  11   1
ATOM      1  O   UNL     1      -3.027   4.644  23.901  0.00  0.00    -0.390 OA
ATOM     29  H   UNL     1      -2.348   4.458  23.229  0.00  0.00    +0.210 HD
ENDBRANCH  11   1
BRANCH   8  19
ATOM     19  C   UNL     1      -4.339  -2.230  23.683  0.00  0.00    +0.102 C 
ATOM     22  C   UNL     1      -3.545  -3.140  24.598  0.00  0.00    +0.024 C 
ENDBRANCH   8  19
ENDBRANCH   7  10
BRANCH  17  18
ATOM     18  C   UNL     1      -0.102   1.204  23.325  0.00  0.00    +0.037 A 
ATOM     20  C   UNL     1       0.001   0.038  22.566  0.00  0.00    +0.016 A 
ATOM     21  C   UNL     1       1.052   1.870  23.740  0.00  0.00    +0.016 A 
ATOM     23  C   UNL     1       1.257  -0.462  22.222  0.00  0.00    +0.046 A 
ATOM     24  C   UNL     1       2.307   1.372  23.396  0.00  0.00    +0.046 A 
ATOM     25  C   UNL     1       2.410   0.205  22.636  0.00  0.00    +0.121 A 
BRANCH  25   4
ATOM      4  O   UNL     1       3.636  -0.281  22.301  0.00  0.00    -0.483 OA
BRANCH   4  26
ATOM     26  C   UNL     1       4.772   0.460  22.743  0.00  0.00    +0.324 C 
BRANCH  26  27
ATOM      5  O   UNL     1       5.653   0.656  24.986  0.00  0.00    -0.272 OA
ATOM      9  N   UNL     1       5.098  -1.430  24.188  0.00  0.00    -0.327 N 
ATOM     27  C   UNL     1       5.224  -0.062  24.087  0.00  0.00    +0.248 C 
ATOM     31  H   UNL     1       4.739  -2.000  23.428  0.00  0.00    +0.145 HD
ATOM     32  H   UNL     1       5.365  -1.917  25.037  0.00  0.00    +0.145 HD
ENDBRANCH  26  27
ENDBRANCH   4  26
ENDBRANCH  25   4
ENDBRANCH  17  18
TORSDOF 7
ENDMDL
MODEL 3
REMARK VINA RESULT:      -0.5      0.986      1.369
REMARK  Name = 26741971
REMARK  8 active torsions:
REMARK  status: ('A' for Active; 'I' for Inactive)
REMARK    1  A    between atoms: O_1  and  C_11
REMARK    2  A    between atoms: O_4  and  C_25
REMARK    3  A    between atoms: O_4  and  C_26
REMARK    4  A    between atoms: N_7  and  C_10
REMARK    5  A    between atoms: N_8  and  C_19
REMARK    6  A    between atoms: C_17  and  C_18
REMARK    7  A    between atoms: C_19  and  C_22
REMARK    8  A    between atoms: C_26  and  C_27
REMARK                            x       y       z     vdW  Elec       q    Type
REMARK                         _______ _______ _______ _____ _____    ______ ____
ROOT
ATOM      3  O   UNL     1      -1.166   0.595  25.406  0.00  0.00    -0.270 OA
ATOM      7  N   UNL     1      -1.960   0.106  23.283  0.00  0.00    -0.305 N 
ATOM     17  C   UNL     1      -0.976   0.411  24.206  0.00  0.00    +0.244 C 
ATOM     28  H   UNL     1      -1.731  -0.023  22.304  0.00  0.00    +0.149 HD
ENDROOT
BRANCH   7  10
ATOM      2  O   UNL     1      -2.217   3.203  23.301  0.00  0.00    -0.253 OA
ATOM      6  N   UNL     1      -4.189   2.290  24.117  0.00  0.00    -0.284 N 
ATOM      8  N   UNL     1      -3.208   4.189  25.125  0.00  0.00    -0.300 N 
ATOM     10  C   UNL     1      -3.357  -0.030  23.656  0.00  0.00    +0.119 C 
ATOM     11  C   UNL     1      -3.443  -0.347  25.161  0.00  0.00    +0.136 C 
ATOM     12  C   UNL     1      -4.816  -0.133  25.809  0.00  0.00    +0.035 C 
ATOM     13  C   UNL     1      -4.153   1.185  23.159  0.00  0.00    +0.134 C 
ATOM     14  C   UNL     1      -5.072   1.319  26.227  0.00  0.00    +0.022 C 
ATOM     15  C   UNL     1      -5.313   2.266  25.059  0.00  0.00    +0.109 C 
ATOM     16  C   UNL     1      -3.141   3.229  24.120  0.00  0.00    +0.302 C 
ATOM     30  H   UNL     1      -3.905   4.130  25.855  0.00  0.00    +0.150 HD
BRANCH  11   1
ATOM      1  O   UNL     1      -3.091  -1.728  25.310  0.00  0.00    -0.390 OA
ATOM     29  H   UNL     1      -3.815  -2.166  25.791  0.00  0.00    +0.210 HD
ENDBRANCH  11   1
BRANCH   8  19
ATOM     19  C   UNL     1      -2.203   5.217  25.275  0.00  0.00    +0.102 C 
ATOM     22  C   UNL     1      -0.805   4.649  25.143  0.00  0.00    +0.024 C 
ENDBRANCH   8  19
ENDBRANCH   7  10
BRANCH  17  18
ATOM     18  C   UNL     1       0.399   0.542  23.661  0.00  0.00    +0.037 A 
ATOM     20  C   UNL     1       0.907  -0.439  22.807  0.00  0.00    +0.016 A 
ATOM     21  C   UNL     1       1.185   1.643  24.003  0.00  0.00    +0.016 A 
ATOM     23  C   UNL     1       2.199  -0.318  22.297  0.00  0.00    +0.046 A 
ATOM     24  C   UNL     1       2.476   1.764  23.493  0.00  0.00    +0.046 A 
ATOM     25  C   UNL     1       2.984   0.783  22.639  0.00  0.00    +0.121 A 
BRANCH  25   4
ATOM      4  O   UNL     1       4.245   0.902  22.141  0.00  0.00    -0.483 OA
BRANCH   4  26
ATOM     26  C   UNL     1       5.154  -0.165  22.411  0.00  0.00    +0.324 C 
BRANCH  26  27
ATOM      5  O   UNL     1       4.516  -1.698  24.167  0.00  0.00    -0.272 OA
ATOM      9  N   UNL     1       5.444   0.327  24.743  0.00  0.00    -0.327 N 
ATOM     27  C   UNL     1       4.994  -0.614  23.844  0.00  0.00    +0.248 C 
ATOM     31  H   UNL     1       5.836   1.217  24.447  0.00  0.00    +0.145 HD
ATOM     32  H   UNL     1       5.397   0.159  25.742  0.00  0.00    +0.145 HD
ENDBRANCH  26  27
ENDBRANCH   4  26
ENDBRANCH  25   4
ENDBRANCH  17  18
TORSDOF 7
ENDMDL
