MODEL 1
REMARK VINA RESULT:       1.5      0.000      0.000
REMARK  Name = 26743034
REMARK  11 active torsions:
REMARK  status: ('A' for Active; 'I' for Inactive)
REMARK    1  A    between atoms: O_3  and  C_27
REMARK    2  A    between atoms: O_3  and  C_30
REMARK    3  A    between atoms: O_4  and  C_28
REMARK    4  A    between atoms: O_4  and  C_31
REMARK    5  A    between atoms: O_5  and  C_29
REMARK    6  A    between atoms: O_5  and  C_32
REMARK    7  A    between atoms: C_9  and  C_13
REMARK    8  A    between atoms: C_10  and  C_15
REMARK    9  A    between atoms: C_13  and  C_16
REMARK   10  A    between atoms: C_15  and  C_17
REMARK   11  A    between atoms: C_26  and  C_29
REMARK                            x       y       z     vdW  Elec       q    Type
REMARK                         _______ _______ _______ _____ _____    ______ ____
ROOT
ATOM     13  C   UNL     1      -2.683  -2.863  23.577  0.00  0.00    +0.100 C 
ENDROOT
BRANCH  13  16
ATOM      1  O   UNL     1      -4.975  -3.368  23.920  0.00  0.00    -0.276 OA
ATOM      7  N   UNL     1      -4.413  -1.113  23.789  0.00  0.00    -0.297 N 
ATOM     16  C   UNL     1      -4.129  -2.481  23.776  0.00  0.00    +0.216 C 
ATOM     18  C   UNL     1      -5.805  -0.666  23.813  0.00  0.00    +0.113 C 
ATOM     19  C   UNL     1      -3.400  -0.062  23.617  0.00  0.00    +0.143 C 
ATOM     20  C   UNL     1      -6.019   0.362  24.918  0.00  0.00    +0.054 C 
ATOM     21  C   UNL     1      -3.775   1.276  24.207  0.00  0.00    -0.023 A 
ATOM     22  C   UNL     1      -5.026   1.487  24.813  0.00  0.00    -0.038 A 
ATOM     24  C   UNL     1      -2.856   2.333  24.139  0.00  0.00    +0.054 A 
ATOM     25  C   UNL     1      -5.324   2.740  25.368  0.00  0.00    +0.053 A 
ATOM     27  C   UNL     1      -3.169   3.580  24.681  0.00  0.00    +0.162 A 
ATOM     28  C   UNL     1      -4.402   3.782  25.298  0.00  0.00    +0.162 A 
BRANCH  27   3
ATOM      3  O   UNL     1      -2.258   4.590  24.605  0.00  0.00    -0.491 OA
ATOM     30  C   UNL     1      -0.919   4.286  24.989  0.00  0.00    +0.277 C 
ENDBRANCH  27   3
BRANCH  28   4
ATOM      4  O   UNL     1      -4.716   4.993  25.837  0.00  0.00    -0.491 OA
ATOM     31  C   UNL     1      -6.062   5.438  25.688  0.00  0.00    +0.277 C 
ENDBRANCH  28   4
ENDBRANCH  13  16
BRANCH  13   9
ATOM      6  N   UNL     1      -0.593  -0.473  26.540  0.00  0.00    -0.316 NA
ATOM      9  C   UNL     1      -1.866  -2.457  24.802  0.00  0.00    +0.004 C 
ATOM     10  C   UNL     1      -0.496  -1.826  24.447  0.00  0.00    +0.012 C 
ATOM     11  C   UNL     1      -2.677  -1.530  25.720  0.00  0.00    +0.019 C 
ATOM     12  C   UNL     1       0.218  -1.394  25.741  0.00  0.00    +0.085 C 
ATOM     14  C   UNL     1      -1.860  -1.088  26.933  0.00  0.00    +0.081 C 
ATOM     33  H   UNL     1      -0.776   0.379  26.013  0.00  0.00    +0.122 HD
BRANCH  10  15
ATOM     15  C   UNL     1      -0.591  -0.654  23.461  0.00  0.00    +0.064 C 
BRANCH  15  17
ATOM      2  O   UNL     1       2.185   1.634  23.587  0.00  0.00    -0.357 OA
ATOM      8  N   UNL     1       0.878   1.268  23.886  0.00  0.00    -0.083 NA
ATOM     17  C   UNL     1       0.722   0.062  23.334  0.00  0.00    +0.084 A 
ATOM     23  C   UNL     1       1.885  -0.380  22.679  0.00  0.00    +0.073 A 
ATOM     26  C   UNL     1       2.774   0.645  22.868  0.00  0.00    +0.163 A 
BRANCH  26  29
ATOM     29  C   UNL     1       4.167   0.869  22.464  0.00  0.00    +0.236 C 
BRANCH  29   5
ATOM      5  O   UNL     1       5.022   0.868  23.611  0.00  0.00    -0.375 OA
ATOM     32  C   UNL     1       5.399  -0.451  23.969  0.00  0.00    +0.194 C 
ENDBRANCH  29   5
ENDBRANCH  26  29
ENDBRANCH  15  17
ENDBRANCH  10  15
ENDBRANCH  13   9
TORSDOF 8
ENDMDL
MODEL 2
REMARK VINA RESULT:       2.2      1.754      5.192
REMARK  Name = 26743034
REMARK  11 active torsions:
REMARK  status: ('A' for Active; 'I' for Inactive)
REMARK    1  A    between atoms: O_3  and  C_27
REMARK    2  A    between atoms: O_3  and  C_30
REMARK    3  A    between atoms: O_4  and  C_28
REMARK    4  A    between atoms: O_4  and  C_31
REMARK    5  A    between atoms: O_5  and  C_29
REMARK    6  A    between atoms: O_5  and  C_32
REMARK    7  A    between atoms: C_9  and  C_13
REMARK    8  A    between atoms: C_10  and  C_15
REMARK    9  A    between atoms: C_13  and  C_16
REMARK   10  A    between atoms: C_15  and  C_17
REMARK   11  A    between atoms: C_26  and  C_29
REMARK                            x       y       z     vdW  Elec       q    Type
REMARK                         _______ _______ _______ _____ _____    ______ ____
ROOT
ATOM     13  C   UNL     1      -3.325   4.301  26.130  0.00  0.00    +0.100 C 
ENDROOT
BRANCH  13  16
ATOM      1  O   UNL     1      -5.661   4.337  25.722  0.00  0.00    -0.276 OA
ATOM      7  N   UNL     1      -4.651   2.243  25.808  0.00  0.00    -0.297 N 
ATOM     16  C   UNL     1      -4.655   3.639  25.871  0.00  0.00    +0.216 C 
ATOM     18  C   UNL     1      -5.919   1.521  25.723  0.00  0.00    +0.113 C 
ATOM     19  C   UNL     1      -3.448   1.416  25.985  0.00  0.00    +0.143 C 
ATOM     20  C   UNL     1      -5.886   0.510  24.583  0.00  0.00    +0.054 C 
ATOM     21  C   UNL     1      -3.523   0.052  25.345  0.00  0.00    -0.023 A 
ATOM     22  C   UNL     1      -4.685  -0.390  24.690  0.00  0.00    -0.038 A 
ATOM     24  C   UNL     1      -2.408  -0.797  25.415  0.00  0.00    +0.054 A 
ATOM     25  C   UNL     1      -4.704  -1.657  24.089  0.00  0.00    +0.053 A 
ATOM     27  C   UNL     1      -2.442  -2.061  24.827  0.00  0.00    +0.162 A 
ATOM     28  C   UNL     1      -3.589  -2.490  24.162  0.00  0.00    +0.162 A 
BRANCH  27   3
ATOM      3  O   UNL     1      -1.345  -2.866  24.906  0.00  0.00    -0.491 OA
ATOM     30  C   UNL     1      -0.146  -2.279  25.406  0.00  0.00    +0.277 C 
ENDBRANCH  27   3
BRANCH  28   4
ATOM      4  O   UNL     1      -3.631  -3.720  23.578  0.00  0.00    -0.491 OA
ATOM     31  C   UNL     1      -4.743  -3.995  22.729  0.00  0.00    +0.277 C 
ENDBRANCH  28   4
ENDBRANCH  13  16
BRANCH  13   9
ATOM      6  N   UNL     1      -0.961   3.336  22.617  0.00  0.00    -0.316 NA
ATOM      9  C   UNL     1      -2.545   4.433  24.823  0.00  0.00    +0.004 C 
ATOM     10  C   UNL     1      -1.032   4.142  24.976  0.00  0.00    +0.012 C 
ATOM     11  C   UNL     1      -3.166   3.555  23.725  0.00  0.00    +0.019 C 
ATOM     12  C   UNL     1      -0.351   4.235  23.598  0.00  0.00    +0.085 C 
ATOM     14  C   UNL     1      -2.376   3.650  22.420  0.00  0.00    +0.081 C 
ATOM     33  H   UNL     1      -0.865   2.369  22.921  0.00  0.00    +0.122 HD
BRANCH  10  15
ATOM     15  C   UNL     1      -0.725   2.795  25.644  0.00  0.00    +0.064 C 
BRANCH  15  17
ATOM      2  O   UNL     1       0.197   0.276  23.242  0.00  0.00    -0.357 OA
ATOM      8  N   UNL     1      -0.738   0.962  24.008  0.00  0.00    -0.083 NA
ATOM     17  C   UNL     1      -0.029   1.860  24.697  0.00  0.00    +0.084 A 
ATOM     23  C   UNL     1       1.345   1.789  24.411  0.00  0.00    +0.073 A 
ATOM     26  C   UNL     1       1.433   0.778  23.491  0.00  0.00    +0.163 A 
BRANCH  26  29
ATOM     29  C   UNL     1       2.549   0.164  22.760  0.00  0.00    +0.236 C 
BRANCH  29   5
ATOM      5  O   UNL     1       3.693   1.022  22.790  0.00  0.00    -0.375 OA
ATOM     32  C   UNL     1       4.854   0.314  23.194  0.00  0.00    +0.194 C 
ENDBRANCH  29   5
ENDBRANCH  26  29
ENDBRANCH  15  17
ENDBRANCH  10  15
ENDBRANCH  13   9
TORSDOF 8
ENDMDL
MODEL 3
REMARK VINA RESULT:       2.4      2.328      6.228
REMARK  Name = 26743034
REMARK  11 active torsions:
REMARK  status: ('A' for Active; 'I' for Inactive)
REMARK    1  A    between atoms: O_3  and  C_27
REMARK    2  A    between atoms: O_3  and  C_30
REMARK    3  A    between atoms: O_4  and  C_28
REMARK    4  A    between atoms: O_4  and  C_31
REMARK    5  A    between atoms: O_5  and  C_29
REMARK    6  A    between atoms: O_5  and  C_32
REMARK    7  A    between atoms: C_9  and  C_13
REMARK    8  A    between atoms: C_10  and  C_15
REMARK    9  A    between atoms: C_13  and  C_16
REMARK   10  A    between atoms: C_15  and  C_17
REMARK   11  A    between atoms: C_26  and  C_29
REMARK                            x       y       z     vdW  Elec       q    Type
REMARK                         _______ _______ _______ _____ _____    ______ ____
ROOT
ATOM     13  C   UNL     1      -4.016  -0.167  24.181  0.00  0.00    +0.100 C 
ENDROOT
BRANCH  13  16
ATOM      1  O   UNL     1      -3.873  -1.780  25.914  0.00  0.00    -0.276 OA
ATOM      7  N   UNL     1      -1.863  -0.896  25.144  0.00  0.00    -0.297 N 
ATOM     16  C   UNL     1      -3.254  -1.023  25.162  0.00  0.00    +0.216 C 
ATOM     18  C   UNL     1      -1.064  -1.566  26.170  0.00  0.00    +0.113 C 
ATOM     19  C   UNL     1      -1.131   0.009  24.245  0.00  0.00    +0.143 C 
ATOM     20  C   UNL     1       0.065  -2.367  25.534  0.00  0.00    +0.054 C 
ATOM     21  C   UNL     1       0.299  -0.392  23.977  0.00  0.00    -0.023 A 
ATOM     22  C   UNL     1       0.878  -1.512  24.599  0.00  0.00    -0.038 A 
ATOM     24  C   UNL     1       1.070   0.379  23.095  0.00  0.00    +0.054 A 
ATOM     25  C   UNL     1       2.204  -1.861  24.305  0.00  0.00    +0.053 A 
ATOM     27  C   UNL     1       2.392   0.031  22.820  0.00  0.00    +0.162 A 
ATOM     28  C   UNL     1       2.958  -1.090  23.423  0.00  0.00    +0.162 A 
BRANCH  27   3
ATOM      3  O   UNL     1       3.119   0.794  21.955  0.00  0.00    -0.491 OA
ATOM     30  C   UNL     1       4.012   1.747  22.526  0.00  0.00    +0.277 C 
ENDBRANCH  27   3
BRANCH  28   4
ATOM      4  O   UNL     1       4.246  -1.443  23.157  0.00  0.00    -0.491 OA
ATOM     31  C   UNL     1       5.252  -0.928  24.027  0.00  0.00    +0.277 C 
ENDBRANCH  28   4
ENDBRANCH  13  16
BRANCH  13   9
ATOM      6  N   UNL     1      -6.053   3.498  25.310  0.00  0.00    -0.316 NA
ATOM      9  C   UNL     1      -4.885   0.839  24.933  0.00  0.00    +0.004 C 
ATOM     10  C   UNL     1      -4.077   1.998  25.566  0.00  0.00    +0.012 C 
ATOM     11  C   UNL     1      -6.005   1.378  24.030  0.00  0.00    +0.019 C 
ATOM     12  C   UNL     1      -5.045   2.988  26.241  0.00  0.00    +0.085 C 
ATOM     14  C   UNL     1      -6.862   2.412  24.759  0.00  0.00    +0.081 C 
ATOM     33  H   UNL     1      -5.603   4.007  24.551  0.00  0.00    +0.122 HD
BRANCH  10  15
ATOM     15  C   UNL     1      -3.158   2.727  24.575  0.00  0.00    +0.064 C 
BRANCH  15  17
ATOM      2  O   UNL     1       0.304   3.483  25.204  0.00  0.00    -0.357 OA
ATOM      8  N   UNL     1      -0.839   3.522  24.416  0.00  0.00    -0.083 NA
ATOM     17  C   UNL     1      -1.771   2.880  25.126  0.00  0.00    +0.084 A 
ATOM     23  C   UNL     1      -1.277   2.417  26.358  0.00  0.00    +0.073 A 
ATOM     26  C   UNL     1       0.031   2.823  26.358  0.00  0.00    +0.163 A 
BRANCH  26  29
ATOM     29  C   UNL     1       1.137   2.688  27.314  0.00  0.00    +0.236 C 
BRANCH  29   5
ATOM      5  O   UNL     1       0.634   2.343  28.608  0.00  0.00    -0.375 OA
ATOM     32  C   UNL     1       1.668   2.352  29.579  0.00  0.00    +0.194 C 
ENDBRANCH  29   5
ENDBRANCH  26  29
ENDBRANCH  15  17
ENDBRANCH  10  15
ENDBRANCH  13   9
TORSDOF 8
ENDMDL
MODEL 4
REMARK VINA RESULT:       4.7      2.962      5.942
REMARK  Name = 26743034
REMARK  11 active torsions:
REMARK  status: ('A' for Active; 'I' for Inactive)
REMARK    1  A    between atoms: O_3  and  C_27
REMARK    2  A    between atoms: O_3  and  C_30
REMARK    3  A    between atoms: O_4  and  C_28
REMARK    4  A    between atoms: O_4  and  C_31
REMARK    5  A    between atoms: O_5  and  C_29
REMARK    6  A    between atoms: O_5  and  C_32
REMARK    7  A    between atoms: C_9  and  C_13
REMARK    8  A    between atoms: C_10  and  C_15
REMARK    9  A    between atoms: C_13  and  C_16
REMARK   10  A    between atoms: C_15  and  C_17
REMARK   11  A    between atoms: C_26  and  C_29
REMARK                            x       y       z     vdW  Elec       q    Type
REMARK                         _______ _______ _______ _____ _____    ______ ____
ROOT
ATOM     13  C   UNL     1      -3.312   4.575  25.824  0.00  0.00    +0.100 C 
ENDROOT
BRANCH  13  16
ATOM      1  O   UNL     1      -5.666   4.527  25.534  0.00  0.00    -0.276 OA
ATOM      7  N   UNL     1      -4.590   2.468  25.663  0.00  0.00    -0.297 N 
ATOM     16  C   UNL     1      -4.633   3.864  25.663  0.00  0.00    +0.216 C 
ATOM     18  C   UNL     1      -5.839   1.707  25.675  0.00  0.00    +0.113 C 
ATOM     19  C   UNL     1      -3.355   1.684  25.817  0.00  0.00    +0.143 C 
ATOM     20  C   UNL     1      -5.831   0.646  24.582  0.00  0.00    +0.054 C 
ATOM     21  C   UNL     1      -3.421   0.289  25.243  0.00  0.00    -0.023 A 
ATOM     22  C   UNL     1      -4.601  -0.215  24.669  0.00  0.00    -0.038 A 
ATOM     24  C   UNL     1      -2.279  -0.524  25.296  0.00  0.00    +0.054 A 
ATOM     25  C   UNL     1      -4.611  -1.509  24.128  0.00  0.00    +0.053 A 
ATOM     27  C   UNL     1      -2.304  -1.815  24.768  0.00  0.00    +0.162 A 
ATOM     28  C   UNL     1      -3.469  -2.306  24.182  0.00  0.00    +0.162 A 
BRANCH  27   3
ATOM      3  O   UNL     1      -1.181  -2.584  24.828  0.00  0.00    -0.491 OA
ATOM     30  C   UNL     1      -0.031  -2.004  25.438  0.00  0.00    +0.277 C 
ENDBRANCH  27   3
BRANCH  28   4
ATOM      4  O   UNL     1      -3.503  -3.562  23.658  0.00  0.00    -0.491 OA
ATOM     31  C   UNL     1      -4.770  -4.045  23.216  0.00  0.00    +0.277 C 
ENDBRANCH  28   4
ENDBRANCH  13  16
BRANCH  13   9
ATOM      6  N   UNL     1      -0.853   2.355  23.016  0.00  0.00    -0.316 NA
ATOM      9  C   UNL     1      -2.391   4.233  24.654  0.00  0.00    +0.004 C 
ATOM     10  C   UNL     1      -0.997   3.725  25.095  0.00  0.00    +0.012 C 
ATOM     11  C   UNL     1      -3.065   3.235  23.700  0.00  0.00    +0.019 C 
ATOM     12  C   UNL     1      -0.172   3.347  23.850  0.00  0.00    +0.085 C 
ATOM     14  C   UNL     1      -2.142   2.858  22.542  0.00  0.00    +0.081 C 
ATOM     33  H   UNL     1      -0.994   1.494  23.540  0.00  0.00    +0.122 HD
BRANCH  10  15
ATOM     15  C   UNL     1      -1.050   2.555  26.087  0.00  0.00    +0.064 C 
BRANCH  15  17
ATOM      2  O   UNL     1       2.065   3.114  27.803  0.00  0.00    -0.357 OA
ATOM      8  N   UNL     1       1.205   3.292  26.726  0.00  0.00    -0.083 NA
ATOM     17  C   UNL     1       0.112   2.590  27.038  0.00  0.00    +0.084 A 
ATOM     23  C   UNL     1       0.224   1.953  28.285  0.00  0.00    +0.073 A 
ATOM     26  C   UNL     1       1.470   2.315  28.724  0.00  0.00    +0.163 A 
BRANCH  26  29
ATOM     29  C   UNL     1       2.246   2.020  29.936  0.00  0.00    +0.236 C 
BRANCH  29   5
ATOM      5  O   UNL     1       1.376   1.905  31.065  0.00  0.00    -0.375 OA
ATOM     32  C   UNL     1       0.434   2.965  31.098  0.00  0.00    +0.194 C 
ENDBRANCH  29   5
ENDBRANCH  26  29
ENDBRANCH  15  17
ENDBRANCH  10  15
ENDBRANCH  13   9
TORSDOF 8
ENDMDL
MODEL 5
REMARK VINA RESULT:       5.0      1.733      4.850
REMARK  Name = 26743034
REMARK  11 active torsions:
REMARK  status: ('A' for Active; 'I' for Inactive)
REMARK    1  A    between atoms: O_3  and  C_27
REMARK    2  A    between atoms: O_3  and  C_30
REMARK    3  A    between atoms: O_4  and  C_28
REMARK    4  A    between atoms: O_4  and  C_31
REMARK    5  A    between atoms: O_5  and  C_29
REMARK    6  A    between atoms: O_5  and  C_32
REMARK    7  A    between atoms: C_9  and  C_13
REMARK    8  A    between atoms: C_10  and  C_15
REMARK    9  A    between atoms: C_13  and  C_16
REMARK   10  A    between atoms: C_15  and  C_17
REMARK   11  A    between atoms: C_26  and  C_29
REMARK                            x       y       z     vdW  Elec       q    Type
REMARK                         _______ _______ _______ _____ _____    ______ ____
ROOT
ATOM     13  C   UNL     1      -2.481   4.346  24.902  0.00  0.00    +0.100 C 
ENDROOT
BRANCH  13  16
ATOM      1  O   UNL     1      -4.824   4.676  24.735  0.00  0.00    -0.276 OA
ATOM      7  N   UNL     1      -4.101   2.491  25.083  0.00  0.00    -0.297 N 
ATOM     16  C   UNL     1      -3.910   3.863  24.900  0.00  0.00    +0.216 C 
ATOM     18  C   UNL     1      -5.456   1.969  25.256  0.00  0.00    +0.113 C 
ATOM     19  C   UNL     1      -3.008   1.528  25.279  0.00  0.00    +0.143 C 
ATOM     20  C   UNL     1      -5.704   0.797  24.313  0.00  0.00    +0.054 C 
ATOM     21  C   UNL     1      -3.346   0.107  24.899  0.00  0.00    -0.023 A 
ATOM     22  C   UNL     1      -4.631  -0.249  24.453  0.00  0.00    -0.038 A 
ATOM     24  C   UNL     1      -2.356  -0.881  25.003  0.00  0.00    +0.054 A 
ATOM     25  C   UNL     1      -4.896  -1.577  24.090  0.00  0.00    +0.053 A 
ATOM     27  C   UNL     1      -2.634  -2.202  24.652  0.00  0.00    +0.162 A 
ATOM     28  C   UNL     1      -3.902  -2.550  24.194  0.00  0.00    +0.162 A 
BRANCH  27   3
ATOM      3  O   UNL     1      -1.654  -3.143  24.758  0.00  0.00    -0.491 OA
ATOM     30  C   UNL     1      -0.349  -2.683  25.102  0.00  0.00    +0.277 C 
ENDBRANCH  27   3
BRANCH  28   4
ATOM      4  O   UNL     1      -4.183  -3.835  23.842  0.00  0.00    -0.491 OA
ATOM     31  C   UNL     1      -5.065  -4.026  22.738  0.00  0.00    +0.277 C 
ENDBRANCH  28   4
ENDBRANCH  13  16
BRANCH  13   9
ATOM      6  N   UNL     1       0.923   2.183  26.513  0.00  0.00    -0.316 NA
ATOM      9  C   UNL     1      -1.622   3.425  25.767  0.00  0.00    +0.004 C 
ATOM     10  C   UNL     1      -1.058   2.206  24.997  0.00  0.00    +0.012 C 
ATOM     11  C   UNL     1      -0.496   4.212  26.454  0.00  0.00    +0.019 C 
ATOM     12  C   UNL     1      -0.157   1.380  25.935  0.00  0.00    +0.085 C 
ATOM     14  C   UNL     1       0.392   3.298  27.296  0.00  0.00    +0.081 C 
ATOM     33  H   UNL     1       1.526   2.540  25.775  0.00  0.00    +0.122 HD
BRANCH  10  15
ATOM     15  C   UNL     1      -0.306   2.579  23.712  0.00  0.00    +0.064 C 
BRANCH  15  17
ATOM      2  O   UNL     1       1.397  -0.431  22.713  0.00  0.00    -0.357 OA
ATOM      8  N   UNL     1       0.248   0.288  23.018  0.00  0.00    -0.083 NA
ATOM     17  C   UNL     1       0.679   1.514  23.326  0.00  0.00    +0.084 A 
ATOM     23  C   UNL     1       2.078   1.626  23.236  0.00  0.00    +0.073 A 
ATOM     26  C   UNL     1       2.480   0.376  22.846  0.00  0.00    +0.163 A 
BRANCH  26  29
ATOM     29  C   UNL     1       3.787  -0.227  22.561  0.00  0.00    +0.236 C 
BRANCH  29   5
ATOM      5  O   UNL     1       4.833   0.559  23.138  0.00  0.00    -0.375 OA
ATOM     32  C   UNL     1       5.600  -0.202  24.056  0.00  0.00    +0.194 C 
ENDBRANCH  29   5
ENDBRANCH  26  29
ENDBRANCH  15  17
ENDBRANCH  10  15
ENDBRANCH  13   9
TORSDOF 8
ENDMDL
