MODEL 1
REMARK VINA RESULT:      -1.0      0.000      0.000
REMARK  Name = 45361399
REMARK  10 active torsions:
REMARK  status: ('A' for Active; 'I' for Inactive)
REMARK    1  A    between atoms: O_2  and  C_10
REMARK    2  A    between atoms: N_5  and  C_14
REMARK    3  A    between atoms: N_6  and  C_24
REMARK    4  A    between atoms: C_7  and  C_17
REMARK    5  A    between atoms: C_9  and  C_19
REMARK    6  A    between atoms: C_13  and  C_18
REMARK    7  A    between atoms: C_18  and  C_20
REMARK    8  A    between atoms: C_18  and  C_21
REMARK    9  A    between atoms: C_22  and  C_23
REMARK   10  A    between atoms: C_24  and  C_27
REMARK                            x       y       z     vdW  Elec       q    Type
REMARK                         _______ _______ _______ _____ _____    ______ ____
ROOT
ATOM      7  C   UNL     1      -3.034  -1.366  24.849  0.00  0.00    -0.027 C 
ATOM      8  C   UNL     1      -2.678  -0.013  24.146  0.00  0.00    +0.028 C 
ATOM      9  C   UNL     1      -1.137   0.280  24.242  0.00  0.00    +0.012 C 
ATOM     10  C   UNL     1      -3.608   1.135  24.631  0.00  0.00    +0.122 C 
ATOM     11  C   UNL     1      -4.533  -1.678  24.637  0.00  0.00    +0.007 C 
ATOM     12  C   UNL     1      -2.219  -2.504  24.192  0.00  0.00    +0.009 C 
ATOM     13  C   UNL     1      -5.108   0.777  24.514  0.00  0.00    +0.029 C 
ATOM     14  C   UNL     1      -0.326  -0.906  23.648  0.00  0.00    +0.076 C 
ATOM     15  C   UNL     1      -5.448  -0.573  25.148  0.00  0.00    +0.007 C 
ATOM     16  C   UNL     1      -0.716  -2.263  24.231  0.00  0.00    +0.023 C 
ATOM     17  C   UNL     1      -2.740  -1.340  26.370  0.00  0.00    +0.011 C 
ATOM     19  C   UNL     1      -0.713   1.583  23.546  0.00  0.00    +0.010 C 
ENDROOT
BRANCH  14   5
ATOM      4  O   UNL     1       1.589  -0.274  21.603  0.00  0.00    -0.270 OA
ATOM      5  N   UNL     1       1.099  -0.722  23.825  0.00  0.00    -0.308 N 
ATOM     22  C   UNL     1       1.943  -0.418  22.770  0.00  0.00    +0.244 C 
ATOM     36  H   UNL     1       1.479  -0.939  24.740  0.00  0.00    +0.149 HD
BRANCH  22  23
ATOM     23  C   UNL     1       3.383  -0.288  23.113  0.00  0.00    +0.037 A 
ATOM     25  C   UNL     1       4.060   0.899  22.837  0.00  0.00    +0.013 A 
ATOM     26  C   UNL     1       4.056  -1.353  23.713  0.00  0.00    +0.013 A 
ATOM     28  C   UNL     1       5.412   1.022  23.161  0.00  0.00    +0.001 A 
ATOM     29  C   UNL     1       5.406  -1.229  24.036  0.00  0.00    +0.001 A 
ATOM     30  C   UNL     1       6.085  -0.043  23.761  0.00  0.00    +0.000 A 
ENDBRANCH  22  23
ENDBRANCH  14   5
BRANCH  10   2
ATOM      2  O   UNL     1      -3.401   2.292  23.819  0.00  0.00    -0.391 OA
ATOM     37  H   UNL     1      -3.372   2.008  22.890  0.00  0.00    +0.210 HD
ENDBRANCH  10   2
BRANCH  13  18
ATOM     18  C   UNL     1      -6.002   1.866  25.118  0.00  0.00    +0.077 C 
ATOM     20  C   UNL     1      -7.178   2.152  24.191  0.00  0.00    +0.017 C 
BRANCH  18  21
ATOM      3  O   UNL     1      -5.126   4.060  24.588  0.00  0.00    -0.276 OA
ATOM      6  N   UNL     1      -4.523   3.083  26.603  0.00  0.00    -0.311 N 
ATOM     21  C   UNL     1      -5.183   3.126  25.383  0.00  0.00    +0.216 C 
ATOM     38  H   UNL     1      -4.652   2.286  27.218  0.00  0.00    +0.149 HD
BRANCH   6  24
ATOM     24  C   UNL     1      -3.684   4.160  27.075  0.00  0.00    +0.139 C 
BRANCH  24  27
ATOM      1  F   UNL     1       0.678   5.087  23.637  0.00  0.00    -0.205 F 
ATOM     27  C   UNL     1      -2.520   4.408  26.158  0.00  0.00    -0.030 A 
ATOM     31  C   UNL     1      -1.455   3.507  26.125  0.00  0.00    +0.008 A 
ATOM     32  C   UNL     1      -2.505   5.538  25.340  0.00  0.00    +0.008 A 
ATOM     33  C   UNL     1      -0.375   3.737  25.274  0.00  0.00    +0.038 A 
ATOM     34  C   UNL     1      -1.424   5.767  24.489  0.00  0.00    +0.038 A 
ATOM     35  C   UNL     1      -0.359   4.867  24.456  0.00  0.00    +0.123 A 
ENDBRANCH  24  27
ENDBRANCH   6  24
ENDBRANCH  18  21
ENDBRANCH  13  18
TORSDOF 7
ENDMDL
