MODEL 1
REMARK VINA RESULT:      -2.0      0.000      0.000
REMARK  Name = 40776907
REMARK  11 active torsions:
REMARK  status: ('A' for Active; 'I' for Inactive)
REMARK    1  A    between atoms: O_2  and  C_26
REMARK    2  A    between atoms: O_2  and  C_32
REMARK    3  A    between atoms: O_3  and  C_30
REMARK    4  A    between atoms: N_6  and  C_16
REMARK    5  A    between atoms: C_10  and  C_17
REMARK    6  A    between atoms: C_11  and  C_16
REMARK    7  A    between atoms: C_19  and  C_23
REMARK    8  A    between atoms: C_20  and  C_22
REMARK    9  A    between atoms: C_21  and  C_24
REMARK   10  A    between atoms: C_22  and  C_25
REMARK   11  A    between atoms: C_25  and  C_30
REMARK                            x       y       z     vdW  Elec       q    Type
REMARK                         _______ _______ _______ _____ _____    ______ ____
ROOT
ATOM      5  N   UNL     1      -2.803  -2.341  23.692  0.00  0.00    -0.297 NA
ATOM      9  C   UNL     1      -2.846  -1.334  26.094  0.00  0.00    +0.002 C 
ATOM     10  C   UNL     1      -3.978  -0.718  25.225  0.00  0.00    +0.055 C 
ATOM     11  C   UNL     1      -1.442  -1.881  24.075  0.00  0.00    +0.074 C 
ATOM     12  C   UNL     1      -1.487  -1.097  25.404  0.00  0.00    +0.024 C 
ATOM     13  C   UNL     1      -3.083  -2.860  26.116  0.00  0.00    +0.019 C 
ATOM     14  C   UNL     1      -3.762  -1.212  23.765  0.00  0.00    +0.094 C 
ATOM     15  C   UNL     1      -3.226  -3.371  24.671  0.00  0.00    +0.085 C 
ENDROOT
BRANCH  10  17
ATOM      7  N   UNL     1      -5.460   1.198  25.559  0.00  0.00    -0.237 NA
ATOM      8  N   UNL     1      -4.667   3.471  25.436  0.00  0.00    -0.232 NA
ATOM     17  C   UNL     1      -4.202   0.786  25.298  0.00  0.00    +0.050 A 
ATOM     18  C   UNL     1      -3.139   1.642  25.097  0.00  0.00    +0.052 A 
ATOM     19  C   UNL     1      -3.434   2.989  25.179  0.00  0.00    +0.078 A 
ATOM     21  C   UNL     1      -5.619   2.535  25.613  0.00  0.00    +0.127 A 
ATOM     24  C   UNL     1      -6.996   3.030  25.898  0.00  0.00    +0.088 C 
BRANCH  19  23
ATOM     23  C   UNL     1      -2.411   3.989  24.988  0.00  0.00    +0.042 A 
ATOM     26  C   UNL     1      -1.064   3.632  24.929  0.00  0.00    +0.129 A 
ATOM     27  C   UNL     1      -2.785   5.327  24.861  0.00  0.00    +0.013 A 
ATOM     28  C   UNL     1      -0.091   4.613  24.744  0.00  0.00    +0.046 A 
ATOM     29  C   UNL     1      -1.811   6.309  24.676  0.00  0.00    +0.001 A 
ATOM     31  C   UNL     1      -0.464   5.952  24.617  0.00  0.00    +0.004 A 
BRANCH  26   2
ATOM      2  O   UNL     1      -0.670   2.332  25.050  0.00  0.00    -0.494 OA
ATOM     32  C   UNL     1       0.126   2.001  26.185  0.00  0.00    +0.277 C 
ENDBRANCH  26   2
ENDBRANCH  19  23
ENDBRANCH  10  17
BRANCH  11  16
ATOM     16  C   UNL     1      -0.764  -1.079  22.963  0.00  0.00    +0.123 C 
BRANCH  16   6
ATOM      1  O   UNL     1       1.598  -0.296  21.487  0.00  0.00    -0.276 OA
ATOM      6  N   UNL     1       0.374  -0.372  23.464  0.00  0.00    -0.314 N 
ATOM     20  C   UNL     1       1.478  -0.032  22.681  0.00  0.00    +0.214 C 
ATOM     33  H   UNL     1       0.373  -0.109  24.445  0.00  0.00    +0.149 HD
BRANCH  20  22
ATOM     22  C   UNL     1       2.534   0.713  23.477  0.00  0.00    +0.107 C 
BRANCH  22  25
ATOM     25  C   UNL     1       3.877   0.768  22.757  0.00  0.00    +0.129 C 
BRANCH  25  30
ATOM      4  O   UNL     1       6.102   0.154  23.526  0.00  0.00    -0.251 OA
ATOM     30  C   UNL     1       4.912  -0.107  23.423  0.00  0.00    +0.305 C 
BRANCH  30   3
ATOM      3  O   UNL     1       4.359  -1.249  23.908  0.00  0.00    -0.481 OA
ATOM     34  H   UNL     1       4.443  -1.311  24.884  0.00  0.00    +0.295 HD
ENDBRANCH  30   3
ENDBRANCH  25  30
ENDBRANCH  22  25
ENDBRANCH  20  22
ENDBRANCH  16   6
ENDBRANCH  11  16
TORSDOF 9
ENDMDL
MODEL 2
REMARK VINA RESULT:      -0.1      1.182      1.433
REMARK  Name = 40776907
REMARK  11 active torsions:
REMARK  status: ('A' for Active; 'I' for Inactive)
REMARK    1  A    between atoms: O_2  and  C_26
REMARK    2  A    between atoms: O_2  and  C_32
REMARK    3  A    between atoms: O_3  and  C_30
REMARK    4  A    between atoms: N_6  and  C_16
REMARK    5  A    between atoms: C_10  and  C_17
REMARK    6  A    between atoms: C_11  and  C_16
REMARK    7  A    between atoms: C_19  and  C_23
REMARK    8  A    between atoms: C_20  and  C_22
REMARK    9  A    between atoms: C_21  and  C_24
REMARK   10  A    between atoms: C_22  and  C_25
REMARK   11  A    between atoms: C_25  and  C_30
REMARK                            x       y       z     vdW  Elec       q    Type
REMARK                         _______ _______ _______ _____ _____    ______ ____
ROOT
ATOM      5  N   UNL     1      -1.812  -2.337  23.818  0.00  0.00    -0.297 NA
ATOM      9  C   UNL     1      -3.819  -2.078  25.459  0.00  0.00    +0.002 C 
ATOM     10  C   UNL     1      -3.853  -0.963  24.377  0.00  0.00    +0.055 C 
ATOM     11  C   UNL     1      -1.329  -2.383  25.224  0.00  0.00    +0.074 C 
ATOM     12  C   UNL     1      -2.468  -2.026  26.203  0.00  0.00    +0.024 C 
ATOM     13  C   UNL     1      -3.871  -3.427  24.710  0.00  0.00    +0.019 C 
ATOM     14  C   UNL     1      -2.528  -1.062  23.568  0.00  0.00    +0.094 C 
ATOM     15  C   UNL     1      -2.773  -3.451  23.632  0.00  0.00    +0.085 C 
ENDROOT
BRANCH  10  17
ATOM      7  N   UNL     1      -5.368   0.684  25.365  0.00  0.00    -0.237 NA
ATOM      8  N   UNL     1      -4.749   2.997  25.635  0.00  0.00    -0.232 NA
ATOM     17  C   UNL     1      -4.153   0.462  24.822  0.00  0.00    +0.050 A 
ATOM     18  C   UNL     1      -3.196   1.442  24.654  0.00  0.00    +0.052 A 
ATOM     19  C   UNL     1      -3.554   2.704  25.083  0.00  0.00    +0.078 A 
ATOM     21  C   UNL     1      -5.596   1.956  25.744  0.00  0.00    +0.127 A 
ATOM     24  C   UNL     1      -6.929   2.241  26.347  0.00  0.00    +0.088 C 
BRANCH  19  23
ATOM     23  C   UNL     1      -2.643   3.818  24.963  0.00  0.00    +0.042 A 
ATOM     26  C   UNL     1      -1.487   3.717  24.190  0.00  0.00    +0.129 A 
ATOM     27  C   UNL     1      -2.932   5.006  25.634  0.00  0.00    +0.013 A 
ATOM     28  C   UNL     1      -0.620   4.804  24.087  0.00  0.00    +0.046 A 
ATOM     29  C   UNL     1      -2.065   6.094  25.531  0.00  0.00    +0.001 A 
ATOM     31  C   UNL     1      -0.908   5.993  24.757  0.00  0.00    +0.004 A 
BRANCH  26   2
ATOM      2  O   UNL     1      -1.179   2.567  23.524  0.00  0.00    -0.494 OA
ATOM     32  C   UNL     1      -1.854   2.335  22.290  0.00  0.00    +0.277 C 
ENDBRANCH  26   2
ENDBRANCH  19  23
ENDBRANCH  10  17
BRANCH  11  16
ATOM     16  C   UNL     1      -0.093  -1.509  25.443  0.00  0.00    +0.123 C 
BRANCH  16   6
ATOM      1  O   UNL     1       0.747   0.961  24.194  0.00  0.00    -0.276 OA
ATOM      6  N   UNL     1       0.651  -1.363  24.230  0.00  0.00    -0.314 N 
ATOM     20  C   UNL     1       1.017  -0.128  23.694  0.00  0.00    +0.214 C 
ATOM     33  H   UNL     1       0.922  -2.208  23.737  0.00  0.00    +0.149 HD
BRANCH  20  22
ATOM     22  C   UNL     1       1.798  -0.278  22.401  0.00  0.00    +0.107 C 
BRANCH  22  25
ATOM     25  C   UNL     1       3.055   0.586  22.375  0.00  0.00    +0.129 C 
BRANCH  25  30
ATOM      4  O   UNL     1       5.290   0.458  23.328  0.00  0.00    -0.251 OA
ATOM     30  C   UNL     1       4.185  -0.037  23.160  0.00  0.00    +0.305 C 
BRANCH  30   3
ATOM      3  O   UNL     1       3.826  -1.242  23.675  0.00  0.00    -0.481 OA
ATOM     34  H   UNL     1       4.605  -1.765  23.960  0.00  0.00    +0.295 HD
ENDBRANCH  30   3
ENDBRANCH  25  30
ENDBRANCH  22  25
ENDBRANCH  20  22
ENDBRANCH  16   6
ENDBRANCH  11  16
TORSDOF 9
ENDMDL
MODEL 3
REMARK VINA RESULT:       0.1      2.605      5.854
REMARK  Name = 40776907
REMARK  11 active torsions:
REMARK  status: ('A' for Active; 'I' for Inactive)
REMARK    1  A    between atoms: O_2  and  C_26
REMARK    2  A    between atoms: O_2  and  C_32
REMARK    3  A    between atoms: O_3  and  C_30
REMARK    4  A    between atoms: N_6  and  C_16
REMARK    5  A    between atoms: C_10  and  C_17
REMARK    6  A    between atoms: C_11  and  C_16
REMARK    7  A    between atoms: C_19  and  C_23
REMARK    8  A    between atoms: C_20  and  C_22
REMARK    9  A    between atoms: C_21  and  C_24
REMARK   10  A    between atoms: C_22  and  C_25
REMARK   11  A    between atoms: C_25  and  C_30
REMARK                            x       y       z     vdW  Elec       q    Type
REMARK                         _______ _______ _______ _____ _____    ______ ____
ROOT
ATOM      5  N   UNL     1      -3.247  -2.151  25.986  0.00  0.00    -0.297 NA
ATOM      9  C   UNL     1      -2.399  -2.103  23.523  0.00  0.00    +0.002 C 
ATOM     10  C   UNL     1      -1.259  -1.698  24.498  0.00  0.00    +0.055 C 
ATOM     11  C   UNL     1      -4.191  -1.376  25.138  0.00  0.00    +0.074 C 
ATOM     12  C   UNL     1      -3.604  -1.161  23.726  0.00  0.00    +0.024 C 
ATOM     13  C   UNL     1      -2.857  -3.519  23.936  0.00  0.00    +0.019 C 
ATOM     14  C   UNL     1      -1.890  -1.555  25.914  0.00  0.00    +0.094 C 
ATOM     15  C   UNL     1      -3.176  -3.529  25.442  0.00  0.00    +0.085 C 
ENDROOT
BRANCH  10  17
ATOM      7  N   UNL     1       0.797  -0.777  23.548  0.00  0.00    -0.237 NA
ATOM      8  N   UNL     1       1.218   1.594  23.454  0.00  0.00    -0.232 NA
ATOM     17  C   UNL     1      -0.389  -0.505  24.131  0.00  0.00    +0.050 A 
ATOM     18  C   UNL     1      -0.835   0.772  24.404  0.00  0.00    +0.052 A 
ATOM     19  C   UNL     1       0.020   1.793  24.040  0.00  0.00    +0.078 A 
ATOM     21  C   UNL     1       1.539   0.303  23.240  0.00  0.00    +0.127 A 
ATOM     24  C   UNL     1       2.858   0.043  22.596  0.00  0.00    +0.088 C 
BRANCH  19  23
ATOM     23  C   UNL     1      -0.329   3.175  24.272  0.00  0.00    +0.042 A 
ATOM     26  C   UNL     1      -0.831   3.589  25.505  0.00  0.00    +0.129 A 
ATOM     27  C   UNL     1      -0.157   4.100  23.242  0.00  0.00    +0.013 A 
ATOM     28  C   UNL     1      -1.161   4.928  25.709  0.00  0.00    +0.046 A 
ATOM     29  C   UNL     1      -0.488   5.440  23.446  0.00  0.00    +0.001 A 
ATOM     31  C   UNL     1      -0.990   5.854  24.680  0.00  0.00    +0.004 A 
BRANCH  26   2
ATOM      2  O   UNL     1      -1.008   2.706  26.529  0.00  0.00    -0.494 OA
ATOM     32  C   UNL     1       0.141   2.378  27.307  0.00  0.00    +0.277 C 
ENDBRANCH  26   2
ENDBRANCH  19  23
ENDBRANCH  10  17
BRANCH  11  16
ATOM     16  C   UNL     1      -4.608  -0.056  25.789  0.00  0.00    +0.123 C 
BRANCH  16   6
ATOM      1  O   UNL     1      -6.264   1.904  24.454  0.00  0.00    -0.276 OA
ATOM      6  N   UNL     1      -4.169   1.060  25.009  0.00  0.00    -0.314 N 
ATOM     20  C   UNL     1      -5.039   1.962  24.396  0.00  0.00    +0.214 C 
ATOM     33  H   UNL     1      -3.168   1.194  24.897  0.00  0.00    +0.149 HD
BRANCH  20  22
ATOM     22  C   UNL     1      -4.293   3.042  23.633  0.00  0.00    +0.107 C 
BRANCH  22  25
ATOM     25  C   UNL     1      -4.297   4.381  24.364  0.00  0.00    +0.129 C 
BRANCH  25  30
ATOM      4  O   UNL     1      -4.284   3.915  26.752  0.00  0.00    -0.251 OA
ATOM     30  C   UNL     1      -4.889   4.267  25.749  0.00  0.00    +0.305 C 
BRANCH  30   3
ATOM      3  O   UNL     1      -6.204   4.609  25.757  0.00  0.00    -0.481 OA
ATOM     34  H   UNL     1      -6.342   5.539  25.477  0.00  0.00    +0.295 HD
ENDBRANCH  30   3
ENDBRANCH  25  30
ENDBRANCH  22  25
ENDBRANCH  20  22
ENDBRANCH  16   6
ENDBRANCH  11  16
TORSDOF 9
ENDMDL
MODEL 4
REMARK VINA RESULT:       1.1      2.244      5.895
REMARK  Name = 40776907
REMARK  11 active torsions:
REMARK  status: ('A' for Active; 'I' for Inactive)
REMARK    1  A    between atoms: O_2  and  C_26
REMARK    2  A    between atoms: O_2  and  C_32
REMARK    3  A    between atoms: O_3  and  C_30
REMARK    4  A    between atoms: N_6  and  C_16
REMARK    5  A    between atoms: C_10  and  C_17
REMARK    6  A    between atoms: C_11  and  C_16
REMARK    7  A    between atoms: C_19  and  C_23
REMARK    8  A    between atoms: C_20  and  C_22
REMARK    9  A    between atoms: C_21  and  C_24
REMARK   10  A    between atoms: C_22  and  C_25
REMARK   11  A    between atoms: C_25  and  C_30
REMARK                            x       y       z     vdW  Elec       q    Type
REMARK                         _______ _______ _______ _____ _____    ______ ____
ROOT
ATOM      5  N   UNL     1      -4.895   3.533  24.081  0.00  0.00    -0.297 NA
ATOM      9  C   UNL     1      -3.798   3.827  26.425  0.00  0.00    +0.002 C 
ATOM     10  C   UNL     1      -2.725   3.927  25.307  0.00  0.00    +0.055 C 
ATOM     11  C   UNL     1      -5.329   2.436  24.986  0.00  0.00    +0.074 C 
ATOM     12  C   UNL     1      -4.533   2.475  26.308  0.00  0.00    +0.024 C 
ATOM     13  C   UNL     1      -4.839   4.933  26.145  0.00  0.00    +0.019 C 
ATOM     14  C   UNL     1      -3.416   3.544  23.966  0.00  0.00    +0.094 C 
ATOM     15  C   UNL     1      -5.320   4.818  24.688  0.00  0.00    +0.085 C 
ENDROOT
BRANCH  10  17
ATOM      7  N   UNL     1      -0.872   3.237  26.745  0.00  0.00    -0.237 NA
ATOM      8  N   UNL     1       0.959   1.899  25.927  0.00  0.00    -0.232 NA
ATOM     17  C   UNL     1      -1.407   3.193  25.507  0.00  0.00    +0.050 A 
ATOM     18  C   UNL     1      -0.827   2.534  24.443  0.00  0.00    +0.052 A 
ATOM     19  C   UNL     1       0.368   1.897  24.715  0.00  0.00    +0.078 A 
ATOM     21  C   UNL     1       0.295   2.578  26.882  0.00  0.00    +0.127 A 
ATOM     24  C   UNL     1       0.919   2.605  28.236  0.00  0.00    +0.088 C 
BRANCH  19  23
ATOM     23  C   UNL     1       1.076   1.172  23.687  0.00  0.00    +0.042 A 
ATOM     26  C   UNL     1       0.420   0.230  22.894  0.00  0.00    +0.129 A 
ATOM     27  C   UNL     1       2.434   1.422  23.493  0.00  0.00    +0.013 A 
ATOM     28  C   UNL     1       1.122  -0.460  21.907  0.00  0.00    +0.046 A 
ATOM     29  C   UNL     1       3.137   0.731  22.505  0.00  0.00    +0.001 A 
ATOM     31  C   UNL     1       2.481  -0.210  21.712  0.00  0.00    +0.004 A 
BRANCH  26   2
ATOM      2  O   UNL     1      -0.907  -0.035  23.062  0.00  0.00    -0.494 OA
ATOM     32  C   UNL     1      -1.825   0.767  22.324  0.00  0.00    +0.277 C 
ENDBRANCH  26   2
ENDBRANCH  19  23
ENDBRANCH  10  17
BRANCH  11  16
ATOM     16  C   UNL     1      -5.253   1.064  24.314  0.00  0.00    +0.123 C 
BRANCH  16   6
ATOM      1  O   UNL     1      -4.372  -1.583  23.550  0.00  0.00    -0.276 OA
ATOM      6  N   UNL     1      -4.456   0.161  25.087  0.00  0.00    -0.314 N 
ATOM     20  C   UNL     1      -4.074  -1.105  24.641  0.00  0.00    +0.214 C 
ATOM     33  H   UNL     1      -4.160   0.463  26.010  0.00  0.00    +0.149 HD
BRANCH  20  22
ATOM     22  C   UNL     1      -3.235  -1.841  25.670  0.00  0.00    +0.107 C 
BRANCH  22  25
ATOM     25  C   UNL     1      -1.977  -2.457  25.065  0.00  0.00    +0.129 C 
BRANCH  25  30
ATOM      4  O   UNL     1       0.409  -2.256  25.495  0.00  0.00    -0.251 OA
ATOM     30  C   UNL     1      -0.721  -1.796  25.579  0.00  0.00    +0.305 C 
BRANCH  30   3
ATOM      3  O   UNL     1      -0.992  -0.599  26.164  0.00  0.00    -0.481 OA
ATOM     34  H   UNL     1      -0.182  -0.169  26.512  0.00  0.00    +0.295 HD
ENDBRANCH  30   3
ENDBRANCH  25  30
ENDBRANCH  22  25
ENDBRANCH  20  22
ENDBRANCH  16   6
ENDBRANCH  11  16
TORSDOF 9
ENDMDL
MODEL 5
REMARK VINA RESULT:       1.9      2.113      5.983
REMARK  Name = 40776907
REMARK  11 active torsions:
REMARK  status: ('A' for Active; 'I' for Inactive)
REMARK    1  A    between atoms: O_2  and  C_26
REMARK    2  A    between atoms: O_2  and  C_32
REMARK    3  A    between atoms: O_3  and  C_30
REMARK    4  A    between atoms: N_6  and  C_16
REMARK    5  A    between atoms: C_10  and  C_17
REMARK    6  A    between atoms: C_11  and  C_16
REMARK    7  A    between atoms: C_19  and  C_23
REMARK    8  A    between atoms: C_20  and  C_22
REMARK    9  A    between atoms: C_21  and  C_24
REMARK   10  A    between atoms: C_22  and  C_25
REMARK   11  A    between atoms: C_25  and  C_30
REMARK                            x       y       z     vdW  Elec       q    Type
REMARK                         _______ _______ _______ _____ _____    ______ ____
ROOT
ATOM      5  N   UNL     1      -5.074   3.507  24.139  0.00  0.00    -0.297 NA
ATOM      9  C   UNL     1      -3.700   3.842  26.327  0.00  0.00    +0.002 C 
ATOM     10  C   UNL     1      -2.762   3.853  25.088  0.00  0.00    +0.055 C 
ATOM     11  C   UNL     1      -5.441   2.466  25.134  0.00  0.00    +0.074 C 
ATOM     12  C   UNL     1      -4.495   2.520  26.353  0.00  0.00    +0.024 C 
ATOM     13  C   UNL     1      -4.722   4.981  26.121  0.00  0.00    +0.019 C 
ATOM     14  C   UNL     1      -3.619   3.449  23.854  0.00  0.00    +0.094 C 
ATOM     15  C   UNL     1      -5.376   4.831  24.735  0.00  0.00    +0.085 C 
ENDROOT
BRANCH  10  17
ATOM      7  N   UNL     1      -0.734   3.213  26.296  0.00  0.00    -0.237 NA
ATOM      8  N   UNL     1       0.890   1.696  25.364  0.00  0.00    -0.232 NA
ATOM     17  C   UNL     1      -1.459   3.071  25.167  0.00  0.00    +0.050 A 
ATOM     18  C   UNL     1      -1.080   2.272  24.107  0.00  0.00    +0.052 A 
ATOM     19  C   UNL     1       0.117   1.601  24.263  0.00  0.00    +0.078 A 
ATOM     21  C   UNL     1       0.412   2.507  26.327  0.00  0.00    +0.127 A 
ATOM     24  C   UNL     1       1.242   2.639  27.559  0.00  0.00    +0.088 C 
BRANCH  19  23
ATOM     23  C   UNL     1       0.625   0.734  23.228  0.00  0.00    +0.042 A 
ATOM     26  C   UNL     1       1.982   0.726  22.904  0.00  0.00    +0.129 A 
ATOM     27  C   UNL     1      -0.259  -0.102  22.547  0.00  0.00    +0.013 A 
ATOM     28  C   UNL     1       2.454  -0.119  21.900  0.00  0.00    +0.046 A 
ATOM     29  C   UNL     1       0.213  -0.948  21.543  0.00  0.00    +0.001 A 
ATOM     31  C   UNL     1       1.569  -0.956  21.219  0.00  0.00    +0.004 A 
BRANCH  26   2
ATOM      2  O   UNL     1       2.869   1.533  23.552  0.00  0.00    -0.494 OA
ATOM     32  C   UNL     1       4.250   1.350  23.249  0.00  0.00    +0.277 C 
ENDBRANCH  26   2
ENDBRANCH  19  23
ENDBRANCH  10  17
BRANCH  11  16
ATOM     16  C   UNL     1      -5.498   1.067  24.519  0.00  0.00    +0.123 C 
BRANCH  16   6
ATOM      1  O   UNL     1      -4.371  -1.401  23.514  0.00  0.00    -0.276 OA
ATOM      6  N   UNL     1      -4.627   0.168  25.212  0.00  0.00    -0.314 N 
ATOM     20  C   UNL     1      -4.127  -1.008  24.652  0.00  0.00    +0.214 C 
ATOM     33  H   UNL     1      -4.366   0.403  26.165  0.00  0.00    +0.149 HD
BRANCH  20  22
ATOM     22  C   UNL     1      -3.231  -1.763  25.617  0.00  0.00    +0.107 C 
BRANCH  22  25
ATOM     25  C   UNL     1      -1.969  -2.296  24.947  0.00  0.00    +0.129 C 
BRANCH  25  30
ATOM      4  O   UNL     1       0.416  -2.162  25.410  0.00  0.00    -0.251 OA
ATOM     30  C   UNL     1      -0.716  -1.726  25.568  0.00  0.00    +0.305 C 
BRANCH  30   3
ATOM      3  O   UNL     1      -0.993  -0.645  26.342  0.00  0.00    -0.481 OA
ATOM     34  H   UNL     1      -0.533   0.161  26.024  0.00  0.00    +0.295 HD
ENDBRANCH  30   3
ENDBRANCH  25  30
ENDBRANCH  22  25
ENDBRANCH  20  22
ENDBRANCH  16   6
ENDBRANCH  11  16
TORSDOF 9
ENDMDL
