MODEL 1
REMARK VINA RESULT:      13.2      0.000      0.000
REMARK  Name = 40586258
REMARK  9 active torsions:
REMARK  status: ('A' for Active; 'I' for Inactive)
REMARK    1  A    between atoms: O_2  and  C_15
REMARK    2  A    between atoms: O_3  and  C_20
REMARK    3  A    between atoms: N_8  and  C_26
REMARK    4  A    between atoms: C_10  and  C_18
REMARK    5  A    between atoms: C_12  and  C_20
REMARK    6  A    between atoms: C_12  and  C_21
REMARK    7  A    between atoms: C_13  and  C_23
REMARK    8  A    between atoms: C_23  and  C_24
REMARK    9  A    between atoms: C_27  and  C_30
REMARK                            x       y       z     vdW  Elec       q    Type
REMARK                         _______ _______ _______ _____ _____    ______ ____
ROOT
ATOM      1  S   UNL     1       0.442   2.036  25.957  0.00  0.00    -0.057 S 
ATOM      5  O   UNL     1       2.211   0.424  21.934  0.00  0.00    -0.266 OA
ATOM      7  N   UNL     1      -0.086   1.642  23.456  0.00  0.00    -0.229 NA
ATOM      9  N   UNL     1       2.108   0.999  24.219  0.00  0.00    -0.258 N 
ATOM     10  C   UNL     1      -3.713   2.731  24.183  0.00  0.00    -0.019 C 
ATOM     11  C   UNL     1      -3.264   3.722  25.346  0.00  0.00    +0.011 C 
ATOM     12  C   UNL     1      -4.411   4.430  26.165  0.00  0.00    +0.021 C 
ATOM     13  C   UNL     1      -2.453   2.485  23.231  0.00  0.00    +0.054 C 
ATOM     14  C   UNL     1      -4.836   3.395  23.345  0.00  0.00    +0.010 C 
ATOM     15  C   UNL     1      -5.472   4.996  25.177  0.00  0.00    +0.123 C 
ATOM     16  C   UNL     1      -2.157   3.088  26.238  0.00  0.00    +0.049 C 
ATOM     17  C   UNL     1      -5.976   3.961  24.179  0.00  0.00    +0.032 C 
ATOM     18  C   UNL     1      -4.229   1.373  24.716  0.00  0.00    +0.012 C 
ATOM     19  C   UNL     1      -1.215   2.189  24.038  0.00  0.00    +0.058 A 
ATOM     21  C   UNL     1      -3.810   5.638  26.939  0.00  0.00    +0.016 C 
ATOM     22  C   UNL     1      -1.096   2.484  25.381  0.00  0.00    +0.015 A 
ATOM     25  C   UNL     1       0.846   1.508  24.374  0.00  0.00    +0.165 A 
ATOM     27  C   UNL     1       2.724   0.494  23.047  0.00  0.00    +0.285 C 
ATOM     40  H   UNL     1       2.666   0.996  25.069  0.00  0.00    +0.157 HD
ENDROOT
BRANCH  27  30
ATOM      6  O   UNL     1       4.344  -1.180  23.766  0.00  0.00    -0.458 OA
ATOM     30  C   UNL     1       4.129   0.032  23.191  0.00  0.00    +0.189 A 
ATOM     33  C   UNL     1       5.323   0.619  22.839  0.00  0.00    +0.054 A 
ATOM     35  C   UNL     1       6.336  -0.292  23.222  0.00  0.00    +0.042 A 
ATOM     36  C   UNL     1       5.690  -1.371  23.780  0.00  0.00    +0.196 A 
ENDBRANCH  27  30
BRANCH  15   2
ATOM      2  O   UNL     1      -6.588   5.529  25.889  0.00  0.00    -0.391 OA
ATOM     37  H   UNL     1      -6.871   6.338  25.431  0.00  0.00    +0.210 HD
ENDBRANCH  15   2
BRANCH  12  20
ATOM     20  C   UNL     1      -5.078   3.540  27.237  0.00  0.00    +0.165 C 
BRANCH  20   3
ATOM      3  O   UNL     1      -6.165   2.875  26.633  0.00  0.00    -0.394 OA
ATOM     38  H   UNL     1      -5.934   2.729  25.701  0.00  0.00    +0.209 HD
ENDBRANCH  20   3
ENDBRANCH  12  20
BRANCH  13  23
ATOM     23  C   UNL     1      -2.676   1.432  22.138  0.00  0.00    +0.106 C 
BRANCH  23  24
ATOM      4  O   UNL     1      -3.980  -0.584  22.343  0.00  0.00    -0.275 OA
ATOM      8  N   UNL     1      -2.073  -0.280  23.682  0.00  0.00    -0.285 N 
ATOM     24  C   UNL     1      -3.010   0.071  22.715  0.00  0.00    +0.218 C 
ATOM     39  H   UNL     1      -1.327   0.382  23.882  0.00  0.00    +0.155 HD
BRANCH   8  26
ATOM     26  C   UNL     1      -2.030  -1.467  24.452  0.00  0.00    +0.033 A 
ATOM     28  C   UNL     1      -0.804  -1.982  24.871  0.00  0.00    +0.023 A 
ATOM     29  C   UNL     1      -3.215  -2.120  24.793  0.00  0.00    +0.023 A 
ATOM     31  C   UNL     1      -0.762  -3.152  25.630  0.00  0.00    +0.002 A 
ATOM     32  C   UNL     1      -3.173  -3.289  25.551  0.00  0.00    +0.002 A 
ATOM     34  C   UNL     1      -1.946  -3.806  25.971  0.00  0.00    +0.000 A 
ENDBRANCH   8  26
ENDBRANCH  23  24
ENDBRANCH  13  23
TORSDOF 7
ENDMDL
MODEL 2
REMARK VINA RESULT:      16.5      2.727      4.389
REMARK  Name = 40586258
REMARK  9 active torsions:
REMARK  status: ('A' for Active; 'I' for Inactive)
REMARK    1  A    between atoms: O_2  and  C_15
REMARK    2  A    between atoms: O_3  and  C_20
REMARK    3  A    between atoms: N_8  and  C_26
REMARK    4  A    between atoms: C_10  and  C_18
REMARK    5  A    between atoms: C_12  and  C_20
REMARK    6  A    between atoms: C_12  and  C_21
REMARK    7  A    between atoms: C_13  and  C_23
REMARK    8  A    between atoms: C_23  and  C_24
REMARK    9  A    between atoms: C_27  and  C_30
REMARK                            x       y       z     vdW  Elec       q    Type
REMARK                         _______ _______ _______ _____ _____    ______ ____
ROOT
ATOM      1  S   UNL     1      -0.716  -0.766  23.270  0.00  0.00    -0.057 S 
ATOM      5  O   UNL     1       3.251   1.534  24.208  0.00  0.00    -0.266 OA
ATOM      7  N   UNL     1       0.244   1.390  24.327  0.00  0.00    -0.229 NA
ATOM      9  N   UNL     1       1.834  -0.173  23.410  0.00  0.00    -0.258 N 
ATOM     10  C   UNL     1      -3.378   2.638  24.759  0.00  0.00    -0.019 C 
ATOM     11  C   UNL     1      -3.947   1.161  24.941  0.00  0.00    +0.011 C 
ATOM     12  C   UNL     1      -5.513   1.007  25.052  0.00  0.00    +0.021 C 
ATOM     13  C   UNL     1      -1.820   2.612  25.109  0.00  0.00    +0.054 C 
ATOM     14  C   UNL     1      -4.087   3.590  25.757  0.00  0.00    +0.010 C 
ATOM     15  C   UNL     1      -6.064   2.063  26.052  0.00  0.00    +0.123 C 
ATOM     16  C   UNL     1      -3.288   0.170  23.939  0.00  0.00    +0.049 C 
ATOM     17  C   UNL     1      -5.606   3.483  25.740  0.00  0.00    +0.032 C 
ATOM     18  C   UNL     1      -3.576   3.185  23.325  0.00  0.00    +0.012 C 
ATOM     19  C   UNL     1      -1.132   1.451  24.437  0.00  0.00    +0.058 A 
ATOM     21  C   UNL     1      -5.844  -0.397  25.633  0.00  0.00    +0.016 C 
ATOM     22  C   UNL     1      -1.809   0.358  23.935  0.00  0.00    +0.015 A 
ATOM     25  C   UNL     1       0.576   0.271  23.722  0.00  0.00    +0.165 A 
ATOM     27  C   UNL     1       3.082   0.453  23.655  0.00  0.00    +0.285 C 
ATOM     40  H   UNL     1       1.856  -1.076  22.943  0.00  0.00    +0.157 HD
ENDROOT
BRANCH  27  30
ATOM      6  O   UNL     1       4.478  -1.545  23.720  0.00  0.00    -0.458 OA
ATOM     30  C   UNL     1       4.288  -0.297  23.218  0.00  0.00    +0.189 A 
ATOM     33  C   UNL     1       5.308   0.037  22.356  0.00  0.00    +0.054 A 
ATOM     35  C   UNL     1       6.180  -1.077  22.329  0.00  0.00    +0.042 A 
ATOM     36  C   UNL     1       5.631  -2.014  23.174  0.00  0.00    +0.196 A 
ENDBRANCH  27  30
BRANCH  15   2
ATOM      2  O   UNL     1      -7.491   2.037  26.077  0.00  0.00    -0.391 OA
ATOM     37  H   UNL     1      -7.769   2.028  27.008  0.00  0.00    +0.210 HD
ENDBRANCH  15   2
BRANCH  12  20
ATOM     20  C   UNL     1      -6.262   1.084  23.703  0.00  0.00    +0.165 C 
BRANCH  20   3
ATOM      3  O   UNL     1      -7.573   1.535  23.960  0.00  0.00    -0.394 OA
ATOM     38  H   UNL     1      -7.758   2.258  23.337  0.00  0.00    +0.209 HD
ENDBRANCH  20   3
ENDBRANCH  12  20
BRANCH  13  23
ATOM     23  C   UNL     1      -1.084   3.931  24.840  0.00  0.00    +0.106 C 
BRANCH  23  24
ATOM      4  O   UNL     1       0.787   5.144  25.754  0.00  0.00    -0.275 OA
ATOM      8  N   UNL     1       0.117   3.114  26.728  0.00  0.00    -0.285 N 
ATOM     24  C   UNL     1       0.056   4.160  25.812  0.00  0.00    +0.218 C 
ATOM     39  H   UNL     1      -0.562   2.362  26.636  0.00  0.00    +0.155 HD
BRANCH   8  26
ATOM     26  C   UNL     1       1.034   2.952  27.793  0.00  0.00    +0.033 A 
ATOM     28  C   UNL     1       2.374   3.295  27.619  0.00  0.00    +0.023 A 
ATOM     29  C   UNL     1       0.597   2.449  29.019  0.00  0.00    +0.023 A 
ATOM     31  C   UNL     1       3.278   3.135  28.670  0.00  0.00    +0.002 A 
ATOM     32  C   UNL     1       1.500   2.289  30.069  0.00  0.00    +0.002 A 
ATOM     34  C   UNL     1       2.841   2.632  29.896  0.00  0.00    +0.000 A 
ENDBRANCH   8  26
ENDBRANCH  23  24
ENDBRANCH  13  23
TORSDOF 7
ENDMDL
MODEL 3
REMARK VINA RESULT:      16.6      2.839      5.232
REMARK  Name = 40586258
REMARK  9 active torsions:
REMARK  status: ('A' for Active; 'I' for Inactive)
REMARK    1  A    between atoms: O_2  and  C_15
REMARK    2  A    between atoms: O_3  and  C_20
REMARK    3  A    between atoms: N_8  and  C_26
REMARK    4  A    between atoms: C_10  and  C_18
REMARK    5  A    between atoms: C_12  and  C_20
REMARK    6  A    between atoms: C_12  and  C_21
REMARK    7  A    between atoms: C_13  and  C_23
REMARK    8  A    between atoms: C_23  and  C_24
REMARK    9  A    between atoms: C_27  and  C_30
REMARK                            x       y       z     vdW  Elec       q    Type
REMARK                         _______ _______ _______ _____ _____    ______ ____
ROOT
ATOM      1  S   UNL     1       1.481  -1.697  22.885  0.00  0.00    -0.057 S 
ATOM      5  O   UNL     1       4.705   1.489  24.051  0.00  0.00    -0.266 OA
ATOM      7  N   UNL     1       1.819   0.633  23.956  0.00  0.00    -0.229 NA
ATOM      9  N   UNL     1       3.799  -0.511  23.193  0.00  0.00    -0.258 N 
ATOM     10  C   UNL     1      -2.019   0.982  24.095  0.00  0.00    -0.019 C 
ATOM     11  C   UNL     1      -2.233  -0.586  24.271  0.00  0.00    +0.011 C 
ATOM     12  C   UNL     1      -3.721  -1.109  24.272  0.00  0.00    +0.021 C 
ATOM     13  C   UNL     1      -0.530   1.331  24.557  0.00  0.00    +0.054 C 
ATOM     14  C   UNL     1      -3.007   1.744  25.016  0.00  0.00    +0.010 C 
ATOM     15  C   UNL     1      -4.581  -0.209  25.204  0.00  0.00    +0.123 C 
ATOM     16  C   UNL     1      -1.283  -1.398  23.343  0.00  0.00    +0.049 C 
ATOM     17  C   UNL     1      -4.451   1.277  24.892  0.00  0.00    +0.032 C 
ATOM     18  C   UNL     1      -2.231   1.458  22.638  0.00  0.00    +0.012 C 
ATOM     19  C   UNL     1       0.463   0.364  23.964  0.00  0.00    +0.058 A 
ATOM     21  C   UNL     1      -3.752  -2.548  24.861  0.00  0.00    +0.016 C 
ATOM     22  C   UNL     1       0.105  -0.862  23.441  0.00  0.00    +0.015 A 
ATOM     25  C   UNL     1       2.451  -0.379  23.403  0.00  0.00    +0.165 A 
ATOM     27  C   UNL     1       4.840   0.395  23.513  0.00  0.00    +0.285 C 
ATOM     40  H   UNL     1       4.070  -1.386  22.751  0.00  0.00    +0.157 HD
ENDROOT
BRANCH  27  30
ATOM      6  O   UNL     1       7.257   0.663  23.698  0.00  0.00    -0.458 OA
ATOM     30  C   UNL     1       6.220  -0.048  23.182  0.00  0.00    +0.189 A 
ATOM     33  C   UNL     1       6.683  -1.093  22.416  0.00  0.00    +0.054 A 
ATOM     35  C   UNL     1       8.096  -1.019  22.464  0.00  0.00    +0.042 A 
ATOM     36  C   UNL     1       8.395   0.065  23.257  0.00  0.00    +0.196 A 
ENDBRANCH  27  30
BRANCH  15   2
ATOM      2  O   UNL     1      -5.958  -0.575  25.126  0.00  0.00    -0.391 OA
ATOM     37  H   UNL     1      -6.004  -1.479  24.774  0.00  0.00    +0.210 HD
ENDBRANCH  15   2
BRANCH  12  20
ATOM     20  C   UNL     1      -4.362  -1.221  22.871  0.00  0.00    +0.165 C 
BRANCH  20   3
ATOM      3  O   UNL     1      -4.777  -2.556  22.689  0.00  0.00    -0.394 OA
ATOM     38  H   UNL     1      -3.997  -3.066  22.413  0.00  0.00    +0.209 HD
ENDBRANCH  20   3
ENDBRANCH  12  20
BRANCH  13  23
ATOM     23  C   UNL     1      -0.110   2.787  24.310  0.00  0.00    +0.106 C 
BRANCH  23  24
ATOM      4  O   UNL     1       0.386   4.690  25.701  0.00  0.00    -0.275 OA
ATOM      8  N   UNL     1       0.739   2.516  26.519  0.00  0.00    -0.285 N 
ATOM     24  C   UNL     1       0.362   3.469  25.578  0.00  0.00    +0.218 C 
ATOM     39  H   UNL     1       0.667   1.536  26.258  0.00  0.00    +0.155 HD
BRANCH   8  26
ATOM     26  C   UNL     1       1.234   2.742  27.826  0.00  0.00    +0.033 A 
ATOM     28  C   UNL     1       0.428   2.478  28.933  0.00  0.00    +0.023 A 
ATOM     29  C   UNL     1       2.529   3.228  28.006  0.00  0.00    +0.023 A 
ATOM     31  C   UNL     1       0.916   2.701  30.221  0.00  0.00    +0.002 A 
ATOM     32  C   UNL     1       3.018   3.450  29.293  0.00  0.00    +0.002 A 
ATOM     34  C   UNL     1       2.212   3.187  30.401  0.00  0.00    +0.000 A 
ENDBRANCH   8  26
ENDBRANCH  23  24
ENDBRANCH  13  23
TORSDOF 7
ENDMDL
