MODEL 1
REMARK VINA RESULT:       4.6      0.000      0.000
REMARK  Name = 45361389
REMARK  10 active torsions:
REMARK  status: ('A' for Active; 'I' for Inactive)
REMARK    1  A    between atoms: O_1  and  C_10
REMARK    2  A    between atoms: O_4  and  C_33
REMARK    3  A    between atoms: O_4  and  C_34
REMARK    4  A    between atoms: N_5  and  C_14
REMARK    5  A    between atoms: C_7  and  C_17
REMARK    6  A    between atoms: C_9  and  C_19
REMARK    7  A    between atoms: C_12  and  C_18
REMARK    8  A    between atoms: C_18  and  C_20
REMARK    9  A    between atoms: C_18  and  C_21
REMARK   10  A    between atoms: C_22  and  C_25
REMARK                            x       y       z     vdW  Elec       q    Type
REMARK                         _______ _______ _______ _____ _____    ______ ____
ROOT
ATOM      7  C   UNL     1      -2.519  -1.182  25.140  0.00  0.00    -0.027 C 
ATOM      8  C   UNL     1      -2.111   0.052  24.269  0.00  0.00    +0.028 C 
ATOM      9  C   UNL     1      -0.554   0.266  24.295  0.00  0.00    +0.012 C 
ATOM     10  C   UNL     1      -2.963   1.303  24.629  0.00  0.00    +0.122 C 
ATOM     11  C   UNL     1      -4.039  -1.432  25.001  0.00  0.00    +0.007 C 
ATOM     12  C   UNL     1      -4.483   1.019  24.588  0.00  0.00    +0.029 C 
ATOM     13  C   UNL     1      -1.786  -2.436  24.612  0.00  0.00    +0.009 C 
ATOM     14  C   UNL     1       0.175  -1.028  23.835  0.00  0.00    +0.076 C 
ATOM     15  C   UNL     1      -4.878  -0.222  25.390  0.00  0.00    +0.007 C 
ATOM     16  C   UNL     1      -0.271  -2.279  24.590  0.00  0.00    +0.023 C 
ATOM     17  C   UNL     1      -2.182  -0.988  26.641  0.00  0.00    +0.011 C 
ATOM     19  C   UNL     1      -0.080   1.448  23.435  0.00  0.00    +0.010 C 
ENDROOT
BRANCH  14   5
ATOM      3  O   UNL     1       1.996  -0.110  21.815  0.00  0.00    -0.270 OA
ATOM      5  N   UNL     1       1.612  -0.906  23.958  0.00  0.00    -0.308 N 
ATOM     22  C   UNL     1       2.408  -0.451  22.920  0.00  0.00    +0.244 C 
ATOM     35  H   UNL     1       2.032  -1.278  24.803  0.00  0.00    +0.149 HD
BRANCH  22  25
ATOM     25  C   UNL     1       3.867  -0.409  23.197  0.00  0.00    +0.037 A 
ATOM     29  C   UNL     1       4.520  -1.547  23.668  0.00  0.00    +0.016 A 
ATOM     30  C   UNL     1       4.583   0.770  22.987  0.00  0.00    +0.016 A 
ATOM     31  C   UNL     1       5.890  -1.508  23.931  0.00  0.00    +0.046 A 
ATOM     32  C   UNL     1       5.953   0.809  23.249  0.00  0.00    +0.046 A 
ATOM     33  C   UNL     1       6.606  -0.330  23.721  0.00  0.00    +0.120 A 
BRANCH  33   4
ATOM      4  O   UNL     1       7.942  -0.290  23.976  0.00  0.00    -0.495 OA
ATOM     34  C   UNL     1       8.819  -0.319  22.849  0.00  0.00    +0.277 C 
ENDBRANCH  33   4
ENDBRANCH  22  25
ENDBRANCH  14   5
BRANCH  10   1
ATOM      1  O   UNL     1      -2.717   2.338  23.676  0.00  0.00    -0.391 OA
ATOM     36  H   UNL     1      -3.073   3.169  24.035  0.00  0.00    +0.210 HD
ENDBRANCH  10   1
BRANCH  12  18
ATOM     18  C   UNL     1      -5.300   2.223  25.072  0.00  0.00    +0.078 C 
ATOM     20  C   UNL     1      -6.752   2.108  24.642  0.00  0.00    +0.017 C 
BRANCH  18  21
ATOM      2  O   UNL     1      -5.134   3.943  23.452  0.00  0.00    -0.275 OA
ATOM      6  N   UNL     1      -3.638   4.043  25.227  0.00  0.00    -0.301 N 
ATOM     21  C   UNL     1      -4.690   3.479  24.505  0.00  0.00    +0.219 C 
ATOM     23  C   UNL     1      -3.117   3.539  26.504  0.00  0.00    +0.108 C 
ATOM     24  C   UNL     1      -2.991   5.263  24.739  0.00  0.00    +0.108 C 
ATOM     26  C   UNL     1      -1.608   3.316  26.423  0.00  0.00    +0.019 C 
ATOM     27  C   UNL     1      -1.480   5.072  24.624  0.00  0.00    +0.019 C 
ATOM     28  C   UNL     1      -0.886   4.571  25.939  0.00  0.00    +0.003 C 
ENDBRANCH  18  21
ENDBRANCH  12  18
TORSDOF 6
ENDMDL
