MODEL 1
REMARK VINA RESULT:       3.5      0.000      0.000
REMARK  Name = 7134300
REMARK  7 active torsions:
REMARK  status: ('A' for Active; 'I' for Inactive)
REMARK    1  A    between atoms: N_7  and  C_12
REMARK    2  A    between atoms: N_8  and  C_20
REMARK    3  A    between atoms: C_13  and  C_17
REMARK    4  A    between atoms: C_18  and  C_21
REMARK    5  A    between atoms: C_19  and  C_22
REMARK    6  A    between atoms: C_20  and  C_23
REMARK    7  A    between atoms: C_20  and  C_25
REMARK                            x       y       z     vdW  Elec       q    Type
REMARK                         _______ _______ _______ _____ _____    ______ ____
ROOT
ATOM      2  O   UNL     1      -3.502  -0.222  26.445  0.00  0.00    -0.267 OA
ATOM      6  N   UNL     1      -1.945   0.034  24.742  0.00  0.00    -0.283 N 
ATOM     12  C   UNL     1       0.727   0.904  23.924  0.00  0.00    +0.077 C 
ATOM     13  C   UNL     1      -1.340   1.202  25.394  0.00  0.00    +0.164 C 
ATOM     14  C   UNL     1       0.186   1.231  25.317  0.00  0.00    +0.054 C 
ATOM     15  C   UNL     1       0.121  -0.407  23.426  0.00  0.00    +0.041 C 
ATOM     16  C   UNL     1      -1.403  -0.348  23.427  0.00  0.00    +0.111 C 
ATOM     18  C   UNL     1      -3.075  -0.568  25.341  0.00  0.00    +0.283 C 
ENDROOT
BRANCH  18  21
ATOM      3  O   UNL     1      -3.385  -2.916  24.876  0.00  0.00    -0.458 OA
ATOM     21  C   UNL     1      -3.744  -1.634  24.604  0.00  0.00    +0.189 A 
ATOM     24  C   UNL     1      -4.720  -1.601  23.635  0.00  0.00    +0.054 A 
ATOM     26  C   UNL     1      -4.978  -2.949  23.290  0.00  0.00    +0.042 A 
ATOM     27  C   UNL     1      -4.140  -3.710  24.071  0.00  0.00    +0.196 A 
ENDBRANCH  18  21
BRANCH  13  17
ATOM      1  O   UNL     1      -1.388   3.056  23.888  0.00  0.00    -0.274 OA
ATOM      8  N   UNL     1      -3.209   2.699  25.293  0.00  0.00    -0.303 N 
ATOM     17  C   UNL     1      -1.963   2.412  24.761  0.00  0.00    +0.234 C 
ATOM     32  H   UNL     1      -3.609   2.077  25.988  0.00  0.00    +0.149 HD
BRANCH   8  20
ATOM     20  C   UNL     1      -4.008   3.828  24.871  0.00  0.00    +0.156 C 
ATOM     23  C   UNL     1      -3.417   5.135  25.375  0.00  0.00    +0.038 C 
BRANCH  20  25
ATOM      5  O   UNL     1      -6.154   4.552  25.747  0.00  0.00    -0.274 OA
ATOM     10  N   UNL     1      -5.814   2.309  25.390  0.00  0.00    -0.328 N 
ATOM     25  C   UNL     1      -5.422   3.630  25.394  0.00  0.00    +0.231 C 
ATOM     33  H   UNL     1      -6.740   2.040  25.703  0.00  0.00    +0.145 HD
ATOM     34  H   UNL     1      -5.206   1.560  25.075  0.00  0.00    +0.145 HD
ENDBRANCH  20  25
ENDBRANCH   8  20
ENDBRANCH  13  17
BRANCH  12   7
ATOM      4  O   UNL     1       2.409  -0.177  21.863  0.00  0.00    -0.268 OA
ATOM      7  N   UNL     1       2.168   0.828  23.938  0.00  0.00    -0.307 N 
ATOM     19  C   UNL     1       2.897   0.287  22.890  0.00  0.00    +0.264 C 
ATOM     31  H   UNL     1       2.666   1.224  24.732  0.00  0.00    +0.149 HD
BRANCH  19  22
ATOM      9  N   UNL     1       4.848   0.757  24.227  0.00  0.00    -0.247 NA
ATOM     11  N   UNL     1       6.543  -0.280  22.248  0.00  0.00    -0.259 NA
ATOM     22  C   UNL     1       4.372   0.259  23.069  0.00  0.00    +0.143 A 
ATOM     28  C   UNL     1       5.204  -0.251  22.097  0.00  0.00    +0.143 A 
ATOM     29  C   UNL     1       6.187   0.727  24.378  0.00  0.00    +0.131 A 
ATOM     30  C   UNL     1       7.019   0.217  23.406  0.00  0.00    +0.130 A 
ENDBRANCH  19  22
ENDBRANCH  12   7
TORSDOF 6
ENDMDL
MODEL 2
REMARK VINA RESULT:       3.8      1.629      4.798
REMARK  Name = 7134300
REMARK  7 active torsions:
REMARK  status: ('A' for Active; 'I' for Inactive)
REMARK    1  A    between atoms: N_7  and  C_12
REMARK    2  A    between atoms: N_8  and  C_20
REMARK    3  A    between atoms: C_13  and  C_17
REMARK    4  A    between atoms: C_18  and  C_21
REMARK    5  A    between atoms: C_19  and  C_22
REMARK    6  A    between atoms: C_20  and  C_23
REMARK    7  A    between atoms: C_20  and  C_25
REMARK                            x       y       z     vdW  Elec       q    Type
REMARK                         _______ _______ _______ _____ _____    ______ ____
ROOT
ATOM      2  O   UNL     1      -4.322   3.132  22.703  0.00  0.00    -0.267 OA
ATOM      6  N   UNL     1      -2.756   2.180  24.128  0.00  0.00    -0.283 N 
ATOM     12  C   UNL     1      -0.232   0.732  24.440  0.00  0.00    +0.077 C 
ATOM     13  C   UNL     1      -2.382   1.168  23.133  0.00  0.00    +0.164 C 
ATOM     14  C   UNL     1      -0.880   0.895  23.063  0.00  0.00    +0.054 C 
ATOM     15  C   UNL     1      -0.590   1.923  25.326  0.00  0.00    +0.041 C 
ATOM     16  C   UNL     1      -2.101   2.091  25.444  0.00  0.00    +0.111 C 
ATOM     18  C   UNL     1      -3.796   3.085  23.818  0.00  0.00    +0.283 C 
ENDROOT
BRANCH  18  21
ATOM      3  O   UNL     1      -5.583   4.089  25.092  0.00  0.00    -0.458 OA
ATOM     21  C   UNL     1      -4.246   3.986  24.873  0.00  0.00    +0.189 A 
ATOM     24  C   UNL     1      -3.550   4.796  25.740  0.00  0.00    +0.054 A 
ATOM     26  C   UNL     1      -4.522   5.439  26.544  0.00  0.00    +0.042 A 
ATOM     27  C   UNL     1      -5.742   4.976  26.111  0.00  0.00    +0.196 A 
ENDBRANCH  18  21
BRANCH  13  17
ATOM      1  O   UNL     1      -3.909  -0.604  22.646  0.00  0.00    -0.274 OA
ATOM      8  N   UNL     1      -2.969  -0.480  24.772  0.00  0.00    -0.303 N 
ATOM     17  C   UNL     1      -3.168  -0.067  23.466  0.00  0.00    +0.234 C 
ATOM     32  H   UNL     1      -2.303   0.017  25.355  0.00  0.00    +0.149 HD
BRANCH   8  20
ATOM     20  C   UNL     1      -3.628  -1.631  25.347  0.00  0.00    +0.156 C 
ATOM     23  C   UNL     1      -3.314  -1.757  26.829  0.00  0.00    +0.038 C 
BRANCH  20  25
ATOM      5  O   UNL     1      -3.946  -3.678  24.079  0.00  0.00    -0.274 OA
ATOM     10  N   UNL     1      -1.803  -2.960  24.486  0.00  0.00    -0.328 N 
ATOM     25  C   UNL     1      -3.175  -2.867  24.586  0.00  0.00    +0.231 C 
ATOM     33  H   UNL     1      -1.368  -3.732  23.992  0.00  0.00    +0.145 HD
ATOM     34  H   UNL     1      -1.178  -2.270  24.892  0.00  0.00    +0.145 HD
ENDBRANCH  20  25
ENDBRANCH   8  20
ENDBRANCH  13  17
BRANCH  12   7
ATOM      4  O   UNL     1       1.196  -0.515  22.283  0.00  0.00    -0.268 OA
ATOM      7  N   UNL     1       1.200   0.596  24.318  0.00  0.00    -0.307 N 
ATOM     19  C   UNL     1       1.801  -0.025  23.234  0.00  0.00    +0.264 C 
ATOM     31  H   UNL     1       1.788   1.008  25.038  0.00  0.00    +0.149 HD
BRANCH  19  22
ATOM      9  N   UNL     1       3.814  -1.257  23.729  0.00  0.00    -0.247 NA
ATOM     11  N   UNL     1       5.417   0.882  22.883  0.00  0.00    -0.259 NA
ATOM     22  C   UNL     1       3.284  -0.106  23.270  0.00  0.00    +0.143 A 
ATOM     28  C   UNL     1       4.072   0.945  22.854  0.00  0.00    +0.143 A 
ATOM     29  C   UNL     1       5.160  -1.319  23.758  0.00  0.00    +0.131 A 
ATOM     30  C   UNL     1       5.948  -0.268  23.342  0.00  0.00    +0.130 A 
ENDBRANCH  19  22
ENDBRANCH  12   7
TORSDOF 6
ENDMDL
