MODEL 1
REMARK VINA RESULT:       1.9      0.000      0.000
REMARK  Name = 45361634
REMARK  12 active torsions:
REMARK  status: ('A' for Active; 'I' for Inactive)
REMARK    1  A    between atoms: O_1  and  C_12
REMARK    2  A    between atoms: O_4  and  C_35
REMARK    3  A    between atoms: O_4  and  C_36
REMARK    4  A    between atoms: N_5  and  C_16
REMARK    5  A    between atoms: N_6  and  C_26
REMARK    6  A    between atoms: C_9  and  C_19
REMARK    7  A    between atoms: C_11  and  C_21
REMARK    8  A    between atoms: C_15  and  C_20
REMARK    9  A    between atoms: C_20  and  C_22
REMARK   10  A    between atoms: C_20  and  C_23
REMARK   11  A    between atoms: C_24  and  C_25
REMARK   12  A    between atoms: C_26  and  C_29
REMARK                            x       y       z     vdW  Elec       q    Type
REMARK                         _______ _______ _______ _____ _____    ______ ____
ROOT
ATOM      9  C   UNL     1      -3.158  -1.453  24.784  0.00  0.00    -0.027 C 
ATOM     10  C   UNL     1      -2.857  -0.121  24.021  0.00  0.00    +0.028 C 
ATOM     11  C   UNL     1      -1.333   0.250  24.125  0.00  0.00    +0.012 C 
ATOM     12  C   UNL     1      -3.849   1.004  24.437  0.00  0.00    +0.122 C 
ATOM     13  C   UNL     1      -4.639  -1.848  24.567  0.00  0.00    +0.007 C 
ATOM     14  C   UNL     1      -2.279  -2.582  24.196  0.00  0.00    +0.009 C 
ATOM     15  C   UNL     1      -5.327   0.567  24.316  0.00  0.00    +0.029 C 
ATOM     16  C   UNL     1      -0.457  -0.921  23.599  0.00  0.00    +0.076 C 
ATOM     17  C   UNL     1      -5.613  -0.765  25.010  0.00  0.00    +0.007 C 
ATOM     18  C   UNL     1      -0.791  -2.267  24.245  0.00  0.00    +0.023 C 
ATOM     19  C   UNL     1      -2.891  -1.339  26.306  0.00  0.00    +0.011 C 
ATOM     21  C   UNL     1      -0.961   1.538  23.370  0.00  0.00    +0.010 C 
ENDROOT
BRANCH  16   5
ATOM      3  O   UNL     1       1.479  -0.400  21.545  0.00  0.00    -0.270 OA
ATOM      5  N   UNL     1       0.955  -0.661  23.787  0.00  0.00    -0.308 N 
ATOM     24  C   UNL     1       1.811  -0.419  22.727  0.00  0.00    +0.247 C 
ATOM     37  H   UNL     1       1.322  -0.761  24.728  0.00  0.00    +0.149 HD
BRANCH  24  25
ATOM      7  N   UNL     1       5.165   1.240  23.158  0.00  0.00    -0.243 NA
ATOM      8  N   UNL     1       5.301  -1.008  24.016  0.00  0.00    -0.243 NA
ATOM     25  C   UNL     1       3.235  -0.196  23.085  0.00  0.00    +0.073 A 
ATOM     27  C   UNL     1       3.874   1.003  22.846  0.00  0.00    +0.127 A 
ATOM     28  C   UNL     1       4.006  -1.175  23.678  0.00  0.00    +0.127 A 
ATOM     32  C   UNL     1       5.810   0.206  23.732  0.00  0.00    +0.221 A 
ENDBRANCH  24  25
ENDBRANCH  16   5
BRANCH  12   1
ATOM      1  O   UNL     1      -3.684   2.129  23.571  0.00  0.00    -0.391 OA
ATOM     38  H   UNL     1      -3.385   1.803  22.705  0.00  0.00    +0.210 HD
ENDBRANCH  12   1
BRANCH  15  20
ATOM     20  C   UNL     1      -6.283   1.639  24.853  0.00  0.00    +0.077 C 
ATOM     22  C   UNL     1      -7.074   2.259  23.706  0.00  0.00    +0.017 C 
BRANCH  20  23
ATOM      2  O   UNL     1      -5.525   2.777  26.851  0.00  0.00    -0.276 OA
ATOM      6  N   UNL     1      -4.778   3.537  24.792  0.00  0.00    -0.311 N 
ATOM     23  C   UNL     1      -5.500   2.696  25.624  0.00  0.00    +0.216 C 
ATOM     39  H   UNL     1      -4.768   3.372  23.790  0.00  0.00    +0.149 HD
BRANCH   6  26
ATOM     26  C   UNL     1      -3.960   4.618  25.290  0.00  0.00    +0.139 C 
BRANCH  26  29
ATOM     29  C   UNL     1      -2.573   4.159  25.634  0.00  0.00    -0.030 A 
ATOM     30  C   UNL     1      -1.469   4.761  25.030  0.00  0.00    +0.009 A 
ATOM     31  C   UNL     1      -2.388   3.130  26.557  0.00  0.00    +0.009 A 
ATOM     33  C   UNL     1      -0.180   4.334  25.349  0.00  0.00    +0.046 A 
ATOM     34  C   UNL     1      -1.098   2.703  26.876  0.00  0.00    +0.046 A 
ATOM     35  C   UNL     1       0.005   3.305  26.272  0.00  0.00    +0.120 A 
BRANCH  35   4
ATOM      4  O   UNL     1       1.262   2.888  26.584  0.00  0.00    -0.495 OA
ATOM     36  C   UNL     1       1.570   2.737  27.971  0.00  0.00    +0.277 C 
ENDBRANCH  35   4
ENDBRANCH  26  29
ENDBRANCH   6  26
ENDBRANCH  20  23
ENDBRANCH  15  20
TORSDOF 8
ENDMDL
MODEL 2
REMARK VINA RESULT:       5.9      1.781      3.927
REMARK  Name = 45361634
REMARK  12 active torsions:
REMARK  status: ('A' for Active; 'I' for Inactive)
REMARK    1  A    between atoms: O_1  and  C_12
REMARK    2  A    between atoms: O_4  and  C_35
REMARK    3  A    between atoms: O_4  and  C_36
REMARK    4  A    between atoms: N_5  and  C_16
REMARK    5  A    between atoms: N_6  and  C_26
REMARK    6  A    between atoms: C_9  and  C_19
REMARK    7  A    between atoms: C_11  and  C_21
REMARK    8  A    between atoms: C_15  and  C_20
REMARK    9  A    between atoms: C_20  and  C_22
REMARK   10  A    between atoms: C_20  and  C_23
REMARK   11  A    between atoms: C_24  and  C_25
REMARK   12  A    between atoms: C_26  and  C_29
REMARK                            x       y       z     vdW  Elec       q    Type
REMARK                         _______ _______ _______ _____ _____    ______ ____
ROOT
ATOM      9  C   UNL     1      -2.415   2.019  22.671  0.00  0.00    -0.027 C 
ATOM     10  C   UNL     1      -1.733   2.656  23.927  0.00  0.00    +0.028 C 
ATOM     11  C   UNL     1      -0.474   1.823  24.361  0.00  0.00    +0.012 C 
ATOM     12  C   UNL     1      -2.772   2.934  25.052  0.00  0.00    +0.122 C 
ATOM     13  C   UNL     1      -3.580   2.923  22.201  0.00  0.00    +0.007 C 
ATOM     14  C   UNL     1      -1.385   1.945  21.520  0.00  0.00    +0.009 C 
ATOM     15  C   UNL     1      -3.985   3.751  24.551  0.00  0.00    +0.029 C 
ATOM     16  C   UNL     1       0.521   1.693  23.174  0.00  0.00    +0.076 C 
ATOM     17  C   UNL     1      -4.618   3.165  23.289  0.00  0.00    +0.007 C 
ATOM     18  C   UNL     1      -0.128   1.171  21.892  0.00  0.00    +0.023 C 
ATOM     19  C   UNL     1      -2.969   0.599  22.951  0.00  0.00    +0.011 C 
ATOM     21  C   UNL     1       0.264   2.412  25.576  0.00  0.00    +0.010 C 
ENDROOT
BRANCH  16   5
ATOM      3  O   UNL     1       3.255   2.053  22.375  0.00  0.00    -0.270 OA
ATOM      5  N   UNL     1       1.639   0.834  23.504  0.00  0.00    -0.308 N 
ATOM     24  C   UNL     1       2.927   1.094  23.069  0.00  0.00    +0.247 C 
ATOM     37  H   UNL     1       1.429  -0.033  23.988  0.00  0.00    +0.149 HD
BRANCH  24  25
ATOM      7  N   UNL     1       6.224  -0.409  24.098  0.00  0.00    -0.243 NA
ATOM      8  N   UNL     1       4.582  -2.168  23.966  0.00  0.00    -0.243 NA
ATOM     25  C   UNL     1       3.958   0.102  23.469  0.00  0.00    +0.073 A 
ATOM     27  C   UNL     1       5.263   0.464  23.732  0.00  0.00    +0.127 A 
ATOM     28  C   UNL     1       3.672  -1.241  23.604  0.00  0.00    +0.127 A 
ATOM     32  C   UNL     1       5.820  -1.690  24.195  0.00  0.00    +0.221 A 
ENDBRANCH  24  25
ENDBRANCH  16   5
BRANCH  12   1
ATOM      1  O   UNL     1      -2.159   3.706  26.086  0.00  0.00    -0.391 OA
ATOM     38  H   UNL     1      -2.417   4.636  25.963  0.00  0.00    +0.210 HD
ENDBRANCH  12   1
BRANCH  15  20
ATOM     20  C   UNL     1      -5.057   3.902  25.638  0.00  0.00    +0.077 C 
ATOM     22  C   UNL     1      -4.511   4.720  26.804  0.00  0.00    +0.017 C 
BRANCH  20  23
ATOM      2  O   UNL     1      -6.314   2.373  27.033  0.00  0.00    -0.276 OA
ATOM      6  N   UNL     1      -4.983   1.498  25.347  0.00  0.00    -0.311 N 
ATOM     23  C   UNL     1      -5.532   2.528  26.096  0.00  0.00    +0.216 C 
ATOM     39  H   UNL     1      -4.385   1.711  24.555  0.00  0.00    +0.149 HD
BRANCH   6  26
ATOM     26  C   UNL     1      -5.281   0.106  25.593  0.00  0.00    +0.139 C 
BRANCH  26  29
ATOM     29  C   UNL     1      -4.072  -0.766  25.416  0.00  0.00    -0.030 A 
ATOM     30  C   UNL     1      -4.133  -1.882  24.582  0.00  0.00    +0.009 A 
ATOM     31  C   UNL     1      -2.888  -0.461  26.087  0.00  0.00    +0.009 A 
ATOM     33  C   UNL     1      -3.010  -2.693  24.418  0.00  0.00    +0.046 A 
ATOM     34  C   UNL     1      -1.764  -1.272  25.923  0.00  0.00    +0.046 A 
ATOM     35  C   UNL     1      -1.826  -2.388  25.088  0.00  0.00    +0.120 A 
BRANCH  35   4
ATOM      4  O   UNL     1      -0.730  -3.178  24.929  0.00  0.00    -0.495 OA
ATOM     36  C   UNL     1       0.520  -2.652  25.375  0.00  0.00    +0.277 C 
ENDBRANCH  35   4
ENDBRANCH  26  29
ENDBRANCH   6  26
ENDBRANCH  20  23
ENDBRANCH  15  20
TORSDOF 8
ENDMDL
