MODEL 1
REMARK VINA RESULT:      -3.5      0.000      0.000
REMARK  Name = 51138058
REMARK  12 active torsions:
REMARK  status: ('A' for Active; 'I' for Inactive)
REMARK    1  A    between atoms: N_3  and  C_20
REMARK    2  A    between atoms: N_4  and  C_25
REMARK    3  A    between atoms: N_6  and  C_26
REMARK    4  A    between atoms: N_6  and  C_30
REMARK    5  A    between atoms: N_6  and  C_31
REMARK    6  A    between atoms: C_7  and  C_11
REMARK    7  A    between atoms: C_9  and  C_18
REMARK    8  A    between atoms: C_11  and  C_15
REMARK    9  A    between atoms: C_15  and  C_22
REMARK   10  A    between atoms: C_15  and  C_23
REMARK   11  A    between atoms: C_20  and  C_24
REMARK   12  A    between atoms: C_25  and  C_26
REMARK                            x       y       z     vdW  Elec       q    Type
REMARK                         _______ _______ _______ _____ _____    ______ ____
ROOT
ATOM      2  N   UNL     1      16.785  -5.400  28.252  0.00  0.00    -0.299 NA
ATOM      3  N   UNL     1      14.236  -9.170  30.441  0.00  0.00    -0.341 N 
ATOM      7  C   UNL     1      17.356  -5.538  29.599  0.00  0.00    +0.085 C 
ATOM      8  C   UNL     1      16.626  -6.503  30.540  0.00  0.00    -0.021 A 
ATOM      9  C   UNL     1      16.820  -6.615  27.450  0.00  0.00    +0.145 C 
ATOM     10  C   UNL     1      15.689  -7.495  30.132  0.00  0.00    +0.008 A 
ATOM     12  C   UNL     1      15.165  -7.912  28.859  0.00  0.00    -0.020 A 
ATOM     13  C   UNL     1      15.490  -7.364  27.510  0.00  0.00    +0.065 C 
ATOM     14  C   UNL     1      15.101  -8.326  31.094  0.00  0.00    +0.050 A 
ATOM     16  C   UNL     1      14.270  -8.935  29.098  0.00  0.00    +0.091 A 
ATOM     17  C   UNL     1      16.948  -6.476  31.921  0.00  0.00    +0.006 A 
ATOM     19  C   UNL     1      15.397  -8.252  32.455  0.00  0.00    +0.026 A 
ATOM     21  C   UNL     1      16.344  -7.318  32.853  0.00  0.00    +0.002 A 
ATOM     33  H   UNL     1      15.844  -5.013  28.294  0.00  0.00    +0.123 HD
ENDROOT
BRANCH   9  18
ATOM      1  O   UNL     1      17.321  -6.939  25.140  0.00  0.00    -0.274 OA
ATOM      4  N   UNL     1      16.971  -4.776  25.926  0.00  0.00    -0.313 N 
ATOM     18  C   UNL     1      17.060  -6.152  26.046  0.00  0.00    +0.230 C 
ATOM     34  H   UNL     1      16.732  -4.218  26.740  0.00  0.00    +0.149 HD
BRANCH   4  25
ATOM     25  C   UNL     1      17.183  -4.076  24.679  0.00  0.00    +0.119 C 
BRANCH  25  26
ATOM     26  C   UNL     1      17.065  -2.570  24.866  0.00  0.00    +0.102 C 
BRANCH  26   6
ATOM      6  N   UNL     1      16.415  -1.965  23.710  0.00  0.00    -0.307 NA
ATOM     30  C   UNL     1      17.404  -1.332  22.835  0.00  0.00    +0.104 C 
ATOM     31  C   UNL     1      15.648  -2.966  22.965  0.00  0.00    +0.104 C 
ENDBRANCH  26   6
ENDBRANCH  25  26
ENDBRANCH   4  25
ENDBRANCH   9  18
BRANCH   7  11
ATOM     11  C   UNL     1      17.405  -4.101  30.150  0.00  0.00    +0.026 C 
BRANCH  11  15
ATOM     15  C   UNL     1      16.022  -3.449  30.244  0.00  0.00    -0.015 C 
ATOM     22  C   UNL     1      16.096  -2.027  29.685  0.00  0.00    +0.007 C 
ATOM     23  C   UNL     1      15.483  -3.415  31.675  0.00  0.00    +0.007 C 
ENDBRANCH  11  15
ENDBRANCH   7  11
BRANCH   3  20
ATOM     20  C   UNL     1      13.414 -10.183  31.068  0.00  0.00    +0.177 C 
BRANCH  20  24
ATOM      5  N   UNL     1      11.879  -8.358  31.560  0.00  0.00    -0.258 NA
ATOM     24  C   UNL     1      12.034  -9.694  31.432  0.00  0.00    +0.061 A 
ATOM     27  C   UNL     1      11.014 -10.615  31.612  0.00  0.00    +0.025 A 
ATOM     28  C   UNL     1       9.753 -10.131  31.945  0.00  0.00    +0.003 A 
ATOM     29  C   UNL     1      10.640  -7.926  31.885  0.00  0.00    +0.111 A 
ATOM     32  C   UNL     1       9.554  -8.762  32.086  0.00  0.00    +0.020 A 
ENDBRANCH  20  24
ENDBRANCH   3  20
TORSDOF 8
ENDMDL
