MODEL 1
REMARK VINA RESULT:      13.3      0.000      0.000
REMARK  Name = 11867036
REMARK  9 active torsions:
REMARK  status: ('A' for Active; 'I' for Inactive)
REMARK    1  A    between atoms: O_3  and  C_13
REMARK    2  A    between atoms: O_4  and  C_18
REMARK    3  A    between atoms: N_7  and  C_25
REMARK    4  A    between atoms: C_8  and  C_16
REMARK    5  A    between atoms: C_10  and  C_18
REMARK    6  A    between atoms: C_10  and  C_19
REMARK    7  A    between atoms: C_11  and  C_21
REMARK    8  A    between atoms: C_21  and  C_22
REMARK    9  A    between atoms: C_23  and  C_24
REMARK                            x       y       z     vdW  Elec       q    Type
REMARK                         _______ _______ _______ _____ _____    ______ ____
ROOT
ATOM      1  S   UNL     1       1.355  -1.549  22.997  0.00  0.00    -0.072 S 
ATOM      6  N   UNL     1       1.588   0.792  24.073  0.00  0.00    -0.243 NA
ATOM      8  C   UNL     1      -2.261   1.031  24.073  0.00  0.00    -0.020 C 
ATOM      9  C   UNL     1      -2.437  -0.541  24.246  0.00  0.00    +0.011 C 
ATOM     10  C   UNL     1      -3.909  -1.106  24.193  0.00  0.00    +0.021 C 
ATOM     11  C   UNL     1      -0.800   1.423  24.588  0.00  0.00    +0.053 C 
ATOM     12  C   UNL     1      -3.303   1.767  24.953  0.00  0.00    +0.010 C 
ATOM     13  C   UNL     1      -4.826  -0.230  25.091  0.00  0.00    +0.123 C 
ATOM     14  C   UNL     1      -1.431  -1.328  23.356  0.00  0.00    +0.049 C 
ATOM     15  C   UNL     1      -4.727   1.259  24.779  0.00  0.00    +0.032 C 
ATOM     16  C   UNL     1      -2.431   1.498  22.606  0.00  0.00    +0.012 C 
ATOM     17  C   UNL     1       0.241   0.484  24.033  0.00  0.00    +0.056 A 
ATOM     19  C   UNL     1      -3.921  -2.545  24.785  0.00  0.00    +0.016 C 
ATOM     20  C   UNL     1      -0.063  -0.753  23.502  0.00  0.00    +0.014 A 
ATOM     23  C   UNL     1       2.269  -0.203  23.547  0.00  0.00    +0.109 A 
ENDROOT
BRANCH  23  24
ATOM      2  S   UNL     1       6.205  -0.863  23.620  0.00  0.00    -0.104 S 
ATOM     24  C   UNL     1       3.744  -0.166  23.436  0.00  0.00    +0.014 A 
ATOM     26  C   UNL     1       4.494   0.896  22.860  0.00  0.00    +0.018 A 
ATOM     27  C   UNL     1       4.544  -1.187  23.889  0.00  0.00    +0.055 A 
ATOM     28  C   UNL     1       5.848   0.647  22.896  0.00  0.00    +0.046 A 
ENDBRANCH  23  24
BRANCH  13   3
ATOM      3  O   UNL     1      -6.189  -0.636  24.965  0.00  0.00    -0.391 OA
ATOM     34  H   UNL     1      -6.483  -0.973  25.827  0.00  0.00    +0.210 HD
ENDBRANCH  13   3
BRANCH  10  18
ATOM     18  C   UNL     1      -4.494  -1.239  22.771  0.00  0.00    +0.165 C 
BRANCH  18   4
ATOM      4  O   UNL     1      -4.677  -2.610  22.504  0.00  0.00    -0.394 OA
ATOM     35  H   UNL     1      -5.107  -2.695  21.636  0.00  0.00    +0.209 HD
ENDBRANCH  18   4
ENDBRANCH  10  18
BRANCH  11  21
ATOM     21  C   UNL     1      -0.413   2.890  24.354  0.00  0.00    +0.106 C 
BRANCH  21  22
ATOM      5  O   UNL     1       0.254   4.749  25.733  0.00  0.00    -0.275 OA
ATOM      7  N   UNL     1       0.568   2.551  26.499  0.00  0.00    -0.285 N 
ATOM     22  C   UNL     1       0.169   3.533  25.596  0.00  0.00    +0.218 C 
ATOM     36  H   UNL     1       0.437   1.578  26.231  0.00  0.00    +0.155 HD
BRANCH   7  25
ATOM     25  C   UNL     1       1.157   2.737  27.772  0.00  0.00    +0.033 A 
ATOM     29  C   UNL     1       2.460   3.197  27.853  0.00  0.00    +0.023 A 
ATOM     30  C   UNL     1       0.419   2.453  28.909  0.00  0.00    +0.023 A 
ATOM     31  C   UNL     1       3.042   3.381  29.108  0.00  0.00    +0.002 A 
ATOM     32  C   UNL     1       1.000   2.637  30.163  0.00  0.00    +0.002 A 
ATOM     33  C   UNL     1       2.311   3.101  30.263  0.00  0.00    +0.000 A 
ENDBRANCH   7  25
ENDBRANCH  21  22
ENDBRANCH  11  21
TORSDOF 7
ENDMDL
MODEL 2
REMARK VINA RESULT:      13.5      1.677      2.316
REMARK  Name = 11867036
REMARK  9 active torsions:
REMARK  status: ('A' for Active; 'I' for Inactive)
REMARK    1  A    between atoms: O_3  and  C_13
REMARK    2  A    between atoms: O_4  and  C_18
REMARK    3  A    between atoms: N_7  and  C_25
REMARK    4  A    between atoms: C_8  and  C_16
REMARK    5  A    between atoms: C_10  and  C_18
REMARK    6  A    between atoms: C_10  and  C_19
REMARK    7  A    between atoms: C_11  and  C_21
REMARK    8  A    between atoms: C_21  and  C_22
REMARK    9  A    between atoms: C_23  and  C_24
REMARK                            x       y       z     vdW  Elec       q    Type
REMARK                         _______ _______ _______ _____ _____    ______ ____
ROOT
ATOM      1  S   UNL     1      -0.492  -0.546  23.047  0.00  0.00    -0.072 S 
ATOM      6  N   UNL     1       0.496   1.468  24.336  0.00  0.00    -0.243 NA
ATOM      8  C   UNL     1      -3.112   2.699  24.916  0.00  0.00    -0.020 C 
ATOM      9  C   UNL     1      -3.698   1.218  24.934  0.00  0.00    +0.011 C 
ATOM     10  C   UNL     1      -5.265   1.070  25.030  0.00  0.00    +0.021 C 
ATOM     11  C   UNL     1      -1.553   2.616  25.257  0.00  0.00    +0.053 C 
ATOM     12  C   UNL     1      -3.808   3.542  26.015  0.00  0.00    +0.010 C 
ATOM     13  C   UNL     1      -5.801   2.012  26.144  0.00  0.00    +0.123 C 
ATOM     14  C   UNL     1      -3.051   0.337  23.825  0.00  0.00    +0.049 C 
ATOM     15  C   UNL     1      -5.328   3.453  25.991  0.00  0.00    +0.032 C 
ATOM     16  C   UNL     1      -3.304   3.405  23.551  0.00  0.00    +0.012 C 
ATOM     17  C   UNL     1      -0.880   1.531  24.456  0.00  0.00    +0.056 A 
ATOM     19  C   UNL     1      -5.612  -0.387  25.451  0.00  0.00    +0.016 C 
ATOM     20  C   UNL     1      -1.570   0.508  23.838  0.00  0.00    +0.014 A 
ATOM     23  C   UNL     1       0.813   0.419  23.608  0.00  0.00    +0.109 A 
ENDROOT
BRANCH  23  24
ATOM      2  S   UNL     1       4.642   0.327  22.484  0.00  0.00    -0.104 S 
ATOM     24  C   UNL     1       2.220   0.087  23.291  0.00  0.00    +0.014 A 
ATOM     26  C   UNL     1       2.834  -1.174  23.523  0.00  0.00    +0.018 A 
ATOM     27  C   UNL     1       3.085   0.997  22.731  0.00  0.00    +0.055 A 
ATOM     28  C   UNL     1       4.154  -1.182  23.128  0.00  0.00    +0.046 A 
ENDBRANCH  23  24
BRANCH  13   3
ATOM      3  O   UNL     1      -7.229   1.999  26.171  0.00  0.00    -0.391 OA
ATOM     34  H   UNL     1      -7.540   1.594  25.345  0.00  0.00    +0.210 HD
ENDBRANCH  13   3
BRANCH  10  18
ATOM     18  C   UNL     1      -6.014   1.307  23.701  0.00  0.00    +0.165 C 
BRANCH  18   4
ATOM      4  O   UNL     1      -7.362   1.582  24.008  0.00  0.00    -0.394 OA
ATOM     35  H   UNL     1      -7.381   2.188  24.768  0.00  0.00    +0.209 HD
ENDBRANCH  18   4
ENDBRANCH  10  18
BRANCH  11  21
ATOM     21  C   UNL     1      -0.803   3.949  25.138  0.00  0.00    +0.106 C 
BRANCH  21  22
ATOM      5  O   UNL     1       1.221   4.910  26.024  0.00  0.00    -0.275 OA
ATOM      7  N   UNL     1       0.275   3.019  27.049  0.00  0.00    -0.285 N 
ATOM     22  C   UNL     1       0.359   4.041  26.106  0.00  0.00    +0.218 C 
ATOM     36  H   UNL     1      -0.502   2.368  26.974  0.00  0.00    +0.155 HD
BRANCH   7  25
ATOM     25  C   UNL     1       1.163   2.758  28.118  0.00  0.00    +0.033 A 
ATOM     29  C   UNL     1       0.658   2.283  29.317  0.00  0.00    +0.023 A 
ATOM     30  C   UNL     1       2.519   2.984  27.945  0.00  0.00    +0.023 A 
ATOM     31  C   UNL     1       1.533   2.025  30.372  0.00  0.00    +0.002 A 
ATOM     32  C   UNL     1       3.394   2.725  29.000  0.00  0.00    +0.002 A 
ATOM     33  C   UNL     1       2.901   2.247  30.213  0.00  0.00    +0.000 A 
ENDBRANCH   7  25
ENDBRANCH  21  22
ENDBRANCH  11  21
TORSDOF 7
ENDMDL
MODEL 3
REMARK VINA RESULT:      13.9      1.966      2.756
REMARK  Name = 11867036
REMARK  9 active torsions:
REMARK  status: ('A' for Active; 'I' for Inactive)
REMARK    1  A    between atoms: O_3  and  C_13
REMARK    2  A    between atoms: O_4  and  C_18
REMARK    3  A    between atoms: N_7  and  C_25
REMARK    4  A    between atoms: C_8  and  C_16
REMARK    5  A    between atoms: C_10  and  C_18
REMARK    6  A    between atoms: C_10  and  C_19
REMARK    7  A    between atoms: C_11  and  C_21
REMARK    8  A    between atoms: C_21  and  C_22
REMARK    9  A    between atoms: C_23  and  C_24
REMARK                            x       y       z     vdW  Elec       q    Type
REMARK                         _______ _______ _______ _____ _____    ______ ____
ROOT
ATOM      1  S   UNL     1       0.577   0.043  22.639  0.00  0.00    -0.072 S 
ATOM      6  N   UNL     1       1.580   1.233  24.706  0.00  0.00    -0.243 NA
ATOM      8  C   UNL     1      -1.840   2.939  25.219  0.00  0.00    -0.020 C 
ATOM      9  C   UNL     1      -2.636   1.705  24.605  0.00  0.00    +0.011 C 
ATOM     10  C   UNL     1      -4.195   1.875  24.429  0.00  0.00    +0.021 C 
ATOM     11  C   UNL     1      -0.414   2.411  25.709  0.00  0.00    +0.053 C 
ATOM     12  C   UNL     1      -2.607   3.486  26.451  0.00  0.00    +0.010 C 
ATOM     13  C   UNL     1      -4.795   2.473  25.732  0.00  0.00    +0.123 C 
ATOM     14  C   UNL     1      -1.921   1.138  23.343  0.00  0.00    +0.049 C 
ATOM     15  C   UNL     1      -4.086   3.741  26.193  0.00  0.00    +0.032 C 
ATOM     16  C   UNL     1      -1.641   4.093  24.205  0.00  0.00    +0.012 C 
ATOM     17  C   UNL     1       0.234   1.546  24.657  0.00  0.00    +0.056 A 
ATOM     19  C   UNL     1      -4.838   0.474  24.224  0.00  0.00    +0.016 C 
ATOM     20  C   UNL     1      -0.465   0.970  23.616  0.00  0.00    +0.014 A 
ATOM     23  C   UNL     1       1.873   0.453  23.689  0.00  0.00    +0.109 A 
ENDROOT
BRANCH  23  24
ATOM      2  S   UNL     1       5.707  -0.125  22.740  0.00  0.00    -0.104 S 
ATOM     24  C   UNL     1       3.248  -0.047  23.460  0.00  0.00    +0.014 A 
ATOM     26  C   UNL     1       3.719  -1.338  23.823  0.00  0.00    +0.018 A 
ATOM     27  C   UNL     1       4.222   0.718  22.864  0.00  0.00    +0.055 A 
ATOM     28  C   UNL     1       5.043  -1.515  23.487  0.00  0.00    +0.046 A 
ENDBRANCH  23  24
BRANCH  13   3
ATOM      3  O   UNL     1      -6.183   2.760  25.561  0.00  0.00    -0.391 OA
ATOM     34  H   UNL     1      -6.665   1.917  25.558  0.00  0.00    +0.210 HD
ENDBRANCH  13   3
BRANCH  10  18
ATOM     18  C   UNL     1      -4.614   2.707  23.197  0.00  0.00    +0.165 C 
BRANCH  18   4
ATOM      4  O   UNL     1      -4.405   4.067  23.503  0.00  0.00    -0.394 OA
ATOM     35  H   UNL     1      -4.091   4.513  22.698  0.00  0.00    +0.209 HD
ENDBRANCH  18   4
ENDBRANCH  10  18
BRANCH  11  21
ATOM     21  C   UNL     1       0.540   3.509  26.197  0.00  0.00    +0.106 C 
BRANCH  21  22
ATOM      5  O   UNL     1       2.515   2.918  27.444  0.00  0.00    -0.275 OA
ATOM      7  N   UNL     1       0.424   2.958  28.513  0.00  0.00    -0.285 N 
ATOM     22  C   UNL     1       1.301   3.094  27.440  0.00  0.00    +0.218 C 
ATOM     36  H   UNL     1      -0.564   3.132  28.343  0.00  0.00    +0.155 HD
BRANCH   7  25
ATOM     25  C   UNL     1       0.738   2.587  29.841  0.00  0.00    +0.033 A 
ATOM     29  C   UNL     1      -0.129   2.936  30.864  0.00  0.00    +0.023 A 
ATOM     30  C   UNL     1       1.905   1.884  30.092  0.00  0.00    +0.023 A 
ATOM     31  C   UNL     1       0.180   2.569  32.174  0.00  0.00    +0.002 A 
ATOM     32  C   UNL     1       2.213   1.518  31.402  0.00  0.00    +0.002 A 
ATOM     33  C   UNL     1       1.351   1.861  32.443  0.00  0.00    +0.000 A 
ENDBRANCH   7  25
ENDBRANCH  21  22
ENDBRANCH  11  21
TORSDOF 7
ENDMDL
MODEL 4
REMARK VINA RESULT:      14.7      3.485      7.617
REMARK  Name = 11867036
REMARK  9 active torsions:
REMARK  status: ('A' for Active; 'I' for Inactive)
REMARK    1  A    between atoms: O_3  and  C_13
REMARK    2  A    between atoms: O_4  and  C_18
REMARK    3  A    between atoms: N_7  and  C_25
REMARK    4  A    between atoms: C_8  and  C_16
REMARK    5  A    between atoms: C_10  and  C_18
REMARK    6  A    between atoms: C_10  and  C_19
REMARK    7  A    between atoms: C_11  and  C_21
REMARK    8  A    between atoms: C_21  and  C_22
REMARK    9  A    between atoms: C_23  and  C_24
REMARK                            x       y       z     vdW  Elec       q    Type
REMARK                         _______ _______ _______ _____ _____    ______ ____
ROOT
ATOM      1  S   UNL     1      -0.074   3.743  23.962  0.00  0.00    -0.072 S 
ATOM      6  N   UNL     1      -1.279   1.643  24.873  0.00  0.00    -0.243 NA
ATOM      8  C   UNL     1       1.669  -0.462  23.552  0.00  0.00    -0.020 C 
ATOM      9  C   UNL     1       2.713   0.718  23.773  0.00  0.00    +0.011 C 
ATOM     10  C   UNL     1       4.187   0.473  23.268  0.00  0.00    +0.021 C 
ATOM     11  C   UNL     1       0.412  -0.193  24.500  0.00  0.00    +0.053 C 
ATOM     12  C   UNL     1       2.315  -1.809  23.969  0.00  0.00    +0.010 C 
ATOM     13  C   UNL     1       4.661  -0.932  23.733  0.00  0.00    +0.123 C 
ATOM     14  C   UNL     1       2.121   2.091  23.338  0.00  0.00    +0.049 C 
ATOM     15  C   UNL     1       3.690  -2.047  23.362  0.00  0.00    +0.032 C 
ATOM     16  C   UNL     1       1.190  -0.576  22.083  0.00  0.00    +0.012 C 
ATOM     17  C   UNL     1      -0.043   1.242  24.403  0.00  0.00    +0.056 A 
ATOM     19  C   UNL     1       5.130   1.521  23.927  0.00  0.00    +0.016 C 
ATOM     20  C   UNL     1       0.748   2.253  23.895  0.00  0.00    +0.014 A 
ATOM     23  C   UNL     1      -1.408   2.938  24.685  0.00  0.00    +0.109 A 
ENDROOT
BRANCH  23  24
ATOM      2  S   UNL     1      -4.861   4.928  24.909  0.00  0.00    -0.104 S 
ATOM     24  C   UNL     1      -2.635   3.665  25.078  0.00  0.00    +0.014 A 
ATOM     26  C   UNL     1      -3.020   3.956  26.415  0.00  0.00    +0.018 A 
ATOM     27  C   UNL     1      -3.543   4.134  24.157  0.00  0.00    +0.055 A 
ATOM     28  C   UNL     1      -4.215   4.642  26.468  0.00  0.00    +0.046 A 
ENDBRANCH  23  24
BRANCH  13   3
ATOM      3  O   UNL     1       5.943  -1.238  23.184  0.00  0.00    -0.391 OA
ATOM     34  H   UNL     1       6.473  -0.425  23.188  0.00  0.00    +0.210 HD
ENDBRANCH  13   3
BRANCH  10  18
ATOM     18  C   UNL     1       4.380   0.643  21.745  0.00  0.00    +0.165 C 
BRANCH  18   4
ATOM      4  O   UNL     1       3.165   0.305  21.116  0.00  0.00    -0.394 OA
ATOM     35  H   UNL     1       3.298   0.356  20.154  0.00  0.00    +0.209 HD
ENDBRANCH  18   4
ENDBRANCH  10  18
BRANCH  11  21
ATOM     21  C   UNL     1      -0.758  -1.166  24.302  0.00  0.00    +0.106 C 
BRANCH  21  22
ATOM      5  O   UNL     1      -2.091  -1.098  26.307  0.00  0.00    -0.275 OA
ATOM      7  N   UNL     1      -2.863  -0.049  24.353  0.00  0.00    -0.285 N 
ATOM     22  C   UNL     1      -1.969  -0.782  25.129  0.00  0.00    +0.218 C 
ATOM     36  H   UNL     1      -2.617   0.122  23.381  0.00  0.00    +0.155 HD
BRANCH   7  25
ATOM     25  C   UNL     1      -4.108   0.491  24.751  0.00  0.00    +0.033 A 
ATOM     29  C   UNL     1      -4.913   1.103  23.805  0.00  0.00    +0.023 A 
ATOM     30  C   UNL     1      -4.495   0.399  26.078  0.00  0.00    +0.023 A 
ATOM     31  C   UNL     1      -6.142   1.636  24.197  0.00  0.00    +0.002 A 
ATOM     32  C   UNL     1      -5.722   0.931  26.469  0.00  0.00    +0.002 A 
ATOM     33  C   UNL     1      -6.545   1.551  25.529  0.00  0.00    +0.000 A 
ENDBRANCH   7  25
ENDBRANCH  21  22
ENDBRANCH  11  21
TORSDOF 7
ENDMDL
MODEL 5
REMARK VINA RESULT:      15.5      3.822      6.051
REMARK  Name = 11867036
REMARK  9 active torsions:
REMARK  status: ('A' for Active; 'I' for Inactive)
REMARK    1  A    between atoms: O_3  and  C_13
REMARK    2  A    between atoms: O_4  and  C_18
REMARK    3  A    between atoms: N_7  and  C_25
REMARK    4  A    between atoms: C_8  and  C_16
REMARK    5  A    between atoms: C_10  and  C_18
REMARK    6  A    between atoms: C_10  and  C_19
REMARK    7  A    between atoms: C_11  and  C_21
REMARK    8  A    between atoms: C_21  and  C_22
REMARK    9  A    between atoms: C_23  and  C_24
REMARK                            x       y       z     vdW  Elec       q    Type
REMARK                         _______ _______ _______ _____ _____    ______ ____
ROOT
ATOM      1  S   UNL     1      -4.604  -1.191  24.359  0.00  0.00    -0.072 S 
ATOM      6  N   UNL     1      -2.075  -1.024  23.838  0.00  0.00    -0.243 NA
ATOM      8  C   UNL     1      -2.344   2.781  24.396  0.00  0.00    -0.020 C 
ATOM      9  C   UNL     1      -3.511   2.622  25.466  0.00  0.00    +0.011 C 
ATOM     10  C   UNL     1      -4.167   3.948  26.012  0.00  0.00    +0.021 C 
ATOM     11  C   UNL     1      -1.551   1.396  24.320  0.00  0.00    +0.053 C 
ATOM     12  C   UNL     1      -1.359   3.882  24.867  0.00  0.00    +0.010 C 
ATOM     13  C   UNL     1      -3.046   4.954  26.395  0.00  0.00    +0.123 C 
ATOM     14  C   UNL     1      -4.546   1.547  25.022  0.00  0.00    +0.049 C 
ATOM     15  C   UNL     1      -2.037   5.183  25.275  0.00  0.00    +0.032 C 
ATOM     16  C   UNL     1      -2.866   3.153  22.985  0.00  0.00    +0.012 C 
ATOM     17  C   UNL     1      -2.504   0.231  24.226  0.00  0.00    +0.056 A 
ATOM     19  C   UNL     1      -4.960   3.624  27.311  0.00  0.00    +0.016 C 
ATOM     20  C   UNL     1      -3.839   0.317  24.563  0.00  0.00    +0.014 A 
ATOM     23  C   UNL     1      -3.098  -1.851  23.864  0.00  0.00    +0.109 A 
ENDROOT
BRANCH  23  24
ATOM      2  S   UNL     1      -3.559  -5.716  22.978  0.00  0.00    -0.104 S 
ATOM     24  C   UNL     1      -2.958  -3.276  23.487  0.00  0.00    +0.014 A 
ATOM     26  C   UNL     1      -1.738  -3.909  23.124  0.00  0.00    +0.018 A 
ATOM     27  C   UNL     1      -4.028  -4.138  23.451  0.00  0.00    +0.055 A 
ATOM     28  C   UNL     1      -1.922  -5.241  22.821  0.00  0.00    +0.046 A 
ENDBRANCH  23  24
BRANCH  13   3
ATOM      3  O   UNL     1      -3.606   6.212  26.772  0.00  0.00    -0.391 OA
ATOM     34  H   UNL     1      -4.476   6.046  27.168  0.00  0.00    +0.210 HD
ENDBRANCH  13   3
BRANCH  10  18
ATOM     18  C   UNL     1      -5.189   4.600  25.055  0.00  0.00    +0.165 C 
BRANCH  18   4
ATOM      4  O   UNL     1      -6.378   4.820  25.778  0.00  0.00    -0.394 OA
ATOM     35  H   UNL     1      -7.091   4.316  25.348  0.00  0.00    +0.209 HD
ENDBRANCH  18   4
ENDBRANCH  10  18
BRANCH  11  21
ATOM     21  C   UNL     1      -0.478   1.334  23.225  0.00  0.00    +0.106 C 
BRANCH  21  22
ATOM      5  O   UNL     1       1.258   1.872  24.805  0.00  0.00    -0.275 OA
ATOM      7  N   UNL     1       1.711   0.415  23.020  0.00  0.00    -0.285 N 
ATOM     22  C   UNL     1       0.922   1.258  23.798  0.00  0.00    +0.218 C 
ATOM     36  H   UNL     1       1.282  -0.016  22.203  0.00  0.00    +0.155 HD
BRANCH   7  25
ATOM     25  C   UNL     1       3.071   0.080  23.217  0.00  0.00    +0.033 A 
ATOM     29  C   UNL     1       4.044   1.035  22.978  0.00  0.00    +0.023 A 
ATOM     30  C   UNL     1       3.400  -1.196  23.645  0.00  0.00    +0.023 A 
ATOM     31  C   UNL     1       5.386   0.706  23.173  0.00  0.00    +0.002 A 
ATOM     32  C   UNL     1       4.741  -1.524  23.840  0.00  0.00    +0.002 A 
ATOM     33  C   UNL     1       5.734  -0.574  23.604  0.00  0.00    +0.000 A 
ENDBRANCH   7  25
ENDBRANCH  21  22
ENDBRANCH  11  21
TORSDOF 7
ENDMDL
MODEL 6
REMARK VINA RESULT:      16.1      2.916      5.222
REMARK  Name = 11867036
REMARK  9 active torsions:
REMARK  status: ('A' for Active; 'I' for Inactive)
REMARK    1  A    between atoms: O_3  and  C_13
REMARK    2  A    between atoms: O_4  and  C_18
REMARK    3  A    between atoms: N_7  and  C_25
REMARK    4  A    between atoms: C_8  and  C_16
REMARK    5  A    between atoms: C_10  and  C_18
REMARK    6  A    between atoms: C_10  and  C_19
REMARK    7  A    between atoms: C_11  and  C_21
REMARK    8  A    between atoms: C_21  and  C_22
REMARK    9  A    between atoms: C_23  and  C_24
REMARK                            x       y       z     vdW  Elec       q    Type
REMARK                         _______ _______ _______ _____ _____    ______ ____
ROOT
ATOM      1  S   UNL     1       0.588   2.061  25.457  0.00  0.00    -0.072 S 
ATOM      6  N   UNL     1      -0.231   1.542  23.058  0.00  0.00    -0.243 NA
ATOM      8  C   UNL     1      -3.776   2.551  24.190  0.00  0.00    -0.020 C 
ATOM      9  C   UNL     1      -3.224   3.605  25.247  0.00  0.00    +0.011 C 
ATOM     10  C   UNL     1      -4.286   4.312  26.175  0.00  0.00    +0.021 C 
ATOM     11  C   UNL     1      -2.636   2.304  23.098  0.00  0.00    +0.053 C 
ATOM     12  C   UNL     1      -5.018   3.142  23.473  0.00  0.00    +0.010 C 
ATOM     13  C   UNL     1      -5.478   4.802  25.306  0.00  0.00    +0.123 C 
ATOM     14  C   UNL     1      -1.992   3.045  26.018  0.00  0.00    +0.049 C 
ATOM     15  C   UNL     1      -6.066   3.709  24.421  0.00  0.00    +0.032 C 
ATOM     16  C   UNL     1      -4.172   1.200  24.836  0.00  0.00    +0.012 C 
ATOM     17  C   UNL     1      -1.297   2.080  23.755  0.00  0.00    +0.056 A 
ATOM     19  C   UNL     1      -3.637   5.569  26.821  0.00  0.00    +0.016 C 
ATOM     20  C   UNL     1      -1.025   2.437  25.060  0.00  0.00    +0.014 A 
ATOM     23  C   UNL     1       0.812   1.478  23.857  0.00  0.00    +0.109 A 
ENDROOT
BRANCH  23  24
ATOM      2  S   UNL     1       4.533   0.826  22.568  0.00  0.00    -0.104 S 
ATOM     24  C   UNL     1       2.111   0.933  23.402  0.00  0.00    +0.014 A 
ATOM     26  C   UNL     1       2.421  -0.450  23.285  0.00  0.00    +0.018 A 
ATOM     27  C   UNL     1       3.166   1.739  23.047  0.00  0.00    +0.055 A 
ATOM     28  C   UNL     1       3.709  -0.651  22.839  0.00  0.00    +0.046 A 
ENDBRANCH  23  24
BRANCH  13   3
ATOM      3  O   UNL     1      -6.517   5.331  26.131  0.00  0.00    -0.391 OA
ATOM     34  H   UNL     1      -7.346   4.886  25.891  0.00  0.00    +0.210 HD
ENDBRANCH  13   3
BRANCH  10  18
ATOM     18  C   UNL     1      -4.782   3.448  27.355  0.00  0.00    +0.165 C 
BRANCH  18   4
ATOM      4  O   UNL     1      -5.940   2.764  26.933  0.00  0.00    -0.394 OA
ATOM     35  H   UNL     1      -5.676   1.875  26.640  0.00  0.00    +0.209 HD
ENDBRANCH  18   4
ENDBRANCH  10  18
BRANCH  11  21
ATOM     21  C   UNL     1      -2.954   1.200  22.082  0.00  0.00    +0.106 C 
BRANCH  21  22
ATOM      5  O   UNL     1      -4.053  -0.905  22.486  0.00  0.00    -0.275 OA
ATOM      7  N   UNL     1      -2.071  -0.380  23.633  0.00  0.00    -0.285 N 
ATOM     22  C   UNL     1      -3.117  -0.155  22.740  0.00  0.00    +0.218 C 
ATOM     36  H   UNL     1      -1.372   0.351  23.737  0.00  0.00    +0.155 HD
BRANCH   7  25
ATOM     25  C   UNL     1      -1.859  -1.520  24.443  0.00  0.00    +0.033 A 
ATOM     29  C   UNL     1      -0.570  -1.843  24.831  0.00  0.00    +0.023 A 
ATOM     30  C   UNL     1      -2.944  -2.289  24.829  0.00  0.00    +0.023 A 
ATOM     31  C   UNL     1      -0.360  -2.967  25.631  0.00  0.00    +0.002 A 
ATOM     32  C   UNL     1      -2.734  -3.412  25.628  0.00  0.00    +0.002 A 
ATOM     33  C   UNL     1      -1.442  -3.752  26.028  0.00  0.00    +0.000 A 
ENDBRANCH   7  25
ENDBRANCH  21  22
ENDBRANCH  11  21
TORSDOF 7
ENDMDL
MODEL 7
REMARK VINA RESULT:      16.6      3.188      4.928
REMARK  Name = 11867036
REMARK  9 active torsions:
REMARK  status: ('A' for Active; 'I' for Inactive)
REMARK    1  A    between atoms: O_3  and  C_13
REMARK    2  A    between atoms: O_4  and  C_18
REMARK    3  A    between atoms: N_7  and  C_25
REMARK    4  A    between atoms: C_8  and  C_16
REMARK    5  A    between atoms: C_10  and  C_18
REMARK    6  A    between atoms: C_10  and  C_19
REMARK    7  A    between atoms: C_11  and  C_21
REMARK    8  A    between atoms: C_21  and  C_22
REMARK    9  A    between atoms: C_23  and  C_24
REMARK                            x       y       z     vdW  Elec       q    Type
REMARK                         _______ _______ _______ _____ _____    ______ ____
ROOT
ATOM      1  S   UNL     1      -3.109  -1.612  25.406  0.00  0.00    -0.072 S 
ATOM      6  N   UNL     1      -1.025  -0.146  24.962  0.00  0.00    -0.243 NA
ATOM      8  C   UNL     1      -3.403   2.836  24.398  0.00  0.00    -0.020 C 
ATOM      9  C   UNL     1      -4.483   2.270  25.421  0.00  0.00    +0.011 C 
ATOM     10  C   UNL     1      -5.842   3.062  25.539  0.00  0.00    +0.021 C 
ATOM     11  C   UNL     1      -1.993   2.175  24.753  0.00  0.00    +0.053 C 
ATOM     12  C   UNL     1      -3.281   4.372  24.575  0.00  0.00    +0.010 C 
ATOM     13  C   UNL     1      -5.539   4.582  25.663  0.00  0.00    +0.123 C 
ATOM     14  C   UNL     1      -4.666   0.732  25.261  0.00  0.00    +0.049 C 
ATOM     15  C   UNL     1      -4.617   5.102  24.567  0.00  0.00    +0.032 C 
ATOM     16  C   UNL     1      -3.756   2.533  22.920  0.00  0.00    +0.012 C 
ATOM     17  C   UNL     1      -2.128   0.687  24.957  0.00  0.00    +0.056 A 
ATOM     19  C   UNL     1      -6.571   2.628  26.843  0.00  0.00    +0.016 C 
ATOM     20  C   UNL     1      -3.335   0.064  25.202  0.00  0.00    +0.014 A 
ATOM     23  C   UNL     1      -1.423  -1.380  25.182  0.00  0.00    +0.109 A 
ENDROOT
BRANCH  23  24
ATOM      2  S   UNL     1       0.473  -4.892  25.124  0.00  0.00    -0.104 S 
ATOM     24  C   UNL     1      -0.468  -2.509  25.234  0.00  0.00    +0.014 A 
ATOM     26  C   UNL     1       0.919  -2.394  25.523  0.00  0.00    +0.018 A 
ATOM     27  C   UNL     1      -0.848  -3.809  24.996  0.00  0.00    +0.055 A 
ATOM     28  C   UNL     1       1.553  -3.617  25.497  0.00  0.00    +0.046 A 
ENDBRANCH  23  24
BRANCH  13   3
ATOM      3  O   UNL     1      -6.749   5.339  25.642  0.00  0.00    -0.391 OA
ATOM     34  H   UNL     1      -7.347   4.932  24.994  0.00  0.00    +0.210 HD
ENDBRANCH  13   3
BRANCH  10  18
ATOM     18  C   UNL     1      -6.843   2.792  24.395  0.00  0.00    +0.165 C 
BRANCH  18   4
ATOM      4  O   UNL     1      -7.424   1.527  24.619  0.00  0.00    -0.394 OA
ATOM     35  H   UNL     1      -7.971   1.583  25.421  0.00  0.00    +0.209 HD
ENDBRANCH  18   4
ENDBRANCH  10  18
BRANCH  11  21
ATOM     21  C   UNL     1      -0.866   2.505  23.765  0.00  0.00    +0.106 C 
BRANCH  21  22
ATOM      5  O   UNL     1       0.888   2.183  25.384  0.00  0.00    -0.275 OA
ATOM      7  N   UNL     1       1.130   1.328  23.210  0.00  0.00    -0.285 N 
ATOM     22  C   UNL     1       0.480   1.999  24.242  0.00  0.00    +0.218 C 
ATOM     36  H   UNL     1       0.657   1.269  22.311  0.00  0.00    +0.155 HD
BRANCH   7  25
ATOM     25  C   UNL     1       2.402   0.711  23.249  0.00  0.00    +0.033 A 
ATOM     29  C   UNL     1       3.534   1.482  23.047  0.00  0.00    +0.023 A 
ATOM     30  C   UNL     1       2.488  -0.651  23.486  0.00  0.00    +0.023 A 
ATOM     31  C   UNL     1       4.790   0.873  23.086  0.00  0.00    +0.002 A 
ATOM     32  C   UNL     1       3.743  -1.259  23.525  0.00  0.00    +0.002 A 
ATOM     33  C   UNL     1       4.893  -0.497  23.324  0.00  0.00    +0.000 A 
ENDBRANCH   7  25
ENDBRANCH  21  22
ENDBRANCH  11  21
TORSDOF 7
ENDMDL
MODEL 8
REMARK VINA RESULT:      16.6      2.731      5.966
REMARK  Name = 11867036
REMARK  9 active torsions:
REMARK  status: ('A' for Active; 'I' for Inactive)
REMARK    1  A    between atoms: O_3  and  C_13
REMARK    2  A    between atoms: O_4  and  C_18
REMARK    3  A    between atoms: N_7  and  C_25
REMARK    4  A    between atoms: C_8  and  C_16
REMARK    5  A    between atoms: C_10  and  C_18
REMARK    6  A    between atoms: C_10  and  C_19
REMARK    7  A    between atoms: C_11  and  C_21
REMARK    8  A    between atoms: C_21  and  C_22
REMARK    9  A    between atoms: C_23  and  C_24
REMARK                            x       y       z     vdW  Elec       q    Type
REMARK                         _______ _______ _______ _____ _____    ______ ____
ROOT
ATOM      1  S   UNL     1       1.747   3.136  23.229  0.00  0.00    -0.072 S 
ATOM      6  N   UNL     1       1.127   0.764  24.056  0.00  0.00    -0.243 NA
ATOM      8  C   UNL     1      -2.095   2.268  25.547  0.00  0.00    -0.020 C 
ATOM      9  C   UNL     1      -2.186   3.390  24.422  0.00  0.00    +0.011 C 
ATOM     10  C   UNL     1      -3.327   4.469  24.577  0.00  0.00    +0.021 C 
ATOM     11  C   UNL     1      -1.201   1.072  24.979  0.00  0.00    +0.053 C 
ATOM     12  C   UNL     1      -3.515   1.718  25.842  0.00  0.00    +0.010 C 
ATOM     13  C   UNL     1      -4.665   3.753  24.914  0.00  0.00    +0.123 C 
ATOM     14  C   UNL     1      -0.787   3.998  24.110  0.00  0.00    +0.049 C 
ATOM     15  C   UNL     1      -4.555   2.800  26.098  0.00  0.00    +0.032 C 
ATOM     16  C   UNL     1      -1.479   2.789  26.869  0.00  0.00    +0.012 C 
ATOM     17  C   UNL     1       0.059   1.595  24.335  0.00  0.00    +0.056 A 
ATOM     19  C   UNL     1      -3.523   5.199  23.218  0.00  0.00    +0.016 C 
ATOM     20  C   UNL     1       0.215   2.907  23.937  0.00  0.00    +0.014 A 
ATOM     23  C   UNL     1       2.077   1.470  23.479  0.00  0.00    +0.109 A 
ENDROOT
BRANCH  23  24
ATOM      2  S   UNL     1       5.745  -0.075  23.184  0.00  0.00    -0.104 S 
ATOM     24  C   UNL     1       3.360   0.860  23.067  0.00  0.00    +0.014 A 
ATOM     26  C   UNL     1       3.673   0.426  21.750  0.00  0.00    +0.018 A 
ATOM     27  C   UNL     1       4.394   0.648  23.949  0.00  0.00    +0.055 A 
ATOM     28  C   UNL     1       4.943  -0.105  21.672  0.00  0.00    +0.046 A 
ENDBRANCH  23  24
BRANCH  13   3
ATOM      3  O   UNL     1      -5.690   4.708  25.189  0.00  0.00    -0.391 OA
ATOM     34  H   UNL     1      -5.455   5.173  26.008  0.00  0.00    +0.210 HD
ENDBRANCH  13   3
BRANCH  10  18
ATOM     18  C   UNL     1      -3.022   5.580  25.605  0.00  0.00    +0.165 C 
BRANCH  18   4
ATOM      4  O   UNL     1      -1.701   6.020  25.387  0.00  0.00    -0.394 OA
ATOM     35  H   UNL     1      -1.698   6.992  25.416  0.00  0.00    +0.209 HD
ENDBRANCH  18   4
ENDBRANCH  10  18
BRANCH  11  21
ATOM     21  C   UNL     1      -0.892  -0.033  25.998  0.00  0.00    +0.106 C 
BRANCH  21  22
ATOM      5  O   UNL     1      -0.837  -2.436  25.837  0.00  0.00    -0.275 OA
ATOM      7  N   UNL     1      -2.558  -1.231  24.787  0.00  0.00    -0.285 N 
ATOM     22  C   UNL     1      -1.402  -1.387  25.546  0.00  0.00    +0.218 C 
ATOM     36  H   UNL     1      -2.897  -0.285  24.627  0.00  0.00    +0.155 HD
BRANCH   7  25
ATOM     25  C   UNL     1      -3.337  -2.246  24.183  0.00  0.00    +0.033 A 
ATOM     29  C   UNL     1      -4.648  -1.973  23.830  0.00  0.00    +0.023 A 
ATOM     30  C   UNL     1      -2.773  -3.491  23.960  0.00  0.00    +0.023 A 
ATOM     31  C   UNL     1      -5.416  -2.974  23.233  0.00  0.00    +0.002 A 
ATOM     32  C   UNL     1      -3.541  -4.491  23.364  0.00  0.00    +0.002 A 
ATOM     33  C   UNL     1      -4.862  -4.233  23.002  0.00  0.00    +0.000 A 
ENDBRANCH   7  25
ENDBRANCH  21  22
ENDBRANCH  11  21
TORSDOF 7
ENDMDL
MODEL 9
REMARK VINA RESULT:      16.6      2.810      5.670
REMARK  Name = 11867036
REMARK  9 active torsions:
REMARK  status: ('A' for Active; 'I' for Inactive)
REMARK    1  A    between atoms: O_3  and  C_13
REMARK    2  A    between atoms: O_4  and  C_18
REMARK    3  A    between atoms: N_7  and  C_25
REMARK    4  A    between atoms: C_8  and  C_16
REMARK    5  A    between atoms: C_10  and  C_18
REMARK    6  A    between atoms: C_10  and  C_19
REMARK    7  A    between atoms: C_11  and  C_21
REMARK    8  A    between atoms: C_21  and  C_22
REMARK    9  A    between atoms: C_23  and  C_24
REMARK                            x       y       z     vdW  Elec       q    Type
REMARK                         _______ _______ _______ _____ _____    ______ ____
ROOT
ATOM      1  S   UNL     1      -1.187   3.308  27.644  0.00  0.00    -0.072 S 
ATOM      6  N   UNL     1       0.591   2.140  26.172  0.00  0.00    -0.243 NA
ATOM      8  C   UNL     1      -2.043   1.959  23.362  0.00  0.00    -0.020 C 
ATOM      9  C   UNL     1      -2.757   3.300  23.837  0.00  0.00    +0.011 C 
ATOM     10  C   UNL     1      -4.079   3.713  23.083  0.00  0.00    +0.021 C 
ATOM     11  C   UNL     1      -0.549   1.969  23.928  0.00  0.00    +0.053 C 
ATOM     12  C   UNL     1      -1.978   1.930  21.813  0.00  0.00    +0.010 C 
ATOM     13  C   UNL     1      -3.855   3.585  21.550  0.00  0.00    +0.123 C 
ATOM     14  C   UNL     1      -2.875   3.362  25.389  0.00  0.00    +0.049 C 
ATOM     15  C   UNL     1      -3.309   2.223  21.134  0.00  0.00    +0.032 C 
ATOM     16  C   UNL     1      -2.770   0.683  23.852  0.00  0.00    +0.012 C 
ATOM     17  C   UNL     1      -0.523   2.359  25.384  0.00  0.00    +0.056 A 
ATOM     19  C   UNL     1      -4.387   5.208  23.382  0.00  0.00    +0.016 C 
ATOM     20  C   UNL     1      -1.570   3.000  26.014  0.00  0.00    +0.014 A 
ATOM     23  C   UNL     1       0.352   2.592  27.384  0.00  0.00    +0.109 A 
ENDROOT
BRANCH  23  24
ATOM      2  S   UNL     1       2.422   1.980  30.742  0.00  0.00    -0.104 S 
ATOM     24  C   UNL     1       1.357   2.491  28.466  0.00  0.00    +0.014 A 
ATOM     26  C   UNL     1       2.713   2.905  28.363  0.00  0.00    +0.018 A 
ATOM     27  C   UNL     1       1.060   1.969  29.703  0.00  0.00    +0.055 A 
ATOM     28  C   UNL     1       3.408   2.684  29.532  0.00  0.00    +0.046 A 
ENDBRANCH  23  24
BRANCH  13   3
ATOM      3  O   UNL     1      -5.071   3.827  20.842  0.00  0.00    -0.391 OA
ATOM     34  H   UNL     1      -5.712   4.202  21.467  0.00  0.00    +0.210 HD
ENDBRANCH  13   3
BRANCH  10  18
ATOM     18  C   UNL     1      -5.338   2.934  23.522  0.00  0.00    +0.165 C 
BRANCH  18   4
ATOM      4  O   UNL     1      -5.467   3.075  24.919  0.00  0.00    -0.394 OA
ATOM     35  H   UNL     1      -5.133   2.263  25.336  0.00  0.00    +0.209 HD
ENDBRANCH  18   4
ENDBRANCH  10  18
BRANCH  11  21
ATOM     21  C   UNL     1       0.236   0.673  23.680  0.00  0.00    +0.106 C 
BRANCH  21  22
ATOM      5  O   UNL     1       2.192   2.045  23.371  0.00  0.00    -0.275 OA
ATOM      7  N   UNL     1       2.419  -0.280  23.622  0.00  0.00    -0.285 N 
ATOM     22  C   UNL     1       1.723   0.923  23.537  0.00  0.00    +0.218 C 
ATOM     36  H   UNL     1       1.879  -1.132  23.753  0.00  0.00    +0.155 HD
BRANCH   7  25
ATOM     25  C   UNL     1       3.818  -0.475  23.536  0.00  0.00    +0.033 A 
ATOM     29  C   UNL     1       4.616   0.551  23.059  0.00  0.00    +0.023 A 
ATOM     30  C   UNL     1       4.358  -1.689  23.930  0.00  0.00    +0.023 A 
ATOM     31  C   UNL     1       5.996   0.358  22.975  0.00  0.00    +0.002 A 
ATOM     32  C   UNL     1       5.737  -1.880  23.845  0.00  0.00    +0.002 A 
ATOM     33  C   UNL     1       6.555  -0.858  23.368  0.00  0.00    +0.000 A 
ENDBRANCH   7  25
ENDBRANCH  21  22
ENDBRANCH  11  21
TORSDOF 7
ENDMDL
MODEL 10
REMARK VINA RESULT:      17.0      2.451      3.677
REMARK  Name = 11867036
REMARK  9 active torsions:
REMARK  status: ('A' for Active; 'I' for Inactive)
REMARK    1  A    between atoms: O_3  and  C_13
REMARK    2  A    between atoms: O_4  and  C_18
REMARK    3  A    between atoms: N_7  and  C_25
REMARK    4  A    between atoms: C_8  and  C_16
REMARK    5  A    between atoms: C_10  and  C_18
REMARK    6  A    between atoms: C_10  and  C_19
REMARK    7  A    between atoms: C_11  and  C_21
REMARK    8  A    between atoms: C_21  and  C_22
REMARK    9  A    between atoms: C_23  and  C_24
REMARK                            x       y       z     vdW  Elec       q    Type
REMARK                         _______ _______ _______ _____ _____    ______ ____
ROOT
ATOM      1  S   UNL     1       1.746  -1.592  23.360  0.00  0.00    -0.072 S 
ATOM      6  N   UNL     1       1.844   0.907  24.026  0.00  0.00    -0.243 NA
ATOM      8  C   UNL     1      -2.012   0.914  24.060  0.00  0.00    -0.020 C 
ATOM      9  C   UNL     1      -2.089  -0.615  24.497  0.00  0.00    +0.011 C 
ATOM     10  C   UNL     1      -3.523  -1.267  24.567  0.00  0.00    +0.021 C 
ATOM     11  C   UNL     1      -0.573   1.472  24.475  0.00  0.00    +0.053 C 
ATOM     12  C   UNL     1      -3.089   1.724  24.826  0.00  0.00    +0.010 C 
ATOM     13  C   UNL     1      -4.485  -0.309  25.324  0.00  0.00    +0.123 C 
ATOM     14  C   UNL     1      -1.044  -1.479  23.730  0.00  0.00    +0.049 C 
ATOM     15  C   UNL     1      -4.481   1.110  24.766  0.00  0.00    +0.032 C 
ATOM     16  C   UNL     1      -2.224   1.117  22.540  0.00  0.00    +0.012 C 
ATOM     17  C   UNL     1       0.518   0.517  24.064  0.00  0.00    +0.056 A 
ATOM     19  C   UNL     1      -3.441  -2.585  25.390  0.00  0.00    +0.016 C 
ATOM     20  C   UNL     1       0.286  -0.807  23.753  0.00  0.00    +0.014 A 
ATOM     23  C   UNL     1       2.580  -0.121  23.660  0.00  0.00    +0.109 A 
ENDROOT
BRANCH  23  24
ATOM      2  S   UNL     1       6.539  -0.624  23.585  0.00  0.00    -0.104 S 
ATOM     24  C   UNL     1       4.049  -0.015  23.516  0.00  0.00    +0.014 A 
ATOM     26  C   UNL     1       4.741   1.117  23.006  0.00  0.00    +0.018 A 
ATOM     27  C   UNL     1       4.901  -1.035  23.869  0.00  0.00    +0.055 A 
ATOM     28  C   UNL     1       6.105   0.921  22.989  0.00  0.00    +0.046 A 
ENDBRANCH  23  24
BRANCH  13   3
ATOM      3  O   UNL     1      -5.822  -0.810  25.294  0.00  0.00    -0.391 OA
ATOM     34  H   UNL     1      -5.827  -1.618  24.754  0.00  0.00    +0.210 HD
ENDBRANCH  13   3
BRANCH  10  18
ATOM     18  C   UNL     1      -4.113  -1.670  23.198  0.00  0.00    +0.165 C 
BRANCH  18   4
ATOM      4  O   UNL     1      -4.716  -2.936  23.343  0.00  0.00    -0.394 OA
ATOM     35  H   UNL     1      -4.621  -3.414  22.501  0.00  0.00    +0.209 HD
ENDBRANCH  18   4
ENDBRANCH  10  18
BRANCH  11  21
ATOM     21  C   UNL     1      -0.280   2.900  23.993  0.00  0.00    +0.106 C 
BRANCH  21  22
ATOM      5  O   UNL     1      -0.907   4.899  25.181  0.00  0.00    -0.275 OA
ATOM      7  N   UNL     1      -2.566   3.523  24.247  0.00  0.00    -0.285 N 
ATOM     22  C   UNL     1      -1.263   3.907  24.554  0.00  0.00    +0.218 C 
ATOM     36  H   UNL     1      -2.695   2.661  23.723  0.00  0.00    +0.155 HD
BRANCH   7  25
ATOM     25  C   UNL     1      -3.765   4.191  24.589  0.00  0.00    +0.033 A 
ATOM     29  C   UNL     1      -4.437   3.827  25.743  0.00  0.00    +0.023 A 
ATOM     30  C   UNL     1      -4.242   5.195  23.761  0.00  0.00    +0.023 A 
ATOM     31  C   UNL     1      -5.619   4.486  26.081  0.00  0.00    +0.002 A 
ATOM     32  C   UNL     1      -5.424   5.853  24.100  0.00  0.00    +0.002 A 
ATOM     33  C   UNL     1      -6.113   5.498  25.259  0.00  0.00    +0.000 A 
ENDBRANCH   7  25
ENDBRANCH  21  22
ENDBRANCH  11  21
TORSDOF 7
ENDMDL
