MODEL 1
REMARK VINA RESULT:      -0.4      0.000      0.000
REMARK  Name = 45361519
REMARK  11 active torsions:
REMARK  status: ('A' for Active; 'I' for Inactive)
REMARK    1  A    between atoms: O_2  and  C_10
REMARK    2  A    between atoms: N_5  and  C_14
REMARK    3  A    between atoms: N_6  and  C_24
REMARK    4  A    between atoms: C_7  and  C_17
REMARK    5  A    between atoms: C_9  and  C_19
REMARK    6  A    between atoms: C_13  and  C_18
REMARK    7  A    between atoms: C_18  and  C_20
REMARK    8  A    between atoms: C_18  and  C_21
REMARK    9  A    between atoms: C_22  and  C_23
REMARK   10  A    between atoms: C_23  and  C_25
REMARK   11  A    between atoms: C_24  and  C_26
REMARK                            x       y       z     vdW  Elec       q    Type
REMARK                         _______ _______ _______ _____ _____    ______ ____
ROOT
ATOM      7  C   UNL     1      -2.260  -0.857  25.330  0.00  0.00    -0.027 C 
ATOM      8  C   UNL     1      -2.455   0.192  24.185  0.00  0.00    +0.028 C 
ATOM      9  C   UNL     1      -1.073   0.778  23.723  0.00  0.00    +0.012 C 
ATOM     10  C   UNL     1      -3.535   1.246  24.565  0.00  0.00    +0.122 C 
ATOM     11  C   UNL     1      -3.624  -1.495  25.684  0.00  0.00    +0.007 C 
ATOM     12  C   UNL     1      -1.329  -1.984  24.828  0.00  0.00    +0.009 C 
ATOM     13  C   UNL     1      -4.865   0.599  25.018  0.00  0.00    +0.029 C 
ATOM     14  C   UNL     1      -0.119  -0.371  23.290  0.00  0.00    +0.076 C 
ATOM     15  C   UNL     1      -4.672  -0.469  26.093  0.00  0.00    +0.007 C 
ATOM     16  C   UNL     1       0.019  -1.473  24.340  0.00  0.00    +0.023 C 
ATOM     17  C   UNL     1      -1.656  -0.230  26.613  0.00  0.00    +0.011 C 
ATOM     19  C   UNL     1      -1.189   1.798  22.577  0.00  0.00    +0.010 C 
ENDROOT
BRANCH  14   5
ATOM      4  O   UNL     1       1.291  -0.715  20.805  0.00  0.00    -0.275 OA
ATOM      5  N   UNL     1       1.203   0.124  22.968  0.00  0.00    -0.312 N 
ATOM     22  C   UNL     1       1.800  -0.095  21.736  0.00  0.00    +0.218 C 
ATOM     37  H   UNL     1       1.723   0.593  23.704  0.00  0.00    +0.149 HD
BRANCH  22  23
ATOM     23  C   UNL     1       3.176   0.537  21.668  0.00  0.00    +0.130 C 
BRANCH  23  25
ATOM     25  C   UNL     1       4.111   0.049  22.744  0.00  0.00    -0.039 A 
ATOM     27  C   UNL     1       4.039  -1.273  23.183  0.00  0.00    +0.004 A 
ATOM     28  C   UNL     1       5.049   0.919  23.300  0.00  0.00    +0.004 A 
ATOM     31  C   UNL     1       4.906  -1.725  24.178  0.00  0.00    +0.000 A 
ATOM     32  C   UNL     1       5.915   0.467  24.296  0.00  0.00    +0.000 A 
ATOM     33  C   UNL     1       5.843  -0.855  24.735  0.00  0.00    +0.000 A 
ENDBRANCH  23  25
ENDBRANCH  22  23
ENDBRANCH  14   5
BRANCH  10   2
ATOM      2  O   UNL     1      -3.839   2.050  23.424  0.00  0.00    -0.391 OA
ATOM     38  H   UNL     1      -4.379   2.802  23.721  0.00  0.00    +0.210 HD
ENDBRANCH  10   2
BRANCH  13  18
ATOM     18  C   UNL     1      -5.869   1.648  25.510  0.00  0.00    +0.077 C 
ATOM     20  C   UNL     1      -7.044   1.746  24.544  0.00  0.00    +0.017 C 
BRANCH  18  21
ATOM      3  O   UNL     1      -5.447   3.974  24.987  0.00  0.00    -0.276 OA
ATOM      6  N   UNL     1      -4.216   2.978  26.681  0.00  0.00    -0.311 N 
ATOM     21  C   UNL     1      -5.174   2.995  25.678  0.00  0.00    +0.216 C 
ATOM     39  H   UNL     1      -4.076   2.135  27.230  0.00  0.00    +0.149 HD
BRANCH   6  24
ATOM     24  C   UNL     1      -3.423   4.136  27.024  0.00  0.00    +0.139 C 
BRANCH  24  26
ATOM      1  F   UNL     1       0.756   4.995  23.350  0.00  0.00    -0.205 F 
ATOM     26  C   UNL     1      -2.308   4.365  26.044  0.00  0.00    -0.030 A 
ATOM     29  C   UNL     1      -1.267   3.443  25.944  0.00  0.00    +0.008 A 
ATOM     30  C   UNL     1      -2.314   5.501  25.234  0.00  0.00    +0.008 A 
ATOM     34  C   UNL     1      -0.232   3.656  25.034  0.00  0.00    +0.038 A 
ATOM     35  C   UNL     1      -1.279   5.714  24.325  0.00  0.00    +0.038 A 
ATOM     36  C   UNL     1      -0.238   4.791  24.224  0.00  0.00    +0.123 A 
ENDBRANCH  24  26
ENDBRANCH   6  24
ENDBRANCH  18  21
ENDBRANCH  13  18
TORSDOF 8
ENDMDL
