MODEL 1
REMARK VINA RESULT:      -4.6      0.000      0.000
REMARK  Name = 51137462
REMARK  8 active torsions:
REMARK  status: ('A' for Active; 'I' for Inactive)
REMARK    1  A    between atoms: O_2  and  C_17
REMARK    2  A    between atoms: O_2  and  C_22
REMARK    3  A    between atoms: N_3  and  C_10
REMARK    4  A    between atoms: C_6  and  C_12
REMARK    5  A    between atoms: C_10  and  C_11
REMARK    6  A    between atoms: C_11  and  C_13
REMARK    7  A    between atoms: C_11  and  C_14
REMARK    8  A    between atoms: C_15  and  C_16
REMARK                            x       y       z     vdW  Elec       q    Type
REMARK                         _______ _______ _______ _____ _____    ______ ____
ROOT
ATOM      1  O   UNL     1      -7.565 -10.432  15.493  0.00  0.00    -0.420 OA
ATOM      4  N   UNL     1      -5.375 -10.477  15.945  0.00  0.00    -0.112 NA
ATOM      5  N   UNL     1      -6.053 -10.290  17.135  0.00  0.00    -0.107 NA
ATOM     12  C   UNL     1      -6.298 -10.555  15.014  0.00  0.00    +0.222 A 
ATOM     15  C   UNL     1      -7.328 -10.270  16.823  0.00  0.00    +0.252 A 
ENDROOT
BRANCH  15  16
ATOM     16  C   UNL     1      -8.486 -10.107  17.654  0.00  0.00    +0.080 A 
ATOM     17  C   UNL     1      -9.542  -9.288  17.256  0.00  0.00    +0.132 A 
ATOM     18  C   UNL     1      -8.546 -10.781  18.874  0.00  0.00    +0.017 A 
ATOM     19  C   UNL     1     -10.660  -9.142  18.079  0.00  0.00    +0.046 A 
ATOM     20  C   UNL     1      -9.663 -10.634  19.697  0.00  0.00    +0.001 A 
ATOM     21  C   UNL     1     -10.719  -9.816  19.299  0.00  0.00    +0.004 A 
BRANCH  17   2
ATOM      2  O   UNL     1      -9.510  -8.617  16.069  0.00  0.00    -0.494 OA
ATOM     22  C   UNL     1     -10.123  -7.331  16.037  0.00  0.00    +0.277 C 
ENDBRANCH  17   2
ENDBRANCH  15  16
BRANCH  12   6
ATOM      3  N   UNL     1      -5.554  -9.653  11.542  0.00  0.00    -0.301 NA
ATOM      6  C   UNL     1      -6.147 -10.755  13.524  0.00  0.00    +0.092 C 
ATOM      7  C   UNL     1      -5.064  -9.860  12.906  0.00  0.00    +0.097 C 
ATOM      8  C   UNL     1      -7.413 -10.462  12.700  0.00  0.00    +0.029 C 
ATOM      9  C   UNL     1      -6.988  -9.406  11.689  0.00  0.00    +0.085 C 
BRANCH   3  10
ATOM     10  C   UNL     1      -4.869  -8.559  10.866  0.00  0.00    +0.087 C 
BRANCH  10  11
ATOM     11  C   UNL     1      -3.812  -9.058   9.866  0.00  0.00    -0.003 C 
ATOM     13  C   UNL     1      -2.473  -9.252  10.583  0.00  0.00    +0.008 C 
ATOM     14  C   UNL     1      -4.223 -10.364   9.180  0.00  0.00    +0.008 C 
ENDBRANCH  10  11
ENDBRANCH   3  10
ENDBRANCH  12   6
TORSDOF 5
ENDMDL
MODEL 2
REMARK VINA RESULT:      -4.5     15.185     16.068
REMARK  Name = 51137462
REMARK  8 active torsions:
REMARK  status: ('A' for Active; 'I' for Inactive)
REMARK    1  A    between atoms: O_2  and  C_17
REMARK    2  A    between atoms: O_2  and  C_22
REMARK    3  A    between atoms: N_3  and  C_10
REMARK    4  A    between atoms: C_6  and  C_12
REMARK    5  A    between atoms: C_10  and  C_11
REMARK    6  A    between atoms: C_11  and  C_13
REMARK    7  A    between atoms: C_11  and  C_14
REMARK    8  A    between atoms: C_15  and  C_16
REMARK                            x       y       z     vdW  Elec       q    Type
REMARK                         _______ _______ _______ _____ _____    ______ ____
ROOT
ATOM      1  O   UNL     1      -1.638   1.199  24.385  0.00  0.00    -0.420 OA
ATOM      4  N   UNL     1      -0.216   2.888  24.021  0.00  0.00    -0.112 NA
ATOM      5  N   UNL     1      -1.456   3.427  24.306  0.00  0.00    -0.107 NA
ATOM     12  C   UNL     1      -0.369   1.585  24.079  0.00  0.00    +0.222 A 
ATOM     15  C   UNL     1      -2.254   2.406  24.512  0.00  0.00    +0.252 A 
ENDROOT
BRANCH  15  16
ATOM     16  C   UNL     1      -3.649   2.367  24.843  0.00  0.00    +0.080 A 
ATOM     17  C   UNL     1      -4.419   1.237  24.568  0.00  0.00    +0.132 A 
ATOM     18  C   UNL     1      -4.234   3.479  25.450  0.00  0.00    +0.017 A 
ATOM     19  C   UNL     1      -5.775   1.220  24.897  0.00  0.00    +0.046 A 
ATOM     20  C   UNL     1      -5.590   3.462  25.778  0.00  0.00    +0.001 A 
ATOM     21  C   UNL     1      -6.360   2.332  25.503  0.00  0.00    +0.004 A 
BRANCH  17   2
ATOM      2  O   UNL     1      -3.874   0.136  23.976  0.00  0.00    -0.494 OA
ATOM     22  C   UNL     1      -4.026  -1.106  24.658  0.00  0.00    +0.277 C 
ENDBRANCH  17   2
ENDBRANCH  15  16
BRANCH  12   6
ATOM      3  N   UNL     1       2.736   0.043  22.893  0.00  0.00    -0.301 NA
ATOM      6  C   UNL     1       0.645   0.486  23.855  0.00  0.00    +0.092 C 
ATOM      7  C   UNL     1       2.086   1.008  23.782  0.00  0.00    +0.097 C 
ATOM      8  C   UNL     1       0.453  -0.315  22.556  0.00  0.00    +0.029 C 
ATOM      9  C   UNL     1       1.775  -0.182  21.813  0.00  0.00    +0.085 C 
BRANCH   3  10
ATOM     10  C   UNL     1       4.022   0.518  22.401  0.00  0.00    +0.087 C 
BRANCH  10  11
ATOM     11  C   UNL     1       5.207  -0.130  23.137  0.00  0.00    -0.003 C 
ATOM     13  C   UNL     1       5.764   0.845  24.179  0.00  0.00    +0.008 C 
ATOM     14  C   UNL     1       4.826  -1.448  23.818  0.00  0.00    +0.008 C 
ENDBRANCH  10  11
ENDBRANCH   3  10
ENDBRANCH  12   6
TORSDOF 5
ENDMDL
MODEL 3
REMARK VINA RESULT:      -4.4      2.510      4.413
REMARK  Name = 51137462
REMARK  8 active torsions:
REMARK  status: ('A' for Active; 'I' for Inactive)
REMARK    1  A    between atoms: O_2  and  C_17
REMARK    2  A    between atoms: O_2  and  C_22
REMARK    3  A    between atoms: N_3  and  C_10
REMARK    4  A    between atoms: C_6  and  C_12
REMARK    5  A    between atoms: C_10  and  C_11
REMARK    6  A    between atoms: C_11  and  C_13
REMARK    7  A    between atoms: C_11  and  C_14
REMARK    8  A    between atoms: C_15  and  C_16
REMARK                            x       y       z     vdW  Elec       q    Type
REMARK                         _______ _______ _______ _____ _____    ______ ____
ROOT
ATOM      1  O   UNL     1      -5.521  -9.429  12.474  0.00  0.00    -0.420 OA
ATOM      4  N   UNL     1      -3.630 -10.447  11.847  0.00  0.00    -0.112 NA
ATOM      5  N   UNL     1      -3.879 -10.781  13.165  0.00  0.00    -0.107 NA
ATOM     12  C   UNL     1      -4.614  -9.657  11.485  0.00  0.00    +0.222 A 
ATOM     15  C   UNL     1      -4.992 -10.165  13.489  0.00  0.00    +0.252 A 
ENDROOT
BRANCH  15  16
ATOM     16  C   UNL     1      -5.722 -10.149  14.723  0.00  0.00    +0.080 A 
ATOM     17  C   UNL     1      -7.110 -10.017  14.733  0.00  0.00    +0.132 A 
ATOM     18  C   UNL     1      -5.024 -10.269  15.925  0.00  0.00    +0.017 A 
ATOM     19  C   UNL     1      -7.801 -10.003  15.945  0.00  0.00    +0.046 A 
ATOM     20  C   UNL     1      -5.714 -10.254  17.137  0.00  0.00    +0.001 A 
ATOM     21  C   UNL     1      -7.102 -10.121  17.147  0.00  0.00    +0.004 A 
BRANCH  17   2
ATOM      2  O   UNL     1      -7.818  -9.898  13.573  0.00  0.00    -0.494 OA
ATOM     22  C   UNL     1      -9.222  -9.684  13.692  0.00  0.00    +0.277 C 
ENDBRANCH  17   2
ENDBRANCH  15  16
BRANCH  12   6
ATOM      3  N   UNL     1      -6.508  -8.648   8.515  0.00  0.00    -0.301 NA
ATOM      6  C   UNL     1      -4.868  -8.983  10.156  0.00  0.00    +0.092 C 
ATOM      7  C   UNL     1      -6.333  -8.565   9.966  0.00  0.00    +0.097 C 
ATOM      8  C   UNL     1      -4.545  -9.844   8.923  0.00  0.00    +0.029 C 
ATOM      9  C   UNL     1      -5.841  -9.889   8.124  0.00  0.00    +0.085 C 
BRANCH   3  10
ATOM     10  C   UNL     1      -7.911  -8.626   8.124  0.00  0.00    +0.087 C 
BRANCH  10  11
ATOM     11  C   UNL     1      -8.773  -7.780   9.076  0.00  0.00    -0.003 C 
ATOM     13  C   UNL     1      -9.105  -6.438   8.419  0.00  0.00    +0.008 C 
ATOM     14  C   UNL     1     -10.068  -8.489   9.482  0.00  0.00    +0.008 C 
ENDBRANCH  10  11
ENDBRANCH   3  10
ENDBRANCH  12   6
TORSDOF 5
ENDMDL
MODEL 4
REMARK VINA RESULT:      -4.4      3.675      5.879
REMARK  Name = 51137462
REMARK  8 active torsions:
REMARK  status: ('A' for Active; 'I' for Inactive)
REMARK    1  A    between atoms: O_2  and  C_17
REMARK    2  A    between atoms: O_2  and  C_22
REMARK    3  A    between atoms: N_3  and  C_10
REMARK    4  A    between atoms: C_6  and  C_12
REMARK    5  A    between atoms: C_10  and  C_11
REMARK    6  A    between atoms: C_11  and  C_13
REMARK    7  A    between atoms: C_11  and  C_14
REMARK    8  A    between atoms: C_15  and  C_16
REMARK                            x       y       z     vdW  Elec       q    Type
REMARK                         _______ _______ _______ _____ _____    ______ ____
ROOT
ATOM      1  O   UNL     1      -4.224  -9.712  12.251  0.00  0.00    -0.420 OA
ATOM      4  N   UNL     1      -2.743 -10.020  10.603  0.00  0.00    -0.112 NA
ATOM      5  N   UNL     1      -2.139 -10.380  11.793  0.00  0.00    -0.107 NA
ATOM     12  C   UNL     1      -3.959  -9.637  10.919  0.00  0.00    +0.222 A 
ATOM     15  C   UNL     1      -3.040 -10.185  12.727  0.00  0.00    +0.252 A 
ENDROOT
BRANCH  15  16
ATOM     16  C   UNL     1      -2.969 -10.389  14.145  0.00  0.00    +0.080 A 
ATOM     17  C   UNL     1      -4.127 -10.568  14.901  0.00  0.00    +0.132 A 
ATOM     18  C   UNL     1      -1.720 -10.406  14.766  0.00  0.00    +0.017 A 
ATOM     19  C   UNL     1      -4.036 -10.764  16.280  0.00  0.00    +0.046 A 
ATOM     20  C   UNL     1      -1.629 -10.601  16.145  0.00  0.00    +0.001 A 
ATOM     21  C   UNL     1      -2.787 -10.781  16.901  0.00  0.00    +0.004 A 
BRANCH  17   2
ATOM      2  O   UNL     1      -5.361 -10.556  14.321  0.00  0.00    -0.494 OA
ATOM     22  C   UNL     1      -6.441 -10.061  15.108  0.00  0.00    +0.277 C 
ENDBRANCH  17   2
ENDBRANCH  15  16
BRANCH  12   6
ATOM      3  N   UNL     1      -7.260  -9.604   9.330  0.00  0.00    -0.301 NA
ATOM      6  C   UNL     1      -5.072  -9.136  10.027  0.00  0.00    +0.092 C 
ATOM      7  C   UNL     1      -6.468  -9.490  10.556  0.00  0.00    +0.097 C 
ATOM      8  C   UNL     1      -5.047  -9.686   8.591  0.00  0.00    +0.029 C 
ATOM      9  C   UNL     1      -6.408 -10.341   8.397  0.00  0.00    +0.085 C 
BRANCH   3  10
ATOM     10  C   UNL     1      -8.538 -10.266   9.554  0.00  0.00    +0.087 C 
BRANCH  10  11
ATOM     11  C   UNL     1      -9.734  -9.325   9.328  0.00  0.00    -0.003 C 
ATOM     13  C   UNL     1     -10.420  -9.031  10.665  0.00  0.00    +0.008 C 
ATOM     14  C   UNL     1      -9.327  -8.009   8.659  0.00  0.00    +0.008 C 
ENDBRANCH  10  11
ENDBRANCH   3  10
ENDBRANCH  12   6
TORSDOF 5
ENDMDL
MODEL 5
REMARK VINA RESULT:      -3.8     25.534     26.789
REMARK  Name = 51137462
REMARK  8 active torsions:
REMARK  status: ('A' for Active; 'I' for Inactive)
REMARK    1  A    between atoms: O_2  and  C_17
REMARK    2  A    between atoms: O_2  and  C_22
REMARK    3  A    between atoms: N_3  and  C_10
REMARK    4  A    between atoms: C_6  and  C_12
REMARK    5  A    between atoms: C_10  and  C_11
REMARK    6  A    between atoms: C_11  and  C_13
REMARK    7  A    between atoms: C_11  and  C_14
REMARK    8  A    between atoms: C_15  and  C_16
REMARK                            x       y       z     vdW  Elec       q    Type
REMARK                         _______ _______ _______ _____ _____    ______ ____
ROOT
ATOM      1  O   UNL     1      16.461  -5.775  28.152  0.00  0.00    -0.420 OA
ATOM      4  N   UNL     1      15.891  -7.706  27.177  0.00  0.00    -0.112 NA
ATOM      5  N   UNL     1      15.299  -7.666  28.425  0.00  0.00    -0.107 NA
ATOM     12  C   UNL     1      16.559  -6.581  27.061  0.00  0.00    +0.222 A 
ATOM     15  C   UNL     1      15.659  -6.522  28.958  0.00  0.00    +0.252 A 
ENDROOT
BRANCH  15  16
ATOM     16  C   UNL     1      15.342  -5.950  30.235  0.00  0.00    +0.080 A 
ATOM     17  C   UNL     1      14.030  -5.932  30.706  0.00  0.00    +0.132 A 
ATOM     18  C   UNL     1      16.368  -5.406  31.008  0.00  0.00    +0.017 A 
ATOM     19  C   UNL     1      13.742  -5.369  31.949  0.00  0.00    +0.046 A 
ATOM     20  C   UNL     1      16.081  -4.843  32.251  0.00  0.00    +0.001 A 
ATOM     21  C   UNL     1      14.769  -4.825  32.722  0.00  0.00    +0.004 A 
BRANCH  17   2
ATOM      2  O   UNL     1      13.007  -6.456  29.971  0.00  0.00    -0.494 OA
ATOM     22  C   UNL     1      11.788  -6.725  30.660  0.00  0.00    +0.277 C 
ENDBRANCH  17   2
ENDBRANCH  15  16
BRANCH  12   6
ATOM      3  N   UNL     1      17.342  -4.683  24.026  0.00  0.00    -0.301 NA
ATOM      6  C   UNL     1      17.399  -6.076  25.910  0.00  0.00    +0.092 C 
ATOM      7  C   UNL     1      16.999  -4.668  25.449  0.00  0.00    +0.097 C 
ATOM      8  C   UNL     1      17.336  -6.937  24.637  0.00  0.00    +0.029 C 
ATOM      9  C   UNL     1      16.880  -5.984  23.540  0.00  0.00    +0.085 C 
BRANCH   3  10
ATOM     10  C   UNL     1      16.740  -3.574  23.298  0.00  0.00    +0.087 C 
BRANCH  10  11
ATOM     11  C   UNL     1      17.328  -2.214  23.710  0.00  0.00    -0.003 C 
ATOM     13  C   UNL     1      17.232  -1.233  22.538  0.00  0.00    +0.008 C 
ATOM     14  C   UNL     1      16.630  -1.620  24.937  0.00  0.00    +0.008 C 
ENDBRANCH  10  11
ENDBRANCH   3  10
ENDBRANCH  12   6
TORSDOF 5
ENDMDL
MODEL 6
REMARK VINA RESULT:      -3.1     25.530     27.634
REMARK  Name = 51137462
REMARK  8 active torsions:
REMARK  status: ('A' for Active; 'I' for Inactive)
REMARK    1  A    between atoms: O_2  and  C_17
REMARK    2  A    between atoms: O_2  and  C_22
REMARK    3  A    between atoms: N_3  and  C_10
REMARK    4  A    between atoms: C_6  and  C_12
REMARK    5  A    between atoms: C_10  and  C_11
REMARK    6  A    between atoms: C_11  and  C_13
REMARK    7  A    between atoms: C_11  and  C_14
REMARK    8  A    between atoms: C_15  and  C_16
REMARK                            x       y       z     vdW  Elec       q    Type
REMARK                         _______ _______ _______ _____ _____    ______ ____
ROOT
ATOM      1  O   UNL     1      15.817  -6.314  29.101  0.00  0.00    -0.420 OA
ATOM      4  N   UNL     1      16.717  -4.555  30.150  0.00  0.00    -0.112 NA
ATOM      5  N   UNL     1      17.307  -4.658  28.905  0.00  0.00    -0.107 NA
ATOM     12  C   UNL     1      15.853  -5.542  30.221  0.00  0.00    +0.222 A 
ATOM     15  C   UNL     1      16.751  -5.698  28.327  0.00  0.00    +0.252 A 
ENDROOT
BRANCH  15  16
ATOM     16  C   UNL     1      16.974  -6.272  27.032  0.00  0.00    +0.080 A 
ATOM     17  C   UNL     1      17.150  -7.647  26.879  0.00  0.00    +0.132 A 
ATOM     18  C   UNL     1      17.012  -5.435  25.916  0.00  0.00    +0.017 A 
ATOM     19  C   UNL     1      17.366  -8.186  25.611  0.00  0.00    +0.046 A 
ATOM     20  C   UNL     1      17.229  -5.974  24.648  0.00  0.00    +0.001 A 
ATOM     21  C   UNL     1      17.405  -7.349  24.495  0.00  0.00    +0.004 A 
BRANCH  17   2
ATOM      2  O   UNL     1      17.117  -8.489  27.952  0.00  0.00    -0.494 OA
ATOM     22  C   UNL     1      16.306  -9.655  27.834  0.00  0.00    +0.277 C 
ENDBRANCH  17   2
ENDBRANCH  15  16
BRANCH  12   6
ATOM      3  N   UNL     1      12.760  -6.714  31.797  0.00  0.00    -0.301 NA
ATOM      6  C   UNL     1      14.922  -5.927  31.347  0.00  0.00    +0.092 C 
ATOM      7  C   UNL     1      13.915  -7.013  30.947  0.00  0.00    +0.097 C 
ATOM      8  C   UNL     1      14.059  -4.776  31.894  0.00  0.00    +0.029 C 
ATOM      9  C   UNL     1      12.622  -5.259  31.748  0.00  0.00    +0.085 C 
BRANCH   3  10
ATOM     10  C   UNL     1      11.553  -7.401  31.356  0.00  0.00    +0.087 C 
BRANCH  10  11
ATOM     11  C   UNL     1      10.980  -8.331  32.438  0.00  0.00    -0.003 C 
ATOM     13  C   UNL     1       9.599  -7.831  32.872  0.00  0.00    +0.008 C 
ATOM     14  C   UNL     1      10.875  -9.785  31.966  0.00  0.00    +0.008 C 
ENDBRANCH  10  11
ENDBRANCH   3  10
ENDBRANCH  12   6
TORSDOF 5
ENDMDL
MODEL 7
REMARK VINA RESULT:      -2.9     14.626     16.318
REMARK  Name = 51137462
REMARK  8 active torsions:
REMARK  status: ('A' for Active; 'I' for Inactive)
REMARK    1  A    between atoms: O_2  and  C_17
REMARK    2  A    between atoms: O_2  and  C_22
REMARK    3  A    between atoms: N_3  and  C_10
REMARK    4  A    between atoms: C_6  and  C_12
REMARK    5  A    between atoms: C_10  and  C_11
REMARK    6  A    between atoms: C_11  and  C_13
REMARK    7  A    between atoms: C_11  and  C_14
REMARK    8  A    between atoms: C_15  and  C_16
REMARK                            x       y       z     vdW  Elec       q    Type
REMARK                         _______ _______ _______ _____ _____    ______ ____
ROOT
ATOM      1  O   UNL     1      -3.850   1.295  24.703  0.00  0.00    -0.420 OA
ATOM      4  N   UNL     1      -5.987   1.931  24.893  0.00  0.00    -0.112 NA
ATOM      5  N   UNL     1      -5.961   0.556  24.748  0.00  0.00    -0.107 NA
ATOM     12  C   UNL     1      -4.733   2.318  24.861  0.00  0.00    +0.222 A 
ATOM     15  C   UNL     1      -4.694   0.229  24.640  0.00  0.00    +0.252 A 
ENDROOT
BRANCH  15  16
ATOM     16  C   UNL     1      -4.075  -1.054  24.471  0.00  0.00    +0.080 A 
ATOM     17  C   UNL     1      -2.839  -1.335  25.052  0.00  0.00    +0.132 A 
ATOM     18  C   UNL     1      -4.727  -2.026  23.713  0.00  0.00    +0.017 A 
ATOM     19  C   UNL     1      -2.254  -2.588  24.875  0.00  0.00    +0.046 A 
ATOM     20  C   UNL     1      -4.141  -3.280  23.534  0.00  0.00    +0.001 A 
ATOM     21  C   UNL     1      -2.905  -3.561  24.115  0.00  0.00    +0.004 A 
BRANCH  17   2
ATOM      2  O   UNL     1      -2.179  -0.403  25.799  0.00  0.00    -0.494 OA
ATOM     22  C   UNL     1      -0.762  -0.523  25.877  0.00  0.00    +0.277 C 
ENDBRANCH  17   2
ENDBRANCH  15  16
BRANCH  12   6
ATOM      3  N   UNL     1      -2.129   4.886  25.096  0.00  0.00    -0.301 NA
ATOM      6  C   UNL     1      -4.153   3.710  24.973  0.00  0.00    +0.092 C 
ATOM      7  C   UNL     1      -2.780   3.842  24.301  0.00  0.00    +0.097 C 
ATOM      8  C   UNL     1      -3.934   4.205  26.412  0.00  0.00    +0.029 C 
ATOM      9  C   UNL     1      -2.455   4.561  26.485  0.00  0.00    +0.085 C 
BRANCH   3  10
ATOM     10  C   UNL     1      -0.692   4.947  24.863  0.00  0.00    +0.087 C 
BRANCH  10  11
ATOM     11  C   UNL     1      -0.048   3.551  24.806  0.00  0.00    -0.003 C 
ATOM     13  C   UNL     1      -0.075   2.911  26.196  0.00  0.00    +0.008 C 
ATOM     14  C   UNL     1      -0.740   2.627  23.800  0.00  0.00    +0.008 C 
ENDBRANCH  10  11
ENDBRANCH   3  10
ENDBRANCH  12   6
TORSDOF 5
ENDMDL
MODEL 8
REMARK VINA RESULT:      -2.9     15.182     16.046
REMARK  Name = 51137462
REMARK  8 active torsions:
REMARK  status: ('A' for Active; 'I' for Inactive)
REMARK    1  A    between atoms: O_2  and  C_17
REMARK    2  A    between atoms: O_2  and  C_22
REMARK    3  A    between atoms: N_3  and  C_10
REMARK    4  A    between atoms: C_6  and  C_12
REMARK    5  A    between atoms: C_10  and  C_11
REMARK    6  A    between atoms: C_11  and  C_13
REMARK    7  A    between atoms: C_11  and  C_14
REMARK    8  A    between atoms: C_15  and  C_16
REMARK                            x       y       z     vdW  Elec       q    Type
REMARK                         _______ _______ _______ _____ _____    ______ ____
ROOT
ATOM      1  O   UNL     1      -1.279   0.382  24.084  0.00  0.00    -0.420 OA
ATOM      4  N   UNL     1      -1.061  -1.370  25.458  0.00  0.00    -0.112 NA
ATOM      5  N   UNL     1      -2.142  -0.622  25.886  0.00  0.00    -0.107 NA
ATOM     12  C   UNL     1      -0.588  -0.746  24.403  0.00  0.00    +0.222 A 
ATOM     15  C   UNL     1      -2.232   0.390  25.055  0.00  0.00    +0.252 A 
ENDROOT
BRANCH  15  16
ATOM     16  C   UNL     1      -3.162   1.480  25.014  0.00  0.00    +0.080 A 
ATOM     17  C   UNL     1      -2.718   2.802  25.046  0.00  0.00    +0.132 A 
ATOM     18  C   UNL     1      -4.528   1.205  24.942  0.00  0.00    +0.017 A 
ATOM     19  C   UNL     1      -3.639   3.849  25.006  0.00  0.00    +0.046 A 
ATOM     20  C   UNL     1      -5.449   2.252  24.903  0.00  0.00    +0.001 A 
ATOM     21  C   UNL     1      -5.005   3.573  24.935  0.00  0.00    +0.004 A 
BRANCH  17   2
ATOM      2  O   UNL     1      -1.388   3.101  25.116  0.00  0.00    -0.494 OA
ATOM     22  C   UNL     1      -1.033   4.480  25.070  0.00  0.00    +0.277 C 
ENDBRANCH  17   2
ENDBRANCH  15  16
BRANCH  12   6
ATOM      3  N   UNL     1       2.613  -0.271  22.686  0.00  0.00    -0.301 NA
ATOM      6  C   UNL     1       0.587  -1.102  23.522  0.00  0.00    +0.092 C 
ATOM      7  C   UNL     1       1.888  -0.409  23.951  0.00  0.00    +0.097 C 
ATOM      8  C   UNL     1       0.418  -0.732  22.039  0.00  0.00    +0.029 C 
ATOM      9  C   UNL     1       1.606   0.165  21.719  0.00  0.00    +0.085 C 
BRANCH   3  10
ATOM     10  C   UNL     1       3.727   0.662  22.784  0.00  0.00    +0.087 C 
BRANCH  10  11
ATOM     11  C   UNL     1       5.033  -0.027  23.214  0.00  0.00    -0.003 C 
ATOM     13  C   UNL     1       5.757   0.837  24.251  0.00  0.00    +0.008 C 
ATOM     14  C   UNL     1       4.797  -1.428  23.786  0.00  0.00    +0.008 C 
ENDBRANCH  10  11
ENDBRANCH   3  10
ENDBRANCH  12   6
TORSDOF 5
ENDMDL
MODEL 9
REMARK VINA RESULT:      -2.7     15.282     16.149
REMARK  Name = 51137462
REMARK  8 active torsions:
REMARK  status: ('A' for Active; 'I' for Inactive)
REMARK    1  A    between atoms: O_2  and  C_17
REMARK    2  A    between atoms: O_2  and  C_22
REMARK    3  A    between atoms: N_3  and  C_10
REMARK    4  A    between atoms: C_6  and  C_12
REMARK    5  A    between atoms: C_10  and  C_11
REMARK    6  A    between atoms: C_11  and  C_13
REMARK    7  A    between atoms: C_11  and  C_14
REMARK    8  A    between atoms: C_15  and  C_16
REMARK                            x       y       z     vdW  Elec       q    Type
REMARK                         _______ _______ _______ _____ _____    ______ ____
ROOT
ATOM      1  O   UNL     1      -0.801   0.855  24.169  0.00  0.00    -0.420 OA
ATOM      4  N   UNL     1      -1.552  -1.178  24.727  0.00  0.00    -0.112 NA
ATOM      5  N   UNL     1      -2.443  -0.243  25.219  0.00  0.00    -0.107 NA
ATOM     12  C   UNL     1      -0.610  -0.492  24.121  0.00  0.00    +0.222 A 
ATOM     15  C   UNL     1      -1.965   0.929  24.870  0.00  0.00    +0.252 A 
ENDROOT
BRANCH  15  16
ATOM     16  C   UNL     1      -2.471   2.249  25.110  0.00  0.00    +0.080 A 
ATOM     17  C   UNL     1      -3.836   2.519  25.025  0.00  0.00    +0.132 A 
ATOM     18  C   UNL     1      -1.577   3.271  25.432  0.00  0.00    +0.017 A 
ATOM     19  C   UNL     1      -4.309   3.810  25.260  0.00  0.00    +0.046 A 
ATOM     20  C   UNL     1      -2.049   4.562  25.667  0.00  0.00    +0.001 A 
ATOM     21  C   UNL     1      -3.414   4.832  25.581  0.00  0.00    +0.004 A 
BRANCH  17   2
ATOM      2  O   UNL     1      -4.734   1.540  24.712  0.00  0.00    -0.494 OA
ATOM     22  C   UNL     1      -6.098   1.783  25.044  0.00  0.00    +0.277 C 
ENDBRANCH  17   2
ENDBRANCH  15  16
BRANCH  12   6
ATOM      3  N   UNL     1       2.732  -0.303  22.631  0.00  0.00    -0.301 NA
ATOM      6  C   UNL     1       0.624  -0.982  23.399  0.00  0.00    +0.092 C 
ATOM      7  C   UNL     1       1.903  -0.255  23.837  0.00  0.00    +0.097 C 
ATOM      8  C   UNL     1       0.586  -0.819  21.870  0.00  0.00    +0.029 C 
ATOM      9  C   UNL     1       1.819   0.008  21.532  0.00  0.00    +0.085 C 
BRANCH   3  10
ATOM     10  C   UNL     1       3.858   0.619  22.695  0.00  0.00    +0.087 C 
BRANCH  10  11
ATOM     11  C   UNL     1       5.130  -0.045  23.250  0.00  0.00    -0.003 C 
ATOM     13  C   UNL     1       5.740   0.839  24.341  0.00  0.00    +0.008 C 
ATOM     14  C   UNL     1       4.864  -1.445  23.810  0.00  0.00    +0.008 C 
ENDBRANCH  10  11
ENDBRANCH   3  10
ENDBRANCH  12   6
TORSDOF 5
ENDMDL
MODEL 10
REMARK VINA RESULT:      -2.6     14.757     16.541
REMARK  Name = 51137462
REMARK  8 active torsions:
REMARK  status: ('A' for Active; 'I' for Inactive)
REMARK    1  A    between atoms: O_2  and  C_17
REMARK    2  A    between atoms: O_2  and  C_22
REMARK    3  A    between atoms: N_3  and  C_10
REMARK    4  A    between atoms: C_6  and  C_12
REMARK    5  A    between atoms: C_10  and  C_11
REMARK    6  A    between atoms: C_11  and  C_13
REMARK    7  A    between atoms: C_11  and  C_14
REMARK    8  A    between atoms: C_15  and  C_16
REMARK                            x       y       z     vdW  Elec       q    Type
REMARK                         _______ _______ _______ _____ _____    ______ ____
ROOT
ATOM      1  O   UNL     1      -1.587   0.914  25.043  0.00  0.00    -0.420 OA
ATOM      4  N   UNL     1       0.558   1.140  24.448  0.00  0.00    -0.112 NA
ATOM      5  N   UNL     1       0.139  -0.120  24.066  0.00  0.00    -0.107 NA
ATOM     12  C   UNL     1      -0.482   1.708  25.014  0.00  0.00    +0.222 A 
ATOM     15  C   UNL     1      -1.119  -0.208  24.433  0.00  0.00    +0.252 A 
ENDROOT
BRANCH  15  16
ATOM     16  C   UNL     1      -2.056  -1.284  24.291  0.00  0.00    +0.080 A 
ATOM     17  C   UNL     1      -3.410  -1.030  24.074  0.00  0.00    +0.132 A 
ATOM     18  C   UNL     1      -1.597  -2.599  24.374  0.00  0.00    +0.017 A 
ATOM     19  C   UNL     1      -4.306  -2.091  23.940  0.00  0.00    +0.046 A 
ATOM     20  C   UNL     1      -2.493  -3.660  24.241  0.00  0.00    +0.001 A 
ATOM     21  C   UNL     1      -3.847  -3.406  24.024  0.00  0.00    +0.004 A 
BRANCH  17   2
ATOM      2  O   UNL     1      -3.887   0.245  23.989  0.00  0.00    -0.494 OA
ATOM     22  C   UNL     1      -4.855   0.639  24.957  0.00  0.00    +0.277 C 
ENDBRANCH  17   2
ENDBRANCH  15  16
BRANCH  12   6
ATOM      3  N   UNL     1      -2.124   4.848  25.947  0.00  0.00    -0.301 NA
ATOM      6  C   UNL     1      -0.613   3.086  25.623  0.00  0.00    +0.092 C 
ATOM      7  C   UNL     1      -2.037   3.395  26.103  0.00  0.00    +0.097 C 
ATOM      8  C   UNL     1      -0.259   4.246  24.677  0.00  0.00    +0.029 C 
ATOM      9  C   UNL     1      -1.502   5.126  24.652  0.00  0.00    +0.085 C 
BRANCH   3  10
ATOM     10  C   UNL     1      -3.496   5.333  26.018  0.00  0.00    +0.087 C 
BRANCH  10  11
ATOM     11  C   UNL     1      -4.511   4.299  25.502  0.00  0.00    -0.003 C 
ATOM     13  C   UNL     1      -5.934   4.836  25.683  0.00  0.00    +0.008 C 
ATOM     14  C   UNL     1      -4.282   3.933  24.033  0.00  0.00    +0.008 C 
ENDBRANCH  10  11
ENDBRANCH   3  10
ENDBRANCH  12   6
TORSDOF 5
ENDMDL
