MODEL 1
REMARK VINA RESULT:       4.7      0.000      0.000
REMARK  Name = 7144220
REMARK  7 active torsions:
REMARK  status: ('A' for Active; 'I' for Inactive)
REMARK    1  A    between atoms: S_1  and  C_27
REMARK    2  A    between atoms: S_1  and  C_28
REMARK    3  A    between atoms: N_6  and  C_20
REMARK    4  A    between atoms: N_6  and  C_25
REMARK    5  A    between atoms: N_6  and  C_26
REMARK    6  A    between atoms: C_14  and  C_19
REMARK    7  A    between atoms: C_16  and  C_20
REMARK                            x       y       z     vdW  Elec       q    Type
REMARK                         _______ _______ _______ _____ _____    ______ ____
ROOT
ATOM      2  O   UNL     1      -3.289   4.217  27.215  0.00  0.00    -0.268 OA
ATOM      3  O   UNL     1      -5.487  -0.549  24.875  0.00  0.00    -0.274 OA
ATOM      4  N   UNL     1      -3.951   0.738  23.701  0.00  0.00    -0.299 N 
ATOM      5  N   UNL     1      -2.669   3.252  25.173  0.00  0.00    -0.311 N 
ATOM      7  C   UNL     1      -4.290   3.152  23.189  0.00  0.00    +0.027 C 
ATOM      8  C   UNL     1      -2.044   2.172  22.989  0.00  0.00    +0.054 C 
ATOM      9  C   UNL     1      -3.027   3.148  22.343  0.00  0.00    +0.018 C 
ATOM     10  C   UNL     1      -4.910   1.746  23.251  0.00  0.00    +0.113 C 
ATOM     11  C   UNL     1      -3.942   3.685  24.580  0.00  0.00    +0.130 C 
ATOM     12  C   UNL     1      -2.659   0.757  23.001  0.00  0.00    +0.117 C 
ATOM     13  C   UNL     1      -1.676   2.601  24.412  0.00  0.00    +0.034 A 
ATOM     14  C   UNL     1      -0.458   2.354  24.960  0.00  0.00    +0.002 A 
ATOM     15  C   UNL     1      -2.464   3.636  26.510  0.00  0.00    +0.252 A 
ATOM     16  C   UNL     1      -4.325  -0.187  24.675  0.00  0.00    +0.230 C 
ATOM     17  C   UNL     1      -0.210   2.734  26.339  0.00  0.00    +0.015 A 
ATOM     18  C   UNL     1      -1.139   3.323  27.092  0.00  0.00    +0.071 A 
ENDROOT
BRANCH  14  19
ATOM     19  C   UNL     1       0.621   1.692  24.195  0.00  0.00    -0.016 A 
ATOM     21  C   UNL     1       0.507   0.345  23.866  0.00  0.00    +0.009 A 
ATOM     22  C   UNL     1       1.743   2.420  23.811  0.00  0.00    +0.009 A 
ATOM     23  C   UNL     1       1.525  -0.280  23.145  0.00  0.00    +0.015 A 
ATOM     24  C   UNL     1       2.761   1.795  23.090  0.00  0.00    +0.015 A 
ATOM     27  C   UNL     1       2.651   0.445  22.757  0.00  0.00    +0.008 A 
BRANCH  27   1
ATOM      1  S   UNL     1       3.951  -0.354  21.837  0.00  0.00    -0.129 S 
ATOM     28  C   UNL     1       5.379  -0.115  22.930  0.00  0.00    +0.090 C 
ENDBRANCH  27   1
ENDBRANCH  14  19
BRANCH  16  20
ATOM     20  C   UNL     1      -3.219  -0.754  25.529  0.00  0.00    +0.180 C 
BRANCH  20   6
ATOM      6  N   UNL     1      -2.561  -1.759  24.723  0.00  0.00    -0.300 NA
ATOM     25  C   UNL     1      -3.394  -2.960  24.594  0.00  0.00    +0.105 C 
ATOM     26  C   UNL     1      -1.255  -2.119  25.292  0.00  0.00    +0.105 C 
ENDBRANCH  20   6
ENDBRANCH  16  20
TORSDOF 4
ENDMDL
