MODEL 1
REMARK VINA RESULT:       8.9      0.000      0.000
REMARK  Name = 44716941
REMARK  16 active torsions:
REMARK  status: ('A' for Active; 'I' for Inactive)
REMARK    1  A    between atoms: O_1  and  C_17
REMARK    2  A    between atoms: O_1  and  C_26
REMARK    3  A    between atoms: O_2  and  C_18
REMARK    4  A    between atoms: O_3  and  C_22
REMARK    5  A    between atoms: O_6  and  C_34
REMARK    6  A    between atoms: O_6  and  C_37
REMARK    7  A    between atoms: O_7  and  C_35
REMARK    8  A    between atoms: O_7  and  C_38
REMARK    9  A    between atoms: O_8  and  C_36
REMARK   10  A    between atoms: O_8  and  C_39
REMARK   11  A    between atoms: N_10  and  C_31
REMARK   12  A    between atoms: C_11  and  C_21
REMARK   13  A    between atoms: C_13  and  C_22
REMARK   14  A    between atoms: C_13  and  C_24
REMARK   15  A    between atoms: C_14  and  C_23
REMARK   16  A    between atoms: C_23  and  C_25
REMARK                            x       y       z     vdW  Elec       q    Type
REMARK                         _______ _______ _______ _____ _____    ______ ____
ROOT
ATOM     11  C   UNL     1      -3.795   1.650  24.654  0.00  0.00    -0.023 C 
ATOM     12  C   UNL     1      -4.636   0.340  24.394  0.00  0.00    +0.007 C 
ATOM     13  C   UNL     1      -3.872  -1.031  24.541  0.00  0.00    +0.031 C 
ATOM     14  C   UNL     1      -4.667   2.870  24.140  0.00  0.00    +0.032 C 
ATOM     15  C   UNL     1      -2.489   1.568  23.818  0.00  0.00    +0.011 C 
ATOM     16  C   UNL     1      -5.994   0.404  25.128  0.00  0.00    +0.007 C 
ATOM     17  C   UNL     1      -2.546  -0.960  23.726  0.00  0.00    +0.186 C 
ATOM     18  C   UNL     1      -6.075   2.930  24.776  0.00  0.00    +0.119 C 
ATOM     19  C   UNL     1      -1.706   0.277  24.024  0.00  0.00    +0.046 C 
ATOM     20  C   UNL     1      -6.821   1.602  24.661  0.00  0.00    +0.032 C 
ATOM     21  C   UNL     1      -3.401   1.850  26.138  0.00  0.00    +0.012 C 
ATOM     24  C   UNL     1      -4.739  -2.165  23.922  0.00  0.00    +0.017 C 
ENDROOT
BRANCH  18   2
ATOM      2  O   UNL     1      -5.999   3.321  26.144  0.00  0.00    -0.391 OA
ATOM     40  H   UNL     1      -6.597   2.746  26.651  0.00  0.00    +0.210 HD
ENDBRANCH  18   2
BRANCH  17   1
ATOM      1  O   UNL     1      -1.717  -2.097  23.963  0.00  0.00    -0.446 OA
BRANCH   1  26
ATOM      5  O   UNL     1       0.041  -2.178  25.424  0.00  0.00    -0.226 OA
ATOM     10  N   UNL     1       0.213  -1.153  23.326  0.00  0.00    -0.251 N 
ATOM     26  C   UNL     1      -0.425  -1.836  24.343  0.00  0.00    +0.405 C 
ATOM     42  H   UNL     1      -0.344  -0.959  22.497  0.00  0.00    +0.158 HD
BRANCH  10  31
ATOM     31  C   UNL     1       1.548  -0.688  23.293  0.00  0.00    +0.044 A 
ATOM     32  C   UNL     1       2.602  -1.579  23.493  0.00  0.00    +0.073 A 
ATOM     33  C   UNL     1       1.811   0.662  23.061  0.00  0.00    +0.073 A 
ATOM     34  C   UNL     1       3.127   1.121  23.029  0.00  0.00    +0.167 A 
ATOM     35  C   UNL     1       3.919  -1.121  23.459  0.00  0.00    +0.167 A 
ATOM     36  C   UNL     1       4.181   0.230  23.227  0.00  0.00    +0.204 A 
BRANCH  34   6
ATOM      6  O   UNL     1       3.370   2.442  22.801  0.00  0.00    -0.491 OA
ATOM     37  C   UNL     1       4.163   2.768  21.663  0.00  0.00    +0.277 C 
ENDBRANCH  34   6
BRANCH  35   7
ATOM      7  O   UNL     1       4.939  -2.001  23.656  0.00  0.00    -0.491 OA
ATOM     38  C   UNL     1       5.945  -1.626  24.595  0.00  0.00    +0.277 C 
ENDBRANCH  35   7
BRANCH  36   8
ATOM      8  O   UNL     1       5.468   0.678  23.197  0.00  0.00    -0.488 OA
ATOM     39  C   UNL     1       6.022   1.136  24.428  0.00  0.00    +0.277 C 
ENDBRANCH  36   8
ENDBRANCH  10  31
ENDBRANCH   1  26
ENDBRANCH  17   1
BRANCH  13  22
ATOM     22  C   UNL     1      -3.613  -1.455  26.002  0.00  0.00    +0.166 C 
BRANCH  22   3
ATOM      3  O   UNL     1      -3.328  -2.836  26.010  0.00  0.00    -0.394 OA
ATOM     41  H   UNL     1      -3.280  -3.117  26.940  0.00  0.00    +0.209 HD
ENDBRANCH  22   3
ENDBRANCH  13  22
BRANCH  14  23
ATOM     23  C   UNL     1      -3.986   4.243  24.249  0.00  0.00    +0.102 C 
BRANCH  23  25
ATOM      4  O   UNL     1      -3.445   4.498  26.555  0.00  0.00    -0.276 OA
ATOM      9  N   UNL     1      -1.716   3.969  25.116  0.00  0.00    -0.301 N 
ATOM     25  C   UNL     1      -3.036   4.249  25.419  0.00  0.00    +0.216 C 
ATOM     27  C   UNL     1      -0.675   3.942  26.133  0.00  0.00    +0.108 C 
ATOM     28  C   UNL     1      -1.169   3.663  23.798  0.00  0.00    +0.108 C 
ATOM     29  C   UNL     1       0.514   3.289  25.444  0.00  0.00    +0.020 C 
ATOM     30  C   UNL     1       0.340   3.717  23.992  0.00  0.00    +0.020 C 
ENDBRANCH  23  25
ENDBRANCH  14  23
TORSDOF 11
ENDMDL
MODEL 2
REMARK VINA RESULT:       8.9      0.023      1.842
REMARK  Name = 44716941
REMARK  16 active torsions:
REMARK  status: ('A' for Active; 'I' for Inactive)
REMARK    1  A    between atoms: O_1  and  C_17
REMARK    2  A    between atoms: O_1  and  C_26
REMARK    3  A    between atoms: O_2  and  C_18
REMARK    4  A    between atoms: O_3  and  C_22
REMARK    5  A    between atoms: O_6  and  C_34
REMARK    6  A    between atoms: O_6  and  C_37
REMARK    7  A    between atoms: O_7  and  C_35
REMARK    8  A    between atoms: O_7  and  C_38
REMARK    9  A    between atoms: O_8  and  C_36
REMARK   10  A    between atoms: O_8  and  C_39
REMARK   11  A    between atoms: N_10  and  C_31
REMARK   12  A    between atoms: C_11  and  C_21
REMARK   13  A    between atoms: C_13  and  C_22
REMARK   14  A    between atoms: C_13  and  C_24
REMARK   15  A    between atoms: C_14  and  C_23
REMARK   16  A    between atoms: C_23  and  C_25
REMARK                            x       y       z     vdW  Elec       q    Type
REMARK                         _______ _______ _______ _____ _____    ______ ____
ROOT
ATOM     11  C   UNL     1      -3.786   1.650  24.653  0.00  0.00    -0.023 C 
ATOM     12  C   UNL     1      -4.626   0.341  24.388  0.00  0.00    +0.007 C 
ATOM     13  C   UNL     1      -3.865  -1.032  24.539  0.00  0.00    +0.031 C 
ATOM     14  C   UNL     1      -4.655   2.870  24.134  0.00  0.00    +0.032 C 
ATOM     15  C   UNL     1      -2.476   1.567  23.823  0.00  0.00    +0.011 C 
ATOM     16  C   UNL     1      -5.989   0.405  25.114  0.00  0.00    +0.007 C 
ATOM     17  C   UNL     1      -2.535  -0.962  23.731  0.00  0.00    +0.186 C 
ATOM     18  C   UNL     1      -6.066   2.931  24.763  0.00  0.00    +0.119 C 
ATOM     19  C   UNL     1      -1.695   0.275  24.033  0.00  0.00    +0.046 C 
ATOM     20  C   UNL     1      -6.812   1.604  24.643  0.00  0.00    +0.032 C 
ATOM     21  C   UNL     1      -3.400   1.849  26.138  0.00  0.00    +0.012 C 
ATOM     24  C   UNL     1      -4.730  -2.165  23.915  0.00  0.00    +0.017 C 
ENDROOT
BRANCH  18   2
ATOM      2  O   UNL     1      -5.997   3.323  26.131  0.00  0.00    -0.391 OA
ATOM     40  H   UNL     1      -5.664   4.236  26.161  0.00  0.00    +0.210 HD
ENDBRANCH  18   2
BRANCH  17   1
ATOM      1  O   UNL     1      -1.707  -2.099  23.972  0.00  0.00    -0.446 OA
BRANCH   1  26
ATOM      5  O   UNL     1       0.061  -2.187  25.420  0.00  0.00    -0.226 OA
ATOM     10  N   UNL     1       0.217  -1.150  23.327  0.00  0.00    -0.251 N 
ATOM     26  C   UNL     1      -0.413  -1.840  24.345  0.00  0.00    +0.405 C 
ATOM     42  H   UNL     1      -0.346  -0.953  22.503  0.00  0.00    +0.158 HD
BRANCH  10  31
ATOM     31  C   UNL     1       1.551  -0.684  23.286  0.00  0.00    +0.044 A 
ATOM     32  C   UNL     1       1.812   0.667  23.063  0.00  0.00    +0.073 A 
ATOM     33  C   UNL     1       2.608  -1.577  23.469  0.00  0.00    +0.073 A 
ATOM     34  C   UNL     1       3.924  -1.118  23.428  0.00  0.00    +0.167 A 
ATOM     35  C   UNL     1       3.128   1.127  23.023  0.00  0.00    +0.167 A 
ATOM     36  C   UNL     1       4.184   0.235  23.206  0.00  0.00    +0.204 A 
BRANCH  34   6
ATOM      6  O   UNL     1       4.947  -2.000  23.608  0.00  0.00    -0.491 OA
ATOM     37  C   UNL     1       5.898  -1.690  24.623  0.00  0.00    +0.277 C 
ENDBRANCH  34   6
BRANCH  35   7
ATOM      7  O   UNL     1       3.369   2.450  22.805  0.00  0.00    -0.491 OA
ATOM     38  C   UNL     1       4.132   2.786  21.647  0.00  0.00    +0.277 C 
ENDBRANCH  35   7
BRANCH  36   8
ATOM      8  O   UNL     1       5.470   0.684  23.166  0.00  0.00    -0.488 OA
ATOM     39  C   UNL     1       6.046   1.108  24.399  0.00  0.00    +0.277 C 
ENDBRANCH  36   8
ENDBRANCH  10  31
ENDBRANCH   1  26
ENDBRANCH  17   1
BRANCH  13  22
ATOM     22  C   UNL     1      -3.614  -1.456  26.001  0.00  0.00    +0.166 C 
BRANCH  22   3
ATOM      3  O   UNL     1      -3.330  -2.837  26.011  0.00  0.00    -0.394 OA
ATOM     41  H   UNL     1      -4.036  -3.275  26.517  0.00  0.00    +0.209 HD
ENDBRANCH  22   3
ENDBRANCH  13  22
BRANCH  14  23
ATOM     23  C   UNL     1      -3.973   4.243  24.247  0.00  0.00    +0.102 C 
BRANCH  23  25
ATOM      4  O   UNL     1      -3.437   4.496  26.554  0.00  0.00    -0.276 OA
ATOM      9  N   UNL     1      -1.705   3.963  25.119  0.00  0.00    -0.301 N 
ATOM     25  C   UNL     1      -3.025   4.246  25.419  0.00  0.00    +0.216 C 
ATOM     27  C   UNL     1      -0.666   3.934  26.138  0.00  0.00    +0.108 C 
ATOM     28  C   UNL     1      -1.157   3.656  23.802  0.00  0.00    +0.108 C 
ATOM     29  C   UNL     1       0.522   3.277  25.451  0.00  0.00    +0.020 C 
ATOM     30  C   UNL     1       0.352   3.706  23.999  0.00  0.00    +0.020 C 
ENDBRANCH  23  25
ENDBRANCH  14  23
TORSDOF 11
ENDMDL
MODEL 3
REMARK VINA RESULT:      11.6      1.979      4.594
REMARK  Name = 44716941
REMARK  16 active torsions:
REMARK  status: ('A' for Active; 'I' for Inactive)
REMARK    1  A    between atoms: O_1  and  C_17
REMARK    2  A    between atoms: O_1  and  C_26
REMARK    3  A    between atoms: O_2  and  C_18
REMARK    4  A    between atoms: O_3  and  C_22
REMARK    5  A    between atoms: O_6  and  C_34
REMARK    6  A    between atoms: O_6  and  C_37
REMARK    7  A    between atoms: O_7  and  C_35
REMARK    8  A    between atoms: O_7  and  C_38
REMARK    9  A    between atoms: O_8  and  C_36
REMARK   10  A    between atoms: O_8  and  C_39
REMARK   11  A    between atoms: N_10  and  C_31
REMARK   12  A    between atoms: C_11  and  C_21
REMARK   13  A    between atoms: C_13  and  C_22
REMARK   14  A    between atoms: C_13  and  C_24
REMARK   15  A    between atoms: C_14  and  C_23
REMARK   16  A    between atoms: C_23  and  C_25
REMARK                            x       y       z     vdW  Elec       q    Type
REMARK                         _______ _______ _______ _____ _____    ______ ____
ROOT
ATOM     11  C   UNL     1      -4.128   1.703  24.745  0.00  0.00    -0.023 C 
ATOM     12  C   UNL     1      -4.110   2.801  25.878  0.00  0.00    +0.007 C 
ATOM     13  C   UNL     1      -2.913   3.828  25.850  0.00  0.00    +0.031 C 
ATOM     14  C   UNL     1      -5.209   0.623  25.165  0.00  0.00    +0.032 C 
ATOM     15  C   UNL     1      -2.729   1.031  24.692  0.00  0.00    +0.011 C 
ATOM     16  C   UNL     1      -5.505   3.443  26.045  0.00  0.00    +0.007 C 
ATOM     17  C   UNL     1      -1.576   3.039  25.713  0.00  0.00    +0.186 C 
ATOM     18  C   UNL     1      -6.608   1.225  25.434  0.00  0.00    +0.119 C 
ATOM     19  C   UNL     1      -1.575   2.020  24.579  0.00  0.00    +0.046 C 
ATOM     20  C   UNL     1      -6.557   2.396  26.412  0.00  0.00    +0.032 C 
ATOM     21  C   UNL     1      -4.441   2.268  23.339  0.00  0.00    +0.012 C 
ATOM     24  C   UNL     1      -2.866   4.592  27.204  0.00  0.00    +0.017 C 
ENDROOT
BRANCH  18   2
ATOM      2  O   UNL     1      -7.224   1.639  24.219  0.00  0.00    -0.391 OA
ATOM     40  H   UNL     1      -6.678   1.315  23.483  0.00  0.00    +0.210 HD
ENDBRANCH  18   2
BRANCH  17   1
ATOM      1  O   UNL     1      -0.466   3.910  25.495  0.00  0.00    -0.446 OA
BRANCH   1  26
ATOM      5  O   UNL     1       0.601   4.299  23.510  0.00  0.00    -0.226 OA
ATOM     10  N   UNL     1       0.902   2.316  24.717  0.00  0.00    -0.251 N 
ATOM     26  C   UNL     1       0.379   3.570  24.470  0.00  0.00    +0.405 C 
ATOM     42  H   UNL     1       0.597   1.863  25.575  0.00  0.00    +0.158 HD
BRANCH  10  31
ATOM     31  C   UNL     1       1.814   1.582  23.924  0.00  0.00    +0.044 A 
ATOM     32  C   UNL     1       3.174   1.594  24.232  0.00  0.00    +0.073 A 
ATOM     33  C   UNL     1       1.353   0.845  22.833  0.00  0.00    +0.073 A 
ATOM     34  C   UNL     1       2.252   0.121  22.050  0.00  0.00    +0.167 A 
ATOM     35  C   UNL     1       4.073   0.869  23.450  0.00  0.00    +0.167 A 
ATOM     36  C   UNL     1       3.612   0.132  22.359  0.00  0.00    +0.204 A 
BRANCH  34   6
ATOM      6  O   UNL     1       1.788  -0.595  20.987  0.00  0.00    -0.491 OA
ATOM     37  C   UNL     1       0.414  -0.973  21.011  0.00  0.00    +0.277 C 
ENDBRANCH  34   6
BRANCH  35   7
ATOM      7  O   UNL     1       5.399   0.890  23.761  0.00  0.00    -0.491 OA
ATOM     38  C   UNL     1       5.837  -0.001  24.785  0.00  0.00    +0.277 C 
ENDBRANCH  35   7
BRANCH  36   8
ATOM      8  O   UNL     1       4.491  -0.574  21.593  0.00  0.00    -0.488 OA
ATOM     39  C   UNL     1       5.850  -0.598  22.026  0.00  0.00    +0.277 C 
ENDBRANCH  36   8
ENDBRANCH  10  31
ENDBRANCH   1  26
ENDBRANCH  17   1
BRANCH  13  22
ATOM     22  C   UNL     1      -3.040   4.914  24.761  0.00  0.00    +0.166 C 
BRANCH  22   3
ATOM      3  O   UNL     1      -2.093   5.921  25.040  0.00  0.00    -0.394 OA
ATOM     41  H   UNL     1      -1.788   5.787  25.954  0.00  0.00    +0.209 HD
ENDBRANCH  22   3
ENDBRANCH  13  22
BRANCH  14  23
ATOM     23  C   UNL     1      -5.331  -0.575  24.211  0.00  0.00    +0.102 C 
BRANCH  23  25
ATOM      4  O   UNL     1      -3.671  -0.436  22.508  0.00  0.00    -0.276 OA
ATOM      9  N   UNL     1      -3.165  -1.700  24.375  0.00  0.00    -0.301 N 
ATOM     25  C   UNL     1      -3.984  -0.888  23.611  0.00  0.00    +0.216 C 
ATOM     27  C   UNL     1      -1.837  -2.099  23.934  0.00  0.00    +0.108 C 
ATOM     28  C   UNL     1      -3.473  -2.262  25.686  0.00  0.00    +0.108 C 
ATOM     29  C   UNL     1      -1.184  -2.686  25.176  0.00  0.00    +0.020 C 
ATOM     30  C   UNL     1      -2.367  -3.279  25.932  0.00  0.00    +0.020 C 
ENDBRANCH  23  25
ENDBRANCH  14  23
TORSDOF 11
ENDMDL
MODEL 4
REMARK VINA RESULT:      11.6      1.981      4.697
REMARK  Name = 44716941
REMARK  16 active torsions:
REMARK  status: ('A' for Active; 'I' for Inactive)
REMARK    1  A    between atoms: O_1  and  C_17
REMARK    2  A    between atoms: O_1  and  C_26
REMARK    3  A    between atoms: O_2  and  C_18
REMARK    4  A    between atoms: O_3  and  C_22
REMARK    5  A    between atoms: O_6  and  C_34
REMARK    6  A    between atoms: O_6  and  C_37
REMARK    7  A    between atoms: O_7  and  C_35
REMARK    8  A    between atoms: O_7  and  C_38
REMARK    9  A    between atoms: O_8  and  C_36
REMARK   10  A    between atoms: O_8  and  C_39
REMARK   11  A    between atoms: N_10  and  C_31
REMARK   12  A    between atoms: C_11  and  C_21
REMARK   13  A    between atoms: C_13  and  C_22
REMARK   14  A    between atoms: C_13  and  C_24
REMARK   15  A    between atoms: C_14  and  C_23
REMARK   16  A    between atoms: C_23  and  C_25
REMARK                            x       y       z     vdW  Elec       q    Type
REMARK                         _______ _______ _______ _____ _____    ______ ____
ROOT
ATOM     11  C   UNL     1      -4.138   1.717  24.729  0.00  0.00    -0.023 C 
ATOM     12  C   UNL     1      -4.106   2.799  25.877  0.00  0.00    +0.007 C 
ATOM     13  C   UNL     1      -2.910   3.826  25.849  0.00  0.00    +0.031 C 
ATOM     14  C   UNL     1      -5.214   0.630  25.148  0.00  0.00    +0.032 C 
ATOM     15  C   UNL     1      -2.740   1.046  24.649  0.00  0.00    +0.011 C 
ATOM     16  C   UNL     1      -5.499   3.438  26.071  0.00  0.00    +0.007 C 
ATOM     17  C   UNL     1      -1.575   3.040  25.684  0.00  0.00    +0.186 C 
ATOM     18  C   UNL     1      -6.609   1.228  25.442  0.00  0.00    +0.119 C 
ATOM     19  C   UNL     1      -1.587   2.038  24.536  0.00  0.00    +0.046 C 
ATOM     20  C   UNL     1      -6.546   2.385  26.436  0.00  0.00    +0.032 C 
ATOM     21  C   UNL     1      -4.469   2.301  23.335  0.00  0.00    +0.012 C 
ATOM     24  C   UNL     1      -2.847   4.572  27.213  0.00  0.00    +0.017 C 
ENDROOT
BRANCH  18   2
ATOM      2  O   UNL     1      -7.241   1.660  24.241  0.00  0.00    -0.391 OA
ATOM     40  H   UNL     1      -8.069   1.158  24.145  0.00  0.00    +0.210 HD
ENDBRANCH  18   2
BRANCH  17   1
ATOM      1  O   UNL     1      -0.468   3.914  25.465  0.00  0.00    -0.446 OA
BRANCH   1  26
ATOM      5  O   UNL     1       0.607   4.304  23.484  0.00  0.00    -0.226 OA
ATOM     10  N   UNL     1       0.901   2.319  24.689  0.00  0.00    -0.251 N 
ATOM     26  C   UNL     1       0.380   3.575  24.442  0.00  0.00    +0.405 C 
ATOM     42  H   UNL     1       0.591   1.865  25.545  0.00  0.00    +0.158 HD
BRANCH  10  31
ATOM     31  C   UNL     1       1.813   1.584  23.899  0.00  0.00    +0.044 A 
ATOM     32  C   UNL     1       1.354   0.843  22.810  0.00  0.00    +0.073 A 
ATOM     33  C   UNL     1       3.173   1.598  24.208  0.00  0.00    +0.073 A 
ATOM     34  C   UNL     1       4.073   0.872  23.429  0.00  0.00    +0.167 A 
ATOM     35  C   UNL     1       2.254   0.118  22.029  0.00  0.00    +0.167 A 
ATOM     36  C   UNL     1       3.614   0.132  22.339  0.00  0.00    +0.204 A 
BRANCH  34   6
ATOM      6  O   UNL     1       5.399   0.893  23.743  0.00  0.00    -0.491 OA
ATOM     37  C   UNL     1       5.823   0.064  24.822  0.00  0.00    +0.277 C 
ENDBRANCH  34   6
BRANCH  35   7
ATOM      7  O   UNL     1       1.793  -0.601  20.968  0.00  0.00    -0.491 OA
ATOM     38  C   UNL     1       0.413  -0.963  20.982  0.00  0.00    +0.277 C 
ENDBRANCH  35   7
BRANCH  36   8
ATOM      8  O   UNL     1       4.494  -0.578  21.578  0.00  0.00    -0.488 OA
ATOM     39  C   UNL     1       5.853  -0.595  22.008  0.00  0.00    +0.277 C 
ENDBRANCH  36   8
ENDBRANCH  10  31
ENDBRANCH   1  26
ENDBRANCH  17   1
BRANCH  13  22
ATOM     22  C   UNL     1      -3.051   4.928  24.777  0.00  0.00    +0.166 C 
BRANCH  22   3
ATOM      3  O   UNL     1      -2.089   5.922  25.048  0.00  0.00    -0.394 OA
ATOM     41  H   UNL     1      -2.055   6.039  26.013  0.00  0.00    +0.209 HD
ENDBRANCH  22   3
ENDBRANCH  13  22
BRANCH  14  23
ATOM     23  C   UNL     1      -5.347  -0.554  24.178  0.00  0.00    +0.102 C 
BRANCH  23  25
ATOM      4  O   UNL     1      -3.675  -0.469  22.483  0.00  0.00    -0.276 OA
ATOM      9  N   UNL     1      -3.190  -1.687  24.386  0.00  0.00    -0.301 N 
ATOM     25  C   UNL     1      -3.998  -0.890  23.596  0.00  0.00    +0.216 C 
ATOM     27  C   UNL     1      -1.861  -2.105  23.964  0.00  0.00    +0.108 C 
ATOM     28  C   UNL     1      -3.509  -2.214  25.709  0.00  0.00    +0.108 C 
ATOM     29  C   UNL     1      -1.219  -2.665  25.225  0.00  0.00    +0.020 C 
ATOM     30  C   UNL     1      -2.411  -3.231  25.987  0.00  0.00    +0.020 C 
ENDBRANCH  23  25
ENDBRANCH  14  23
TORSDOF 11
ENDMDL
