MODEL 1
REMARK VINA RESULT:      18.9      0.000      0.000
REMARK  Name = 11885871
REMARK  5 active torsions:
REMARK  status: ('A' for Active; 'I' for Inactive)
REMARK    1  A    between atoms: N_6  and  C_17
REMARK    2  A    between atoms: C_16  and  C_19
REMARK    3  A    between atoms: C_22  and  C_26
REMARK    4  A    between atoms: C_25  and  C_27
REMARK    5  A    between atoms: C_26  and  C_28
REMARK                            x       y       z     vdW  Elec       q    Type
REMARK                         _______ _______ _______ _____ _____    ______ ____
ROOT
ATOM      1  O   UNL     1      -2.011   1.496  21.748  0.00  0.00    -0.266 OA
ATOM      2  O   UNL     1      -2.735   5.274  25.208  0.00  0.00    -0.270 OA
ATOM      4  N   UNL     1      -4.251   3.561  25.699  0.00  0.00    -0.297 N 
ATOM      5  N   UNL     1      -3.469   1.346  23.567  0.00  0.00    -0.310 N 
ATOM      7  C   UNL     1      -5.594   2.765  23.760  0.00  0.00    +0.027 C 
ATOM      8  C   UNL     1      -5.000   1.197  25.562  0.00  0.00    +0.054 C 
ATOM      9  C   UNL     1      -6.118   1.610  24.606  0.00  0.00    +0.018 C 
ATOM     10  C   UNL     1      -5.200   3.953  24.657  0.00  0.00    +0.113 C 
ATOM     11  C   UNL     1      -4.415   2.264  22.916  0.00  0.00    +0.130 C 
ATOM     12  C   UNL     1      -4.645   2.380  26.485  0.00  0.00    +0.117 C 
ATOM     13  C   UNL     1      -3.765   0.755  24.800  0.00  0.00    +0.027 A 
ATOM     14  C   UNL     1      -2.941  -0.168  25.323  0.00  0.00    +0.024 A 
ATOM     15  C   UNL     1      -2.306   1.016  22.843  0.00  0.00    +0.273 A 
ATOM     16  C   UNL     1      -3.069   4.287  25.861  0.00  0.00    +0.247 C 
ATOM     17  C   UNL     1      -1.400   0.003  23.473  0.00  0.00    +0.099 A 
ATOM     18  C   UNL     1      -1.735  -0.549  24.644  0.00  0.00    +0.030 A 
ENDROOT
BRANCH  16  19
ATOM     19  C   UNL     1      -2.122   3.836  26.886  0.00  0.00    +0.037 A 
ATOM     20  C   UNL     1      -0.920   3.244  26.505  0.00  0.00    +0.013 A 
ATOM     21  C   UNL     1      -2.428   4.000  28.234  0.00  0.00    +0.013 A 
ATOM     23  C   UNL     1      -0.020   2.814  27.479  0.00  0.00    +0.009 A 
ATOM     24  C   UNL     1      -1.528   3.571  29.209  0.00  0.00    +0.009 A 
ATOM     25  C   UNL     1      -0.322   2.978  28.831  0.00  0.00    -0.018 A 
BRANCH  25  27
ATOM     27  C   UNL     1       0.613   2.532  29.841  0.00  0.00    -0.018 A 
ATOM     29  C   UNL     1       0.239   2.529  31.184  0.00  0.00    +0.008 A 
ATOM     30  C   UNL     1       1.889   2.106  29.471  0.00  0.00    +0.008 A 
ATOM     33  C   UNL     1       1.140   2.100  32.159  0.00  0.00    +0.001 A 
ATOM     34  C   UNL     1       2.790   1.676  30.445  0.00  0.00    +0.001 A 
ATOM     37  C   UNL     1       2.416   1.674  31.789  0.00  0.00    +0.000 A 
ENDBRANCH  25  27
ENDBRANCH  16  19
BRANCH  17   6
ATOM      3  O   UNL     1       1.133   1.314  23.706  0.00  0.00    -0.275 OA
ATOM      6  N   UNL     1      -0.254  -0.329  22.813  0.00  0.00    -0.281 N 
ATOM     22  C   UNL     1       0.949   0.349  22.969  0.00  0.00    +0.222 C 
ATOM     39  H   UNL     1      -0.358  -0.951  22.014  0.00  0.00    +0.155 HD
BRANCH  22  26
ATOM     26  C   UNL     1       2.038  -0.256  22.102  0.00  0.00    +0.131 C 
BRANCH  26  28
ATOM     28  C   UNL     1       3.383  -0.303  22.779  0.00  0.00    -0.039 A 
ATOM     31  C   UNL     1       4.209   0.811  22.734  0.00  0.00    +0.004 A 
ATOM     32  C   UNL     1       3.777  -1.459  23.437  0.00  0.00    +0.004 A 
ATOM     35  C   UNL     1       5.455   0.768  23.361  0.00  0.00    +0.000 A 
ATOM     36  C   UNL     1       5.021  -1.502  24.064  0.00  0.00    +0.000 A 
ATOM     38  C   UNL     1       5.861  -0.388  24.026  0.00  0.00    +0.000 A 
ENDBRANCH  26  28
ENDBRANCH  22  26
ENDBRANCH  17   6
TORSDOF 5
ENDMDL
