MODEL 1
REMARK VINA RESULT:       8.6      0.000      0.000
REMARK  Name = 7673840
REMARK  6 active torsions:
REMARK  status: ('A' for Active; 'I' for Inactive)
REMARK    1  A    between atoms: O_2  and  C_26
REMARK    2  A    between atoms: O_2  and  C_31
REMARK    3  A    between atoms: N_3  and  C_13
REMARK    4  A    between atoms: C_13  and  C_18
REMARK    5  A    between atoms: C_16  and  C_19
REMARK    6  A    between atoms: C_27  and  C_30
REMARK                            x       y       z     vdW  Elec       q    Type
REMARK                         _______ _______ _______ _____ _____    ______ ____
ROOT
ATOM      1  O   UNL     1      -0.245  -1.581  21.993  0.00  0.00    -0.267 OA
ATOM      3  N   UNL     1      -4.269  -0.343  24.717  0.00  0.00    -0.297 NA
ATOM      4  N   UNL     1      -1.548  -1.801  23.914  0.00  0.00    -0.311 N 
ATOM      6  C   UNL     1      -3.954  -2.679  23.861  0.00  0.00    +0.024 C 
ATOM      7  C   UNL     1      -2.944  -2.032  25.995  0.00  0.00    +0.050 C 
ATOM      8  C   UNL     1      -3.648  -3.175  25.268  0.00  0.00    +0.017 C 
ATOM      9  C   UNL     1      -4.859  -1.430  23.926  0.00  0.00    +0.090 C 
ATOM     10  C   UNL     1      -3.882  -0.805  26.058  0.00  0.00    +0.094 C 
ATOM     11  C   UNL     1      -2.632  -2.412  23.132  0.00  0.00    +0.130 C 
ATOM     12  C   UNL     1      -1.644  -1.672  25.301  0.00  0.00    +0.026 A 
ATOM     14  C   UNL     1      -0.598  -1.215  26.009  0.00  0.00    +0.022 A 
ATOM     15  C   UNL     1      -0.378  -1.450  23.211  0.00  0.00    +0.259 A 
ATOM     16  C   UNL     1       0.764  -0.909  24.028  0.00  0.00    +0.047 A 
ATOM     17  C   UNL     1       0.619  -0.823  25.358  0.00  0.00    +0.015 A 
ENDROOT
BRANCH  16  19
ATOM     19  C   UNL     1       2.018  -0.470  23.390  0.00  0.00    -0.011 A 
ATOM     22  C   UNL     1       3.246  -0.762  23.986  0.00  0.00    +0.027 A 
ATOM     23  C   UNL     1       1.978   0.240  22.189  0.00  0.00    +0.009 A 
ATOM     27  C   UNL     1       4.432  -0.346  23.381  0.00  0.00    +0.052 A 
ATOM     28  C   UNL     1       3.165   0.655  21.584  0.00  0.00    +0.002 A 
ATOM     29  C   UNL     1       4.392   0.363  22.180  0.00  0.00    +0.019 A 
BRANCH  27  30
ATOM      5  N   UNL     1       6.710  -0.887  24.489  0.00  0.00    -0.191 NA
ATOM     30  C   UNL     1       5.688  -0.644  23.992  0.00  0.00    +0.099 C 
ENDBRANCH  27  30
ENDBRANCH  16  19
BRANCH   3  13
ATOM     13  C   UNL     1      -5.176   0.798  24.798  0.00  0.00    +0.119 C 
BRANCH  13  18
ATOM     18  C   UNL     1      -4.436   2.096  24.944  0.00  0.00    -0.033 A 
ATOM     20  C   UNL     1      -3.139   2.205  24.456  0.00  0.00    +0.008 A 
ATOM     21  C   UNL     1      -5.053   3.174  25.566  0.00  0.00    +0.008 A 
ATOM     24  C   UNL     1      -2.450   3.411  24.591  0.00  0.00    +0.046 A 
ATOM     25  C   UNL     1      -4.364   4.380  25.702  0.00  0.00    +0.046 A 
ATOM     26  C   UNL     1      -3.063   4.497  25.215  0.00  0.00    +0.120 A 
BRANCH  26   2
ATOM      2  O   UNL     1      -2.390   5.674  25.348  0.00  0.00    -0.495 OA
ATOM     31  C   UNL     1      -1.032   5.698  24.912  0.00  0.00    +0.277 C 
ENDBRANCH  26   2
ENDBRANCH  13  18
ENDBRANCH   3  13
TORSDOF 5
ENDMDL
MODEL 2
REMARK VINA RESULT:       9.9      3.647      6.551
REMARK  Name = 7673840
REMARK  6 active torsions:
REMARK  status: ('A' for Active; 'I' for Inactive)
REMARK    1  A    between atoms: O_2  and  C_26
REMARK    2  A    between atoms: O_2  and  C_31
REMARK    3  A    between atoms: N_3  and  C_13
REMARK    4  A    between atoms: C_13  and  C_18
REMARK    5  A    between atoms: C_16  and  C_19
REMARK    6  A    between atoms: C_27  and  C_30
REMARK                            x       y       z     vdW  Elec       q    Type
REMARK                         _______ _______ _______ _____ _____    ______ ____
ROOT
ATOM      1  O   UNL     1      -2.062   3.551  28.301  0.00  0.00    -0.267 OA
ATOM      3  N   UNL     1      -4.583   1.602  24.428  0.00  0.00    -0.297 NA
ATOM      4  N   UNL     1      -2.657   3.564  26.046  0.00  0.00    -0.311 N 
ATOM      6  C   UNL     1      -5.067   3.920  25.253  0.00  0.00    +0.024 C 
ATOM      7  C   UNL     1      -3.286   3.574  23.610  0.00  0.00    +0.050 C 
ATOM      8  C   UNL     1      -4.415   4.519  24.014  0.00  0.00    +0.017 C 
ATOM      9  C   UNL     1      -5.617   2.513  24.934  0.00  0.00    +0.090 C 
ATOM     10  C   UNL     1      -3.871   2.182  23.280  0.00  0.00    +0.094 C 
ATOM     11  C   UNL     1      -4.043   3.908  26.395  0.00  0.00    +0.130 C 
ATOM     12  C   UNL     1      -2.251   3.467  24.714  0.00  0.00    +0.026 A 
ATOM     14  C   UNL     1      -0.958   3.264  24.416  0.00  0.00    +0.022 A 
ATOM     15  C   UNL     1      -1.747   3.439  27.115  0.00  0.00    +0.259 A 
ATOM     16  C   UNL     1      -0.310   3.177  26.751  0.00  0.00    +0.047 A 
ATOM     17  C   UNL     1       0.022   3.110  25.454  0.00  0.00    +0.015 A 
ENDROOT
BRANCH  16  19
ATOM     19  C   UNL     1       0.717   2.985  27.789  0.00  0.00    -0.011 A 
ATOM     22  C   UNL     1       0.341   2.694  29.102  0.00  0.00    +0.027 A 
ATOM     23  C   UNL     1       2.069   3.096  27.461  0.00  0.00    +0.009 A 
ATOM     27  C   UNL     1       1.316   2.513  30.084  0.00  0.00    +0.052 A 
ATOM     28  C   UNL     1       3.043   2.914  28.444  0.00  0.00    +0.002 A 
ATOM     29  C   UNL     1       2.666   2.624  29.755  0.00  0.00    +0.019 A 
BRANCH  27  30
ATOM      5  N   UNL     1       0.616   1.975  32.520  0.00  0.00    -0.191 NA
ATOM     30  C   UNL     1       0.929   2.217  31.427  0.00  0.00    +0.099 C 
ENDBRANCH  27  30
ENDBRANCH  16  19
BRANCH   3  13
ATOM     13  C   UNL     1      -5.151   0.301  24.089  0.00  0.00    +0.119 C 
BRANCH  13  18
ATOM     18  C   UNL     1      -4.148  -0.807  24.234  0.00  0.00    -0.033 A 
ATOM     20  C   UNL     1      -2.888  -0.528  24.751  0.00  0.00    +0.008 A 
ATOM     21  C   UNL     1      -4.488  -2.098  23.850  0.00  0.00    +0.008 A 
ATOM     24  C   UNL     1      -1.956  -1.557  24.886  0.00  0.00    +0.046 A 
ATOM     25  C   UNL     1      -3.555  -3.126  23.985  0.00  0.00    +0.046 A 
ATOM     26  C   UNL     1      -2.289  -2.855  24.502  0.00  0.00    +0.120 A 
BRANCH  26   2
ATOM      2  O   UNL     1      -1.378  -3.859  24.633  0.00  0.00    -0.495 OA
ATOM     31  C   UNL     1      -0.128  -3.527  25.234  0.00  0.00    +0.277 C 
ENDBRANCH  26   2
ENDBRANCH  13  18
ENDBRANCH   3  13
TORSDOF 5
ENDMDL
MODEL 3
REMARK VINA RESULT:      11.4      1.240      1.590
REMARK  Name = 7673840
REMARK  6 active torsions:
REMARK  status: ('A' for Active; 'I' for Inactive)
REMARK    1  A    between atoms: O_2  and  C_26
REMARK    2  A    between atoms: O_2  and  C_31
REMARK    3  A    between atoms: N_3  and  C_13
REMARK    4  A    between atoms: C_13  and  C_18
REMARK    5  A    between atoms: C_16  and  C_19
REMARK    6  A    between atoms: C_27  and  C_30
REMARK                            x       y       z     vdW  Elec       q    Type
REMARK                         _______ _______ _______ _____ _____    ______ ____
ROOT
ATOM      1  O   UNL     1      -0.074  -1.051  22.141  0.00  0.00    -0.267 OA
ATOM      3  N   UNL     1      -4.059  -0.134  25.044  0.00  0.00    -0.297 NA
ATOM      4  N   UNL     1      -1.536  -1.676  23.847  0.00  0.00    -0.311 N 
ATOM      6  C   UNL     1      -4.037  -2.070  23.450  0.00  0.00    +0.024 C 
ATOM      7  C   UNL     1      -3.104  -2.349  25.696  0.00  0.00    +0.050 C 
ATOM      8  C   UNL     1      -3.916  -3.049  24.611  0.00  0.00    +0.017 C 
ATOM      9  C   UNL     1      -4.745  -0.781  23.919  0.00  0.00    +0.090 C 
ATOM     10  C   UNL     1      -3.848  -1.074  26.155  0.00  0.00    +0.094 C 
ATOM     11  C   UNL     1      -2.638  -1.801  22.882  0.00  0.00    +0.130 C 
ATOM     12  C   UNL     1      -1.716  -2.001  25.193  0.00  0.00    +0.026 A 
ATOM     14  C   UNL     1      -0.670  -1.988  26.034  0.00  0.00    +0.022 A 
ATOM     15  C   UNL     1      -0.277  -1.312  23.328  0.00  0.00    +0.259 A 
ATOM     16  C   UNL     1       0.868  -1.272  24.303  0.00  0.00    +0.047 A 
ATOM     17  C   UNL     1       0.638  -1.611  25.580  0.00  0.00    +0.015 A 
ENDROOT
BRANCH  16  19
ATOM     19  C   UNL     1       2.218  -0.863  23.878  0.00  0.00    -0.011 A 
ATOM     22  C   UNL     1       2.420   0.392  23.300  0.00  0.00    +0.027 A 
ATOM     23  C   UNL     1       3.297  -1.730  24.051  0.00  0.00    +0.009 A 
ATOM     27  C   UNL     1       3.699   0.779  22.899  0.00  0.00    +0.052 A 
ATOM     28  C   UNL     1       4.576  -1.343  23.650  0.00  0.00    +0.002 A 
ATOM     29  C   UNL     1       4.777  -0.089  23.073  0.00  0.00    +0.019 A 
BRANCH  27  30
ATOM      5  N   UNL     1       4.070   3.107  21.824  0.00  0.00    -0.191 NA
ATOM     30  C   UNL     1       3.904   2.062  22.307  0.00  0.00    +0.099 C 
ENDBRANCH  27  30
ENDBRANCH  16  19
BRANCH   3  13
ATOM     13  C   UNL     1      -4.788   1.050  25.491  0.00  0.00    +0.119 C 
BRANCH  13  18
ATOM     18  C   UNL     1      -3.937   2.286  25.440  0.00  0.00    -0.033 A 
ATOM     20  C   UNL     1      -2.620   2.195  25.003  0.00  0.00    +0.008 A 
ATOM     21  C   UNL     1      -4.473   3.506  25.830  0.00  0.00    +0.008 A 
ATOM     24  C   UNL     1      -1.830   3.344  24.955  0.00  0.00    +0.046 A 
ATOM     25  C   UNL     1      -3.682   4.655  25.783  0.00  0.00    +0.046 A 
ATOM     26  C   UNL     1      -2.360   4.573  25.346  0.00  0.00    +0.120 A 
BRANCH  26   2
ATOM      2  O   UNL     1      -1.587   5.693  25.300  0.00  0.00    -0.495 OA
ATOM     31  C   UNL     1      -0.390   5.625  24.527  0.00  0.00    +0.277 C 
ENDBRANCH  26   2
ENDBRANCH  13  18
ENDBRANCH   3  13
TORSDOF 5
ENDMDL
MODEL 4
REMARK VINA RESULT:      11.5      2.140      5.153
REMARK  Name = 7673840
REMARK  6 active torsions:
REMARK  status: ('A' for Active; 'I' for Inactive)
REMARK    1  A    between atoms: O_2  and  C_26
REMARK    2  A    between atoms: O_2  and  C_31
REMARK    3  A    between atoms: N_3  and  C_13
REMARK    4  A    between atoms: C_13  and  C_18
REMARK    5  A    between atoms: C_16  and  C_19
REMARK    6  A    between atoms: C_27  and  C_30
REMARK                            x       y       z     vdW  Elec       q    Type
REMARK                         _______ _______ _______ _____ _____    ______ ____
ROOT
ATOM      1  O   UNL     1       0.903   2.615  25.700  0.00  0.00    -0.267 OA
ATOM      3  N   UNL     1      -4.050   1.862  25.474  0.00  0.00    -0.297 NA
ATOM      4  N   UNL     1      -1.187   3.083  24.777  0.00  0.00    -0.311 N 
ATOM      6  C   UNL     1      -3.109   4.089  26.140  0.00  0.00    +0.024 C 
ATOM      7  C   UNL     1      -3.438   3.582  23.768  0.00  0.00    +0.050 C 
ATOM      8  C   UNL     1      -3.541   4.692  24.810  0.00  0.00    +0.017 C 
ATOM      9  C   UNL     1      -4.028   2.904  26.507  0.00  0.00    +0.090 C 
ATOM     10  C   UNL     1      -4.382   2.421  24.155  0.00  0.00    +0.094 C 
ATOM     11  C   UNL     1      -1.633   3.681  26.043  0.00  0.00    +0.130 C 
ATOM     12  C   UNL     1      -2.009   3.086  23.648  0.00  0.00    +0.026 A 
ATOM     14  C   UNL     1      -1.541   2.637  22.472  0.00  0.00    +0.022 A 
ATOM     15  C   UNL     1       0.138   2.603  24.734  0.00  0.00    +0.259 A 
ATOM     16  C   UNL     1       0.622   2.074  23.411  0.00  0.00    +0.047 A 
ATOM     17  C   UNL     1      -0.208   2.118  22.359  0.00  0.00    +0.015 A 
ENDROOT
BRANCH  16  19
ATOM     19  C   UNL     1       1.974   1.507  23.264  0.00  0.00    -0.011 A 
ATOM     22  C   UNL     1       2.226   0.188  23.644  0.00  0.00    +0.027 A 
ATOM     23  C   UNL     1       3.006   2.291  22.745  0.00  0.00    +0.009 A 
ATOM     27  C   UNL     1       3.507  -0.347  23.505  0.00  0.00    +0.052 A 
ATOM     28  C   UNL     1       4.287   1.755  22.605  0.00  0.00    +0.002 A 
ATOM     29  C   UNL     1       4.537   0.437  22.986  0.00  0.00    +0.019 A 
BRANCH  27  30
ATOM      5  N   UNL     1       3.973  -2.795  24.213  0.00  0.00    -0.191 NA
ATOM     30  C   UNL     1       3.764  -1.697  23.895  0.00  0.00    +0.099 C 
ENDBRANCH  27  30
ENDBRANCH  16  19
BRANCH   3  13
ATOM     13  C   UNL     1      -4.970   0.787  25.833  0.00  0.00    +0.119 C 
BRANCH  13  18
ATOM     18  C   UNL     1      -4.505  -0.546  25.322  0.00  0.00    -0.033 A 
ATOM     20  C   UNL     1      -3.669  -1.329  26.110  0.00  0.00    +0.008 A 
ATOM     21  C   UNL     1      -4.913  -0.983  24.068  0.00  0.00    +0.008 A 
ATOM     24  C   UNL     1      -3.236  -2.568  25.635  0.00  0.00    +0.046 A 
ATOM     25  C   UNL     1      -4.481  -2.221  23.594  0.00  0.00    +0.046 A 
ATOM     26  C   UNL     1      -3.642  -3.013  24.377  0.00  0.00    +0.120 A 
BRANCH  26   2
ATOM      2  O   UNL     1      -3.219  -4.222  23.914  0.00  0.00    -0.495 OA
ATOM     31  C   UNL     1      -2.033  -4.234  23.121  0.00  0.00    +0.277 C 
ENDBRANCH  26   2
ENDBRANCH  13  18
ENDBRANCH   3  13
TORSDOF 5
ENDMDL
