MODEL 1
REMARK VINA RESULT:      -0.5      0.000      0.000
REMARK  Name = 45783955
REMARK  3 active torsions:
REMARK  status: ('A' for Active; 'I' for Inactive)
REMARK    1  A    between atoms: C_6  and  C_10
REMARK    2  A    between atoms: C_11  and  C_14
REMARK    3  A    between atoms: C_17  and  C_21
REMARK                            x       y       z     vdW  Elec       q    Type
REMARK                         _______ _______ _______ _____ _____    ______ ____
ROOT
ATOM      2  O   UNL     1      15.186  -4.621  23.396  0.00  0.00    -0.270 OA
ATOM      3  N   UNL     1      16.526  -5.127  25.223  0.00  0.00    -0.297 N 
ATOM      6  C   UNL     1      17.355  -5.961  27.293  0.00  0.00    +0.094 C 
ATOM      7  C   UNL     1      17.113  -7.129  26.326  0.00  0.00    +0.033 C 
ATOM      8  C   UNL     1      17.405  -4.761  26.335  0.00  0.00    +0.121 C 
ATOM      9  C   UNL     1      16.191  -6.542  25.265  0.00  0.00    +0.109 C 
ATOM     11  C   UNL     1      15.980  -4.282  24.271  0.00  0.00    +0.248 C 
ENDROOT
BRANCH   6  10
ATOM      1  O   UNL     1      15.360  -6.894  28.350  0.00  0.00    -0.439 OA
ATOM      4  N   UNL     1      16.183  -5.045  29.368  0.00  0.00    -0.213 NA
ATOM     10  C   UNL     1      16.303  -5.912  28.388  0.00  0.00    +0.201 A 
ATOM     12  C   UNL     1      15.068  -5.481  30.043  0.00  0.00    +0.110 A 
ATOM     13  C   UNL     1      14.561  -6.613  29.422  0.00  0.00    +0.155 A 
ATOM     15  C   UNL     1      14.419  -4.984  31.182  0.00  0.00    +0.035 A 
ATOM     16  C   UNL     1      13.438  -7.312  29.845  0.00  0.00    +0.049 A 
ATOM     17  C   UNL     1      13.280  -5.662  31.640  0.00  0.00    -0.048 A 
ATOM     18  C   UNL     1      12.801  -6.803  30.983  0.00  0.00    +0.007 A 
ATOM     21  C   UNL     1      12.566  -5.157  32.851  0.00  0.00    +0.044 C 
ENDBRANCH   6  10
BRANCH  11  14
ATOM      5  N   UNL     1      16.392  -0.767  25.523  0.00  0.00    -0.263 NA
ATOM     14  C   UNL     1      16.368  -2.863  24.318  0.00  0.00    +0.055 A 
ATOM     19  C   UNL     1      17.051  -2.271  23.261  0.00  0.00    +0.016 A 
ATOM     20  C   UNL     1      16.065  -2.075  25.416  0.00  0.00    +0.123 A 
ATOM     22  C   UNL     1      17.405  -0.929  23.334  0.00  0.00    +0.020 A 
ATOM     23  C   UNL     1      17.056  -0.227  24.476  0.00  0.00    +0.111 A 
ENDBRANCH  11  14
TORSDOF 2
ENDMDL
MODEL 2
REMARK VINA RESULT:      -0.2     16.582     17.590
REMARK  Name = 45783955
REMARK  3 active torsions:
REMARK  status: ('A' for Active; 'I' for Inactive)
REMARK    1  A    between atoms: C_6  and  C_10
REMARK    2  A    between atoms: C_11  and  C_14
REMARK    3  A    between atoms: C_17  and  C_21
REMARK                            x       y       z     vdW  Elec       q    Type
REMARK                         _______ _______ _______ _____ _____    ______ ____
ROOT
ATOM      2  O   UNL     1       1.349  -0.791  21.033  0.00  0.00    -0.270 OA
ATOM      3  N   UNL     1       0.504  -1.051  23.181  0.00  0.00    -0.297 N 
ATOM      6  C   UNL     1      -0.883  -1.015  25.115  0.00  0.00    +0.094 C 
ATOM      7  C   UNL     1      -1.487  -1.959  24.064  0.00  0.00    +0.033 C 
ATOM      8  C   UNL     1       0.571  -0.894  24.635  0.00  0.00    +0.121 C 
ATOM      9  C   UNL     1      -0.796  -1.554  22.768  0.00  0.00    +0.109 C 
ATOM     11  C   UNL     1       1.476  -0.710  22.254  0.00  0.00    +0.248 C 
ENDROOT
BRANCH   6  10
ATOM      1  O   UNL     1      -0.948   1.392  25.529  0.00  0.00    -0.439 OA
ATOM      4  N   UNL     1      -2.963   0.465  25.065  0.00  0.00    -0.213 NA
ATOM     10  C   UNL     1      -1.671   0.279  25.225  0.00  0.00    +0.201 A 
ATOM     12  C   UNL     1      -3.117   1.813  25.280  0.00  0.00    +0.110 A 
ATOM     13  C   UNL     1      -1.886   2.385  25.565  0.00  0.00    +0.155 A 
ATOM     15  C   UNL     1      -4.255   2.633  25.256  0.00  0.00    +0.035 A 
ATOM     16  C   UNL     1      -1.681   3.732  25.833  0.00  0.00    +0.049 A 
ATOM     17  C   UNL     1      -4.089   4.000  25.522  0.00  0.00    -0.048 A 
ATOM     18  C   UNL     1      -2.827   4.536  25.805  0.00  0.00    +0.007 A 
ATOM     21  C   UNL     1      -5.281   4.898  25.503  0.00  0.00    +0.044 C 
ENDBRANCH   6  10
BRANCH  11  14
ATOM      5  N   UNL     1       4.233   1.685  23.120  0.00  0.00    -0.263 NA
ATOM     14  C   UNL     1       2.755  -0.195  22.767  0.00  0.00    +0.055 A 
ATOM     19  C   UNL     1       3.680  -1.043  23.366  0.00  0.00    +0.016 A 
ATOM     20  C   UNL     1       3.077   1.148  22.669  0.00  0.00    +0.123 A 
ATOM     22  C   UNL     1       4.880  -0.530  23.843  0.00  0.00    +0.020 A 
ATOM     23  C   UNL     1       5.107   0.829  23.697  0.00  0.00    +0.111 A 
ENDBRANCH  11  14
TORSDOF 2
ENDMDL
MODEL 3
REMARK VINA RESULT:       0.6     16.400     17.388
REMARK  Name = 45783955
REMARK  3 active torsions:
REMARK  status: ('A' for Active; 'I' for Inactive)
REMARK    1  A    between atoms: C_6  and  C_10
REMARK    2  A    between atoms: C_11  and  C_14
REMARK    3  A    between atoms: C_17  and  C_21
REMARK                            x       y       z     vdW  Elec       q    Type
REMARK                         _______ _______ _______ _____ _____    ______ ____
ROOT
ATOM      2  O   UNL     1       1.570  -0.594  21.028  0.00  0.00    -0.270 OA
ATOM      3  N   UNL     1       0.666  -0.962  23.135  0.00  0.00    -0.297 N 
ATOM      6  C   UNL     1      -0.746  -0.965  25.051  0.00  0.00    +0.094 C 
ATOM      7  C   UNL     1      -1.418  -1.749  23.913  0.00  0.00    +0.033 C 
ATOM      8  C   UNL     1       0.721  -0.942  24.598  0.00  0.00    +0.121 C 
ATOM      9  C   UNL     1      -0.669  -1.298  22.666  0.00  0.00    +0.109 C 
ATOM     11  C   UNL     1       1.682  -0.634  22.252  0.00  0.00    +0.248 C 
ENDROOT
BRANCH   6  10
ATOM      1  O   UNL     1      -2.735   0.451  24.961  0.00  0.00    -0.439 OA
ATOM      4  N   UNL     1      -0.872   1.495  25.721  0.00  0.00    -0.213 NA
ATOM     10  C   UNL     1      -1.410   0.384  25.271  0.00  0.00    +0.201 A 
ATOM     12  C   UNL     1      -1.923   2.381  25.712  0.00  0.00    +0.110 A 
ATOM     13  C   UNL     1      -3.065   1.746  25.248  0.00  0.00    +0.155 A 
ATOM     15  C   UNL     1      -2.000   3.733  26.077  0.00  0.00    +0.035 A 
ATOM     16  C   UNL     1      -4.308   2.351  25.111  0.00  0.00    +0.049 A 
ATOM     17  C   UNL     1      -3.239   4.379  25.954  0.00  0.00    -0.048 A 
ATOM     18  C   UNL     1      -4.368   3.700  25.480  0.00  0.00    +0.007 A 
ATOM     21  C   UNL     1      -3.353   5.819  26.335  0.00  0.00    +0.044 C 
ENDBRANCH   6  10
BRANCH  11  14
ATOM      5  N   UNL     1       4.954  -0.989  24.055  0.00  0.00    -0.263 NA
ATOM     14  C   UNL     1       2.995  -0.294  22.822  0.00  0.00    +0.055 A 
ATOM     19  C   UNL     1       3.525   0.985  22.688  0.00  0.00    +0.016 A 
ATOM     20  C   UNL     1       3.743  -1.236  23.509  0.00  0.00    +0.123 A 
ATOM     22  C   UNL     1       4.768   1.278  23.237  0.00  0.00    +0.020 A 
ATOM     23  C   UNL     1       5.437   0.265  23.904  0.00  0.00    +0.111 A 
ENDBRANCH  11  14
TORSDOF 2
ENDMDL
MODEL 4
REMARK VINA RESULT:       3.2     15.618     16.910
REMARK  Name = 45783955
REMARK  3 active torsions:
REMARK  status: ('A' for Active; 'I' for Inactive)
REMARK    1  A    between atoms: C_6  and  C_10
REMARK    2  A    between atoms: C_11  and  C_14
REMARK    3  A    between atoms: C_17  and  C_21
REMARK                            x       y       z     vdW  Elec       q    Type
REMARK                         _______ _______ _______ _____ _____    ______ ____
ROOT
ATOM      2  O   UNL     1      -1.720   0.936  26.754  0.00  0.00    -0.270 OA
ATOM      3  N   UNL     1      -1.010   0.573  24.573  0.00  0.00    -0.297 N 
ATOM      6  C   UNL     1       0.185  -0.149  22.646  0.00  0.00    +0.094 C 
ATOM      7  C   UNL     1      -0.494  -1.355  23.314  0.00  0.00    +0.033 C 
ATOM      8  C   UNL     1      -0.598   1.028  23.245  0.00  0.00    +0.121 C 
ATOM      9  C   UNL     1      -0.816  -0.861  24.718  0.00  0.00    +0.109 C 
ATOM     11  C   UNL     1      -1.453   1.354  25.629  0.00  0.00    +0.248 C 
ENDROOT
BRANCH   6  10
ATOM      1  O   UNL     1       2.201  -1.290  23.422  0.00  0.00    -0.439 OA
ATOM      4  N   UNL     1       2.556   0.798  22.616  0.00  0.00    -0.213 NA
ATOM     10  C   UNL     1       1.687  -0.153  22.876  0.00  0.00    +0.201 A 
ATOM     12  C   UNL     1       3.751   0.254  23.022  0.00  0.00    +0.110 A 
ATOM     13  C   UNL     1       3.538  -1.024  23.516  0.00  0.00    +0.155 A 
ATOM     15  C   UNL     1       5.056   0.768  23.010  0.00  0.00    +0.035 A 
ATOM     16  C   UNL     1       4.533  -1.857  24.012  0.00  0.00    +0.049 A 
ATOM     17  C   UNL     1       6.088  -0.045  23.502  0.00  0.00    -0.048 A 
ATOM     18  C   UNL     1       5.829  -1.330  23.992  0.00  0.00    +0.007 A 
ATOM     21  C   UNL     1       7.489   0.474  23.502  0.00  0.00    +0.044 C 
ENDBRANCH   6  10
BRANCH  11  14
ATOM      5  N   UNL     1      -3.065   4.700  25.092  0.00  0.00    -0.263 NA
ATOM     14  C   UNL     1      -1.604   2.797  25.390  0.00  0.00    +0.055 A 
ATOM     19  C   UNL     1      -0.492   3.619  25.240  0.00  0.00    +0.016 A 
ATOM     20  C   UNL     1      -2.857   3.382  25.308  0.00  0.00    +0.123 A 
ATOM     22  C   UNL     1      -0.665   4.980  25.017  0.00  0.00    +0.020 A 
ATOM     23  C   UNL     1      -1.960   5.467  24.952  0.00  0.00    +0.111 A 
ENDBRANCH  11  14
TORSDOF 2
ENDMDL
MODEL 5
REMARK VINA RESULT:       3.5     18.323     19.920
REMARK  Name = 45783955
REMARK  3 active torsions:
REMARK  status: ('A' for Active; 'I' for Inactive)
REMARK    1  A    between atoms: C_6  and  C_10
REMARK    2  A    between atoms: C_11  and  C_14
REMARK    3  A    between atoms: C_17  and  C_21
REMARK                            x       y       z     vdW  Elec       q    Type
REMARK                         _______ _______ _______ _____ _____    ______ ____
ROOT
ATOM      2  O   UNL     1      -4.609   4.563  23.400  0.00  0.00    -0.270 OA
ATOM      3  N   UNL     1      -2.854   4.146  24.863  0.00  0.00    -0.297 N 
ATOM      6  C   UNL     1      -0.711   3.708  25.800  0.00  0.00    +0.094 C 
ATOM      7  C   UNL     1      -0.735   5.125  25.207  0.00  0.00    +0.033 C 
ATOM      8  C   UNL     1      -2.208   3.397  25.942  0.00  0.00    +0.121 C 
ATOM      9  C   UNL     1      -1.939   5.111  24.275  0.00  0.00    +0.109 C 
ATOM     11  C   UNL     1      -4.132   3.959  24.359  0.00  0.00    +0.248 C 
ENDROOT
BRANCH   6  10
ATOM      1  O   UNL     1      -0.493   1.566  24.646  0.00  0.00    -0.439 OA
ATOM      4  N   UNL     1       1.306   2.928  24.444  0.00  0.00    -0.213 NA
ATOM     10  C   UNL     1       0.102   2.755  24.941  0.00  0.00    +0.201 A 
ATOM     12  C   UNL     1       1.538   1.759  23.760  0.00  0.00    +0.110 A 
ATOM     13  C   UNL     1       0.438   0.922  23.881  0.00  0.00    +0.155 A 
ATOM     15  C   UNL     1       2.642   1.323  23.014  0.00  0.00    +0.035 A 
ATOM     16  C   UNL     1       0.338  -0.341  23.312  0.00  0.00    +0.049 A 
ATOM     17  C   UNL     1       2.578   0.052  22.423  0.00  0.00    -0.048 A 
ATOM     18  C   UNL     1       1.448  -0.761  22.571  0.00  0.00    +0.007 A 
ATOM     21  C   UNL     1       3.738  -0.440  21.622  0.00  0.00    +0.044 C 
ENDBRANCH   6  10
BRANCH  11  14
ATOM      5  N   UNL     1      -6.587   2.400  26.731  0.00  0.00    -0.263 NA
ATOM     14  C   UNL     1      -4.979   2.949  25.011  0.00  0.00    +0.055 A 
ATOM     19  C   UNL     1      -4.996   1.631  24.567  0.00  0.00    +0.016 A 
ATOM     20  C   UNL     1      -5.786   3.279  26.088  0.00  0.00    +0.123 A 
ATOM     22  C   UNL     1      -5.807   0.698  25.202  0.00  0.00    +0.020 A 
ATOM     23  C   UNL     1      -6.577   1.129  26.269  0.00  0.00    +0.111 A 
ENDBRANCH  11  14
TORSDOF 2
ENDMDL
