MODEL 1
REMARK VINA RESULT:       4.3      0.000      0.000
REMARK  Name = 11885115
REMARK  4 active torsions:
REMARK  status: ('A' for Active; 'I' for Inactive)
REMARK    1  A    between atoms: O_3  and  C_29
REMARK    2  A    between atoms: O_3  and  C_30
REMARK    3  A    between atoms: C_15  and  C_18
REMARK    4  A    between atoms: C_16  and  C_19
REMARK                            x       y       z     vdW  Elec       q    Type
REMARK                         _______ _______ _______ _____ _____    ______ ____
ROOT
ATOM      1  O   UNL     1       0.548   2.279  25.372  0.00  0.00    -0.267 OA
ATOM      2  O   UNL     1      -3.437  -0.438  27.043  0.00  0.00    -0.270 OA
ATOM      4  N   UNL     1      -4.234   0.928  25.320  0.00  0.00    -0.297 N 
ATOM      5  N   UNL     1      -1.562   2.325  24.380  0.00  0.00    -0.311 N 
ATOM      6  C   UNL     1      -3.612   3.324  25.549  0.00  0.00    +0.027 C 
ATOM      7  C   UNL     1      -3.841   2.329  23.309  0.00  0.00    +0.054 C 
ATOM      8  C   UNL     1      -4.117   3.585  24.134  0.00  0.00    +0.018 C 
ATOM      9  C   UNL     1      -4.343   2.117  26.165  0.00  0.00    +0.113 C 
ATOM     10  C   UNL     1      -2.093   3.116  25.499  0.00  0.00    +0.130 C 
ATOM     11  C   UNL     1      -4.609   1.135  23.911  0.00  0.00    +0.117 C 
ATOM     12  C   UNL     1      -2.358   2.012  23.275  0.00  0.00    +0.027 A 
ATOM     13  C   UNL     1      -1.822   1.396  22.210  0.00  0.00    +0.022 A 
ATOM     14  C   UNL     1      -0.195   1.992  24.432  0.00  0.00    +0.259 A 
ATOM     15  C   UNL     1      -3.751  -0.263  25.867  0.00  0.00    +0.247 C 
ATOM     16  C   UNL     1       0.366   1.260  23.242  0.00  0.00    +0.047 A 
ATOM     17  C   UNL     1      -0.440   1.012  22.199  0.00  0.00    +0.015 A 
ENDROOT
BRANCH  15  18
ATOM     18  C   UNL     1      -3.571  -1.410  24.972  0.00  0.00    +0.037 A 
ATOM     20  C   UNL     1      -2.331  -2.037  24.889  0.00  0.00    +0.013 A 
ATOM     21  C   UNL     1      -4.642  -1.867  24.208  0.00  0.00    +0.013 A 
ATOM     24  C   UNL     1      -2.159  -3.128  24.038  0.00  0.00    +0.001 A 
ATOM     25  C   UNL     1      -4.472  -2.959  23.356  0.00  0.00    +0.001 A 
ATOM     28  C   UNL     1      -3.230  -3.589  23.271  0.00  0.00    +0.000 A 
ENDBRANCH  15  18
BRANCH  16  19
ATOM     19  C   UNL     1       1.766   0.805  23.219  0.00  0.00    -0.012 A 
ATOM     22  C   UNL     1       2.071  -0.532  23.478  0.00  0.00    +0.012 A 
ATOM     23  C   UNL     1       2.791   1.710  22.939  0.00  0.00    +0.012 A 
ATOM     26  C   UNL     1       3.397  -0.963  23.456  0.00  0.00    +0.046 A 
ATOM     27  C   UNL     1       4.116   1.280  22.916  0.00  0.00    +0.046 A 
ATOM     29  C   UNL     1       4.421  -0.057  23.175  0.00  0.00    +0.120 A 
BRANCH  29   3
ATOM      3  O   UNL     1       5.714  -0.477  23.155  0.00  0.00    -0.495 OA
ATOM     30  C   UNL     1       6.217  -1.087  24.343  0.00  0.00    +0.277 C 
ENDBRANCH  29   3
ENDBRANCH  16  19
TORSDOF 3
ENDMDL
MODEL 2
REMARK VINA RESULT:       7.8      1.952      4.349
REMARK  Name = 11885115
REMARK  4 active torsions:
REMARK  status: ('A' for Active; 'I' for Inactive)
REMARK    1  A    between atoms: O_3  and  C_29
REMARK    2  A    between atoms: O_3  and  C_30
REMARK    3  A    between atoms: C_15  and  C_18
REMARK    4  A    between atoms: C_16  and  C_19
REMARK                            x       y       z     vdW  Elec       q    Type
REMARK                         _______ _______ _______ _____ _____    ______ ____
ROOT
ATOM      1  O   UNL     1      -0.197  -1.491  22.376  0.00  0.00    -0.267 OA
ATOM      2  O   UNL     1      -3.932   1.988  22.421  0.00  0.00    -0.270 OA
ATOM      4  N   UNL     1      -4.232   0.660  24.323  0.00  0.00    -0.297 N 
ATOM      5  N   UNL     1      -1.719  -1.243  24.125  0.00  0.00    -0.311 N 
ATOM      6  C   UNL     1      -4.210  -1.785  23.870  0.00  0.00    +0.027 C 
ATOM      7  C   UNL     1      -3.354  -0.931  26.015  0.00  0.00    +0.054 C 
ATOM      8  C   UNL     1      -4.160  -2.056  25.370  0.00  0.00    +0.018 C 
ATOM      9  C   UNL     1      -4.883  -0.429  23.593  0.00  0.00    +0.113 C 
ATOM     10  C   UNL     1      -2.783  -1.847  23.311  0.00  0.00    +0.130 C 
ATOM     11  C   UNL     1      -4.058   0.419  25.765  0.00  0.00    +0.117 C 
ATOM     12  C   UNL     1      -1.945  -0.878  25.455  0.00  0.00    +0.027 A 
ATOM     13  C   UNL     1      -0.930  -0.443  26.218  0.00  0.00    +0.022 A 
ATOM     14  C   UNL     1      -0.444  -1.149  23.533  0.00  0.00    +0.259 A 
ATOM     15  C   UNL     1      -3.787   1.785  23.626  0.00  0.00    +0.247 C 
ATOM     16  C   UNL     1       0.663  -0.612  24.399  0.00  0.00    +0.047 A 
ATOM     17  C   UNL     1       0.392  -0.305  25.676  0.00  0.00    +0.015 A 
ENDROOT
BRANCH  15  18
ATOM     18  C   UNL     1      -3.060   2.816  24.373  0.00  0.00    +0.037 A 
ATOM     20  C   UNL     1      -3.762   3.732  25.153  0.00  0.00    +0.013 A 
ATOM     21  C   UNL     1      -1.671   2.875  24.299  0.00  0.00    +0.013 A 
ATOM     24  C   UNL     1      -3.071   4.713  25.864  0.00  0.00    +0.001 A 
ATOM     25  C   UNL     1      -0.979   3.857  25.010  0.00  0.00    +0.001 A 
ATOM     28  C   UNL     1      -1.679   4.775  25.792  0.00  0.00    +0.000 A 
ENDBRANCH  15  18
BRANCH  16  19
ATOM     19  C   UNL     1       2.020  -0.409  23.863  0.00  0.00    -0.012 A 
ATOM     22  C   UNL     1       2.988  -1.402  24.017  0.00  0.00    +0.012 A 
ATOM     23  C   UNL     1       2.338   0.778  23.200  0.00  0.00    +0.012 A 
ATOM     26  C   UNL     1       4.273  -1.208  23.509  0.00  0.00    +0.046 A 
ATOM     27  C   UNL     1       3.621   0.971  22.692  0.00  0.00    +0.046 A 
ATOM     29  C   UNL     1       4.590  -0.022  22.846  0.00  0.00    +0.120 A 
BRANCH  29   3
ATOM      3  O   UNL     1       5.843   0.166  22.352  0.00  0.00    -0.495 OA
ATOM     30  C   UNL     1       6.935  -0.230  23.180  0.00  0.00    +0.277 C 
ENDBRANCH  29   3
ENDBRANCH  16  19
TORSDOF 3
ENDMDL
MODEL 3
REMARK VINA RESULT:       7.9      3.017      4.081
REMARK  Name = 11885115
REMARK  4 active torsions:
REMARK  status: ('A' for Active; 'I' for Inactive)
REMARK    1  A    between atoms: O_3  and  C_29
REMARK    2  A    between atoms: O_3  and  C_30
REMARK    3  A    between atoms: C_15  and  C_18
REMARK    4  A    between atoms: C_16  and  C_19
REMARK                            x       y       z     vdW  Elec       q    Type
REMARK                         _______ _______ _______ _____ _____    ______ ____
ROOT
ATOM      1  O   UNL     1      -1.953   3.891  27.241  0.00  0.00    -0.267 OA
ATOM      2  O   UNL     1      -5.357   0.393  25.748  0.00  0.00    -0.270 OA
ATOM      4  N   UNL     1      -4.445   1.313  23.800  0.00  0.00    -0.297 N 
ATOM      5  N   UNL     1      -2.287   3.270  25.018  0.00  0.00    -0.311 N 
ATOM      6  C   UNL     1      -4.450   3.799  23.750  0.00  0.00    +0.027 C 
ATOM      7  C   UNL     1      -2.644   2.557  22.630  0.00  0.00    +0.054 C 
ATOM      8  C   UNL     1      -3.563   3.770  22.510  0.00  0.00    +0.018 C 
ATOM      9  C   UNL     1      -5.286   2.510  23.842  0.00  0.00    +0.113 C 
ATOM     10  C   UNL     1      -3.561   4.001  24.985  0.00  0.00    +0.130 C 
ATOM     11  C   UNL     1      -3.490   1.268  22.681  0.00  0.00    +0.117 C 
ATOM     12  C   UNL     1      -1.782   2.645  23.875  0.00  0.00    +0.027 A 
ATOM     13  C   UNL     1      -0.560   2.090  23.893  0.00  0.00    +0.022 A 
ATOM     14  C   UNL     1      -1.558   3.322  26.222  0.00  0.00    +0.259 A 
ATOM     15  C   UNL     1      -4.560   0.357  24.812  0.00  0.00    +0.247 C 
ATOM     16  C   UNL     1      -0.212   2.649  26.225  0.00  0.00    +0.047 A 
ATOM     17  C   UNL     1       0.232   2.089  25.089  0.00  0.00    +0.015 A 
ENDROOT
BRANCH  15  18
ATOM     18  C   UNL     1      -3.641  -0.785  24.788  0.00  0.00    +0.037 A 
ATOM     20  C   UNL     1      -4.058  -1.999  24.248  0.00  0.00    +0.013 A 
ATOM     21  C   UNL     1      -2.356  -0.651  25.306  0.00  0.00    +0.013 A 
ATOM     24  C   UNL     1      -3.185  -3.086  24.224  0.00  0.00    +0.001 A 
ATOM     25  C   UNL     1      -1.481  -1.739  25.284  0.00  0.00    +0.001 A 
ATOM     28  C   UNL     1      -1.896  -2.956  24.743  0.00  0.00    +0.000 A 
ENDBRANCH  15  18
BRANCH  16  19
ATOM     19  C   UNL     1       0.605   2.585  27.448  0.00  0.00    -0.012 A 
ATOM     22  C   UNL     1       0.021   2.214  28.660  0.00  0.00    +0.012 A 
ATOM     23  C   UNL     1       1.965   2.895  27.397  0.00  0.00    +0.012 A 
ATOM     26  C   UNL     1       0.795   2.154  29.819  0.00  0.00    +0.046 A 
ATOM     27  C   UNL     1       2.739   2.834  28.555  0.00  0.00    +0.046 A 
ATOM     29  C   UNL     1       2.155   2.464  29.767  0.00  0.00    +0.120 A 
BRANCH  29   3
ATOM      3  O   UNL     1       2.908   2.405  30.897  0.00  0.00    -0.495 OA
ATOM     30  C   UNL     1       2.378   1.662  31.994  0.00  0.00    +0.277 C 
ENDBRANCH  29   3
ENDBRANCH  16  19
TORSDOF 3
ENDMDL
