MODEL 1
REMARK VINA RESULT:      20.1      0.000      0.000
REMARK  Name = 71692924
REMARK  9 active torsions:
REMARK  status: ('A' for Active; 'I' for Inactive)
REMARK    1  A    between atoms: N_5  and  C_14
REMARK    2  A    between atoms: N_7  and  C_30
REMARK    3  A    between atoms: N_7  and  C_32
REMARK    4  A    between atoms: N_7  and  C_33
REMARK    5  A    between atoms: C_9  and  C_14
REMARK    6  A    between atoms: C_12  and  C_17
REMARK    7  A    between atoms: C_17  and  C_19
REMARK    8  A    between atoms: C_32  and  C_34
REMARK    9  A    between atoms: C_34  and  C_35
REMARK                            x       y       z     vdW  Elec       q    Type
REMARK                         _______ _______ _______ _____ _____    ______ ____
ROOT
ATOM      2  O   UNL     1      -2.631  -3.657  23.739  0.00  0.00    -0.274 OA
ATOM      3  O   UNL     1      -0.653   1.176  24.679  0.00  0.00    -0.488 OA
ATOM      4  N   UNL     1      -3.601  -2.009  25.043  0.00  0.00    -0.300 N 
ATOM      6  N   UNL     1      -0.446  -1.674  25.228  0.00  0.00    -0.304 NA
ATOM     12  C   UNL     1      -4.833   0.544  24.362  0.00  0.00    +0.008 C 
ATOM     13  C   UNL     1      -3.527   0.419  25.202  0.00  0.00    +0.032 C 
ATOM     15  C   UNL     1      -4.987  -0.715  23.475  0.00  0.00    +0.023 C 
ATOM     16  C   UNL     1      -3.513  -0.900  25.998  0.00  0.00    +0.115 C 
ATOM     18  C   UNL     1      -4.846  -2.017  24.269  0.00  0.00    +0.108 C 
ATOM     20  C   UNL     1      -3.255   1.600  26.096  0.00  0.00    -0.023 C 
ATOM     21  C   UNL     1      -2.558  -2.860  24.682  0.00  0.00    +0.229 C 
ATOM     22  C   UNL     1      -2.193   2.424  26.101  0.00  0.00    +0.010 C 
ATOM     23  C   UNL     1      -1.282  -2.838  25.504  0.00  0.00    +0.178 C 
ATOM     24  C   UNL     1      -0.924   2.433  25.289  0.00  0.00    +0.256 C 
ATOM     25  C   UNL     1      -0.120  -1.465  23.819  0.00  0.00    +0.120 C 
ATOM     26  C   UNL     1       0.854  -0.314  23.630  0.00  0.00    +0.010 A 
ATOM     27  C   UNL     1       0.558   1.000  24.057  0.00  0.00    +0.125 A 
ATOM     28  C   UNL     1       2.077  -0.562  22.985  0.00  0.00    +0.031 A 
ATOM     29  C   UNL     1       1.482   2.028  23.828  0.00  0.00    +0.048 A 
ATOM     30  C   UNL     1       2.991   0.468  22.769  0.00  0.00    +0.030 A 
ATOM     31  C   UNL     1       2.692   1.759  23.189  0.00  0.00    +0.027 A 
ATOM     41  H   UNL     1       0.416  -1.760  25.767  0.00  0.00    +0.123 HD
ENDROOT
BRANCH  30   7
ATOM      7  N   UNL     1       4.215   0.201  22.122  0.00  0.00    -0.333 N 
ATOM     33  C   UNL     1       4.494   0.765  20.816  0.00  0.00    +0.129 C 
BRANCH   7  32
ATOM     32  C   UNL     1       5.215  -0.636  22.757  0.00  0.00    +0.111 C 
BRANCH  32  34
ATOM     34  C   UNL     1       6.040   0.167  23.763  0.00  0.00    +0.074 C 
BRANCH  34  35
ATOM      8  N   UNL     1       7.959  -0.847  22.659  0.00  0.00    -0.260 NA
ATOM     35  C   UNL     1       7.520   0.143  23.467  0.00  0.00    +0.043 A 
ATOM     36  C   UNL     1       8.339   1.112  24.023  0.00  0.00    +0.023 A 
ATOM     37  C   UNL     1       9.697   1.063  23.730  0.00  0.00    +0.003 A 
ATOM     38  C   UNL     1       9.286  -0.864  22.396  0.00  0.00    +0.111 A 
ATOM     39  C   UNL     1      10.188   0.060  22.901  0.00  0.00    +0.020 A 
ENDBRANCH  34  35
ENDBRANCH  32  34
ENDBRANCH   7  32
ENDBRANCH  30   7
BRANCH  12  17
ATOM     17  C   UNL     1      -6.104   0.781  25.186  0.00  0.00    +0.100 C 
BRANCH  17  19
ATOM      1  O   UNL     1      -6.524   2.331  26.995  0.00  0.00    -0.276 OA
ATOM      5  N   UNL     1      -5.562   3.103  25.025  0.00  0.00    -0.315 N 
ATOM     19  C   UNL     1      -6.099   2.134  25.860  0.00  0.00    +0.213 C 
ATOM     40  H   UNL     1      -5.256   2.841  24.093  0.00  0.00    +0.149 HD
BRANCH   5  14
ATOM     14  C   UNL     1      -5.434   4.491  25.408  0.00  0.00    +0.107 C 
BRANCH  14   9
ATOM      9  C   UNL     1      -4.420   5.189  24.566  0.00  0.00    +0.006 C 
ATOM     10  C   UNL     1      -3.504   4.398  23.673  0.00  0.00    +0.005 C 
ATOM     11  C   UNL     1      -2.957   5.081  24.897  0.00  0.00    +0.005 C 
ENDBRANCH  14   9
ENDBRANCH   5  14
ENDBRANCH  17  19
ENDBRANCH  12  17
TORSDOF 8
ENDMDL
MODEL 2
REMARK VINA RESULT:      23.5      2.038      3.344
REMARK  Name = 71692924
REMARK  9 active torsions:
REMARK  status: ('A' for Active; 'I' for Inactive)
REMARK    1  A    between atoms: N_5  and  C_14
REMARK    2  A    between atoms: N_7  and  C_30
REMARK    3  A    between atoms: N_7  and  C_32
REMARK    4  A    between atoms: N_7  and  C_33
REMARK    5  A    between atoms: C_9  and  C_14
REMARK    6  A    between atoms: C_12  and  C_17
REMARK    7  A    between atoms: C_17  and  C_19
REMARK    8  A    between atoms: C_32  and  C_34
REMARK    9  A    between atoms: C_34  and  C_35
REMARK                            x       y       z     vdW  Elec       q    Type
REMARK                         _______ _______ _______ _____ _____    ______ ____
ROOT
ATOM      2  O   UNL     1      -2.108  -3.631  23.615  0.00  0.00    -0.274 OA
ATOM      3  O   UNL     1      -0.739   1.376  24.718  0.00  0.00    -0.488 OA
ATOM      4  N   UNL     1      -3.292  -2.146  24.938  0.00  0.00    -0.300 N 
ATOM      6  N   UNL     1      -0.204  -1.443  25.201  0.00  0.00    -0.304 NA
ATOM     12  C   UNL     1      -4.807   0.261  24.294  0.00  0.00    +0.008 C 
ATOM     13  C   UNL     1      -3.511   0.269  25.160  0.00  0.00    +0.032 C 
ATOM     15  C   UNL     1      -4.793  -0.983  23.373  0.00  0.00    +0.023 C 
ATOM     16  C   UNL     1      -3.355  -1.060  25.923  0.00  0.00    +0.115 C 
ATOM     18  C   UNL     1      -4.512  -2.280  24.137  0.00  0.00    +0.108 C 
ATOM     20  C   UNL     1      -3.399   1.449  26.088  0.00  0.00    -0.023 C 
ATOM     21  C   UNL     1      -2.148  -2.856  24.579  0.00  0.00    +0.229 C 
ATOM     22  C   UNL     1      -2.443   2.393  26.137  0.00  0.00    +0.010 C 
ATOM     23  C   UNL     1      -0.900  -2.706  25.430  0.00  0.00    +0.178 C 
ATOM     24  C   UNL     1      -1.169   2.574  25.353  0.00  0.00    +0.256 C 
ATOM     25  C   UNL     1       0.122  -1.159  23.805  0.00  0.00    +0.120 C 
ATOM     26  C   UNL     1       0.955   0.104  23.666  0.00  0.00    +0.010 A 
ATOM     27  C   UNL     1       0.497   1.362  24.119  0.00  0.00    +0.125 A 
ATOM     28  C   UNL     1       2.211   0.021  23.042  0.00  0.00    +0.031 A 
ATOM     29  C   UNL     1       1.295   2.498  23.937  0.00  0.00    +0.048 A 
ATOM     30  C   UNL     1       2.999   1.157  22.873  0.00  0.00    +0.030 A 
ATOM     31  C   UNL     1       2.541   2.392  23.318  0.00  0.00    +0.027 A 
ATOM     41  H   UNL     1       0.652  -1.442  25.757  0.00  0.00    +0.123 HD
ENDROOT
BRANCH  30   7
ATOM      7  N   UNL     1       4.258   1.055  22.246  0.00  0.00    -0.333 N 
ATOM     33  C   UNL     1       5.251   0.120  22.739  0.00  0.00    +0.129 C 
BRANCH   7  32
ATOM     32  C   UNL     1       4.575   1.879  21.096  0.00  0.00    +0.111 C 
BRANCH  32  34
ATOM     34  C   UNL     1       4.412   3.363  21.425  0.00  0.00    +0.074 C 
BRANCH  34  35
ATOM      8  N   UNL     1       4.919   3.900  19.104  0.00  0.00    -0.260 NA
ATOM     35  C   UNL     1       4.198   4.220  20.201  0.00  0.00    +0.043 A 
ATOM     36  C   UNL     1       3.293   5.268  20.256  0.00  0.00    +0.023 A 
ATOM     37  C   UNL     1       3.118   6.037  19.111  0.00  0.00    +0.003 A 
ATOM     38  C   UNL     1       4.723   4.671  18.010  0.00  0.00    +0.111 A 
ATOM     39  C   UNL     1       3.842   5.740  17.962  0.00  0.00    +0.020 A 
ENDBRANCH  34  35
ENDBRANCH  32  34
ENDBRANCH   7  32
ENDBRANCH  30   7
BRANCH  12  17
ATOM     17  C   UNL     1      -6.112   0.323  25.096  0.00  0.00    +0.100 C 
BRANCH  17  19
ATOM      1  O   UNL     1      -6.668   1.705  27.001  0.00  0.00    -0.276 OA
ATOM      5  N   UNL     1      -5.864   2.700  25.061  0.00  0.00    -0.315 N 
ATOM     19  C   UNL     1      -6.255   1.626  25.848  0.00  0.00    +0.213 C 
ATOM     40  H   UNL     1      -5.554   2.530  24.109  0.00  0.00    +0.149 HD
BRANCH   5  14
ATOM     14  C   UNL     1      -5.897   4.069  25.521  0.00  0.00    +0.107 C 
BRANCH  14   9
ATOM      9  C   UNL     1      -4.973   4.926  24.724  0.00  0.00    +0.006 C 
ATOM     10  C   UNL     1      -3.994   4.300  23.770  0.00  0.00    +0.005 C 
ATOM     11  C   UNL     1      -3.502   4.947  25.035  0.00  0.00    +0.005 C 
ENDBRANCH  14   9
ENDBRANCH   5  14
ENDBRANCH  17  19
ENDBRANCH  12  17
TORSDOF 8
ENDMDL
