MODEL 1
REMARK VINA RESULT:      -3.8      0.000      0.000
REMARK  Name = 26744030
REMARK  8 active torsions:
REMARK  status: ('A' for Active; 'I' for Inactive)
REMARK    1  A    between atoms: S_1  and  C_18
REMARK    2  A    between atoms: S_1  and  C_22
REMARK    3  A    between atoms: O_2  and  C_12
REMARK    4  A    between atoms: N_6  and  C_14
REMARK    5  A    between atoms: C_10  and  C_15
REMARK    6  A    between atoms: C_14  and  C_16
REMARK    7  A    between atoms: C_17  and  C_18
REMARK    8  A    between atoms: C_26  and  C_29
REMARK                            x       y       z     vdW  Elec       q    Type
REMARK                         _______ _______ _______ _____ _____    ______ ____
ROOT
ATOM      3  O   UNL     1      -2.044   2.220  25.626  0.00  0.00    -0.336 OA
ATOM      7  N   UNL     1      -1.662   2.228  23.419  0.00  0.00    -0.193 NA
ATOM      8  N   UNL     1      -0.670   2.002  25.467  0.00  0.00    -0.060 NA
ATOM     15  C   UNL     1      -2.552   2.342  24.372  0.00  0.00    +0.245 A 
ATOM     17  C   UNL     1      -0.523   2.020  24.140  0.00  0.00    +0.193 A 
ENDROOT
BRANCH  15  10
ATOM      6  N   UNL     1      -4.838   1.601  25.026  0.00  0.00    -0.285 NA
ATOM     10  C   UNL     1      -4.043   2.590  24.269  0.00  0.00    +0.149 C 
ATOM     11  C   UNL     1      -4.461   3.955  24.844  0.00  0.00    +0.061 C 
ATOM     12  C   UNL     1      -5.527   3.636  25.884  0.00  0.00    +0.130 C 
ATOM     13  C   UNL     1      -6.060   2.286  25.443  0.00  0.00    +0.116 C 
BRANCH  12   2
ATOM      2  O   UNL     1      -6.538   4.624  25.888  0.00  0.00    -0.390 OA
ATOM     30  H   UNL     1      -7.101   4.468  25.110  0.00  0.00    +0.210 HD
ENDBRANCH  12   2
BRANCH   6  14
ATOM     14  C   UNL     1      -5.120   0.389  24.269  0.00  0.00    +0.122 C 
BRANCH  14  16
ATOM      9  N   UNL     1      -2.351  -1.542  25.982  0.00  0.00    -0.263 NA
ATOM     16  C   UNL     1      -4.145  -0.712  24.590  0.00  0.00    -0.015 A 
ATOM     19  C   UNL     1      -4.114  -1.883  23.839  0.00  0.00    +0.008 A 
ATOM     20  C   UNL     1      -3.251  -0.592  25.641  0.00  0.00    +0.115 A 
ATOM     21  C   UNL     1      -3.202  -2.882  24.159  0.00  0.00    +0.020 A 
ATOM     23  C   UNL     1      -2.350  -2.666  25.229  0.00  0.00    +0.111 A 
ENDBRANCH  14  16
ENDBRANCH   6  14
ENDBRANCH  15  10
BRANCH  17  18
ATOM     18  C   UNL     1       0.783   1.830  23.500  0.00  0.00    +0.251 C 
BRANCH  18   1
ATOM      1  S   UNL     1       1.023   0.100  23.203  0.00  0.00    +0.004 S 
ATOM      4  O   UNL     1       0.592  -0.175  21.845  0.00  0.00    -0.169 OA
ATOM      5  O   UNL     1       0.463  -0.642  24.317  0.00  0.00    -0.169 OA
BRANCH   1  22
ATOM     22  C   UNL     1       2.776  -0.103  23.273  0.00  0.00    +0.089 A 
ATOM     24  C   UNL     1       3.322  -1.308  23.717  0.00  0.00    +0.027 A 
ATOM     25  C   UNL     1       3.616   0.942  22.887  0.00  0.00    +0.027 A 
ATOM     26  C   UNL     1       5.545  -0.422  23.390  0.00  0.00    -0.050 A 
ATOM     27  C   UNL     1       4.705  -1.467  23.776  0.00  0.00    +0.005 A 
ATOM     28  C   UNL     1       5.000   0.783  22.946  0.00  0.00    +0.005 A 
ATOM     29  C   UNL     1       7.026  -0.593  23.452  0.00  0.00    +0.044 C 
ENDBRANCH   1  22
ENDBRANCH  18   1
ENDBRANCH  17  18
TORSDOF 7
ENDMDL
MODEL 2
REMARK VINA RESULT:      -1.8      2.906      6.225
REMARK  Name = 26744030
REMARK  8 active torsions:
REMARK  status: ('A' for Active; 'I' for Inactive)
REMARK    1  A    between atoms: S_1  and  C_18
REMARK    2  A    between atoms: S_1  and  C_22
REMARK    3  A    between atoms: O_2  and  C_12
REMARK    4  A    between atoms: N_6  and  C_14
REMARK    5  A    between atoms: C_10  and  C_15
REMARK    6  A    between atoms: C_14  and  C_16
REMARK    7  A    between atoms: C_17  and  C_18
REMARK    8  A    between atoms: C_26  and  C_29
REMARK                            x       y       z     vdW  Elec       q    Type
REMARK                         _______ _______ _______ _____ _____    ______ ____
ROOT
ATOM      3  O   UNL     1      -0.747   4.184  25.133  0.00  0.00    -0.336 OA
ATOM      7  N   UNL     1      -2.115   2.834  26.283  0.00  0.00    -0.193 NA
ATOM      8  N   UNL     1      -1.858   4.962  25.483  0.00  0.00    -0.060 NA
ATOM     15  C   UNL     1      -0.979   2.946  25.642  0.00  0.00    +0.245 A 
ATOM     17  C   UNL     1      -2.619   4.096  26.159  0.00  0.00    +0.193 A 
ENDROOT
BRANCH  15  10
ATOM      6  N   UNL     1      -0.454   0.641  24.862  0.00  0.00    -0.285 NA
ATOM     10  C   UNL     1       0.093   1.904  25.398  0.00  0.00    +0.149 C 
ATOM     11  C   UNL     1       1.136   2.354  24.359  0.00  0.00    +0.061 C 
ATOM     12  C   UNL     1       1.137   1.258  23.300  0.00  0.00    +0.130 C 
ATOM     13  C   UNL     1       0.601   0.049  24.042  0.00  0.00    +0.116 C 
BRANCH  12   2
ATOM      2  O   UNL     1       2.444   1.036  22.809  0.00  0.00    -0.390 OA
ATOM     30  H   UNL     1       2.725   0.156  23.114  0.00  0.00    +0.210 HD
ENDBRANCH  12   2
BRANCH   6  14
ATOM     14  C   UNL     1      -0.919  -0.270  25.900  0.00  0.00    +0.122 C 
BRANCH  14  16
ATOM      9  N   UNL     1      -2.288  -3.211  23.949  0.00  0.00    -0.263 NA
ATOM     16  C   UNL     1      -1.886  -1.289  25.358  0.00  0.00    -0.015 A 
ATOM     19  C   UNL     1      -3.226  -1.274  25.733  0.00  0.00    +0.008 A 
ATOM     20  C   UNL     1      -1.472  -2.269  24.472  0.00  0.00    +0.115 A 
ATOM     21  C   UNL     1      -4.096  -2.227  25.216  0.00  0.00    +0.020 A 
ATOM     23  C   UNL     1      -3.583  -3.166  24.336  0.00  0.00    +0.111 A 
ENDBRANCH  14  16
ENDBRANCH   6  14
ENDBRANCH  15  10
BRANCH  17  18
ATOM     18  C   UNL     1      -3.914   4.480  26.731  0.00  0.00    +0.251 C 
BRANCH  18   1
ATOM      1  S   UNL     1      -5.200   3.681  25.812  0.00  0.00    +0.004 S 
ATOM      4  O   UNL     1      -6.089   4.714  25.314  0.00  0.00    -0.169 OA
ATOM      5  O   UNL     1      -5.720   2.583  26.605  0.00  0.00    -0.169 OA
BRANCH   1  22
ATOM     22  C   UNL     1      -4.357   2.971  24.432  0.00  0.00    +0.089 A 
ATOM     24  C   UNL     1      -4.119   1.597  24.392  0.00  0.00    +0.027 A 
ATOM     25  C   UNL     1      -3.926   3.784  23.383  0.00  0.00    +0.027 A 
ATOM     26  C   UNL     1      -3.020   1.850  22.256  0.00  0.00    -0.050 A 
ATOM     27  C   UNL     1      -3.450   1.037  23.304  0.00  0.00    +0.005 A 
ATOM     28  C   UNL     1      -3.257   3.223  22.295  0.00  0.00    +0.005 A 
ATOM     29  C   UNL     1      -2.304   1.249  21.092  0.00  0.00    +0.044 C 
ENDBRANCH   1  22
ENDBRANCH  18   1
ENDBRANCH  17  18
TORSDOF 7
ENDMDL
MODEL 3
REMARK VINA RESULT:      -0.9      2.609      7.094
REMARK  Name = 26744030
REMARK  8 active torsions:
REMARK  status: ('A' for Active; 'I' for Inactive)
REMARK    1  A    between atoms: S_1  and  C_18
REMARK    2  A    between atoms: S_1  and  C_22
REMARK    3  A    between atoms: O_2  and  C_12
REMARK    4  A    between atoms: N_6  and  C_14
REMARK    5  A    between atoms: C_10  and  C_15
REMARK    6  A    between atoms: C_14  and  C_16
REMARK    7  A    between atoms: C_17  and  C_18
REMARK    8  A    between atoms: C_26  and  C_29
REMARK                            x       y       z     vdW  Elec       q    Type
REMARK                         _______ _______ _______ _____ _____    ______ ____
ROOT
ATOM      3  O   UNL     1      -2.510  -1.400  25.296  0.00  0.00    -0.336 OA
ATOM      7  N   UNL     1      -3.107   0.642  24.598  0.00  0.00    -0.193 NA
ATOM      8  N   UNL     1      -3.874  -1.477  24.988  0.00  0.00    -0.060 NA
ATOM     15  C   UNL     1      -2.138  -0.119  25.040  0.00  0.00    +0.245 A 
ATOM     17  C   UNL     1      -4.152  -0.234  24.584  0.00  0.00    +0.193 A 
ENDROOT
BRANCH  15  10
ATOM      6  N   UNL     1      -0.068   0.953  24.166  0.00  0.00    -0.285 NA
ATOM     10  C   UNL     1      -0.685   0.227  25.295  0.00  0.00    +0.149 C 
ATOM     11  C   UNL     1      -0.498   1.153  26.510  0.00  0.00    +0.061 C 
ATOM     12  C   UNL     1       0.274   2.353  25.976  0.00  0.00    +0.130 C 
ATOM     13  C   UNL     1       0.969   1.807  24.743  0.00  0.00    +0.116 C 
BRANCH  12   2
ATOM      2  O   UNL     1       1.201   2.821  26.936  0.00  0.00    -0.390 OA
ATOM     30  H   UNL     1       0.696   3.084  27.726  0.00  0.00    +0.210 HD
ENDBRANCH  12   2
BRANCH   6  14
ATOM     14  C   UNL     1       0.460   0.071  23.135  0.00  0.00    +0.122 C 
BRANCH  14  16
ATOM      9  N   UNL     1       3.998  -1.189  23.613  0.00  0.00    -0.263 NA
ATOM     16  C   UNL     1       1.965   0.033  23.146  0.00  0.00    -0.015 A 
ATOM     19  C   UNL     1       2.712   1.129  22.725  0.00  0.00    +0.008 A 
ATOM     20  C   UNL     1       2.650  -1.091  23.577  0.00  0.00    +0.115 A 
ATOM     21  C   UNL     1       4.101   1.066  22.747  0.00  0.00    +0.020 A 
ATOM     23  C   UNL     1       4.690  -0.105  23.196  0.00  0.00    +0.111 A 
ENDBRANCH  14  16
ENDBRANCH   6  14
ENDBRANCH  15  10
BRANCH  17  18
ATOM     18  C   UNL     1      -5.497   0.159  24.151  0.00  0.00    +0.251 C 
BRANCH  18   1
ATOM      1  S   UNL     1      -6.038   1.521  25.146  0.00  0.00    +0.004 S 
ATOM      4  O   UNL     1      -6.163   1.043  26.510  0.00  0.00    -0.169 OA
ATOM      5  O   UNL     1      -7.160   2.160  24.484  0.00  0.00    -0.169 OA
BRANCH   1  22
ATOM     22  C   UNL     1      -4.685   2.655  25.084  0.00  0.00    +0.089 A 
ATOM     24  C   UNL     1      -4.185   3.077  23.852  0.00  0.00    +0.027 A 
ATOM     25  C   UNL     1      -4.115   3.126  26.266  0.00  0.00    +0.027 A 
ATOM     26  C   UNL     1      -2.544   4.441  24.986  0.00  0.00    -0.050 A 
ATOM     27  C   UNL     1      -3.115   3.969  23.803  0.00  0.00    +0.005 A 
ATOM     28  C   UNL     1      -3.044   4.019  26.218  0.00  0.00    +0.005 A 
ATOM     29  C   UNL     1      -1.399   5.396  24.932  0.00  0.00    +0.044 C 
ENDBRANCH   1  22
ENDBRANCH  18   1
ENDBRANCH  17  18
TORSDOF 7
ENDMDL
MODEL 4
REMARK VINA RESULT:      -0.6      2.821      4.054
REMARK  Name = 26744030
REMARK  8 active torsions:
REMARK  status: ('A' for Active; 'I' for Inactive)
REMARK    1  A    between atoms: S_1  and  C_18
REMARK    2  A    between atoms: S_1  and  C_22
REMARK    3  A    between atoms: O_2  and  C_12
REMARK    4  A    between atoms: N_6  and  C_14
REMARK    5  A    between atoms: C_10  and  C_15
REMARK    6  A    between atoms: C_14  and  C_16
REMARK    7  A    between atoms: C_17  and  C_18
REMARK    8  A    between atoms: C_26  and  C_29
REMARK                            x       y       z     vdW  Elec       q    Type
REMARK                         _______ _______ _______ _____ _____    ______ ____
ROOT
ATOM      3  O   UNL     1      -3.252   2.324  21.953  0.00  0.00    -0.336 OA
ATOM      7  N   UNL     1      -2.444   1.118  23.659  0.00  0.00    -0.193 NA
ATOM      8  N   UNL     1      -1.982   1.886  21.555  0.00  0.00    -0.060 NA
ATOM     15  C   UNL     1      -3.445   1.829  23.203  0.00  0.00    +0.245 A 
ATOM     17  C   UNL     1      -1.571   1.183  22.613  0.00  0.00    +0.193 A 
ENDROOT
BRANCH  15  10
ATOM      6  N   UNL     1      -4.916   1.522  25.188  0.00  0.00    -0.285 NA
ATOM     10  C   UNL     1      -4.765   2.163  23.866  0.00  0.00    +0.149 C 
ATOM     11  C   UNL     1      -4.930   3.670  24.137  0.00  0.00    +0.061 C 
ATOM     12  C   UNL     1      -5.216   3.774  25.629  0.00  0.00    +0.130 C 
ATOM     13  C   UNL     1      -5.770   2.405  25.980  0.00  0.00    +0.116 C 
BRANCH  12   2
ATOM      2  O   UNL     1      -6.151   4.801  25.892  0.00  0.00    -0.390 OA
ATOM     30  H   UNL     1      -6.368   4.763  26.840  0.00  0.00    +0.210 HD
ENDBRANCH  12   2
BRANCH   6  14
ATOM     14  C   UNL     1      -5.447   0.168  25.113  0.00  0.00    +0.122 C 
BRANCH  14  16
ATOM      9  N   UNL     1      -2.249  -1.760  25.733  0.00  0.00    -0.263 NA
ATOM     16  C   UNL     1      -4.353  -0.856  24.961  0.00  0.00    -0.015 A 
ATOM     19  C   UNL     1      -4.406  -1.816  23.956  0.00  0.00    +0.008 A 
ATOM     20  C   UNL     1      -3.263  -0.870  25.816  0.00  0.00    +0.115 A 
ATOM     21  C   UNL     1      -3.382  -2.748  23.840  0.00  0.00    +0.020 A 
ATOM     23  C   UNL     1      -2.334  -2.678  24.744  0.00  0.00    +0.111 A 
ENDBRANCH  14  16
ENDBRANCH   6  14
ENDBRANCH  15  10
BRANCH  17  18
ATOM     18  C   UNL     1      -0.262   0.520  22.645  0.00  0.00    +0.251 C 
BRANCH  18   1
ATOM      1  S   UNL     1       0.603   1.042  24.100  0.00  0.00    +0.004 S 
ATOM      4  O   UNL     1       1.963   1.363  23.709  0.00  0.00    -0.169 OA
ATOM      5  O   UNL     1       0.348   0.082  25.158  0.00  0.00    -0.169 OA
BRANCH   1  22
ATOM     22  C   UNL     1      -0.205   2.545  24.558  0.00  0.00    +0.089 A 
ATOM     24  C   UNL     1      -1.035   2.577  25.679  0.00  0.00    +0.027 A 
ATOM     25  C   UNL     1      -0.017   3.698  23.797  0.00  0.00    +0.027 A 
ATOM     26  C   UNL     1      -1.487   4.916  25.277  0.00  0.00    -0.050 A 
ATOM     27  C   UNL     1      -1.676   3.762  26.038  0.00  0.00    +0.005 A 
ATOM     28  C   UNL     1      -0.658   4.884  24.156  0.00  0.00    +0.005 A 
ATOM     29  C   UNL     1      -2.172   6.184  25.662  0.00  0.00    +0.044 C 
ENDBRANCH   1  22
ENDBRANCH  18   1
ENDBRANCH  17  18
TORSDOF 7
ENDMDL
MODEL 5
REMARK VINA RESULT:      -0.5      2.622      7.131
REMARK  Name = 26744030
REMARK  8 active torsions:
REMARK  status: ('A' for Active; 'I' for Inactive)
REMARK    1  A    between atoms: S_1  and  C_18
REMARK    2  A    between atoms: S_1  and  C_22
REMARK    3  A    between atoms: O_2  and  C_12
REMARK    4  A    between atoms: N_6  and  C_14
REMARK    5  A    between atoms: C_10  and  C_15
REMARK    6  A    between atoms: C_14  and  C_16
REMARK    7  A    between atoms: C_17  and  C_18
REMARK    8  A    between atoms: C_26  and  C_29
REMARK                            x       y       z     vdW  Elec       q    Type
REMARK                         _______ _______ _______ _____ _____    ______ ____
ROOT
ATOM      3  O   UNL     1      -0.206   2.251  26.201  0.00  0.00    -0.336 OA
ATOM      7  N   UNL     1      -0.650   2.885  24.100  0.00  0.00    -0.193 NA
ATOM      8  N   UNL     1      -1.069   3.350  26.300  0.00  0.00    -0.060 NA
ATOM     15  C   UNL     1      -0.010   2.045  24.873  0.00  0.00    +0.245 A 
ATOM     17  C   UNL     1      -1.285   3.667  25.020  0.00  0.00    +0.193 A 
ENDROOT
BRANCH  15  10
ATOM      6  N   UNL     1       0.163  -0.235  23.888  0.00  0.00    -0.285 NA
ATOM     10  C   UNL     1       0.898   0.893  24.495  0.00  0.00    +0.149 C 
ATOM     11  C   UNL     1       1.952   1.287  23.444  0.00  0.00    +0.061 C 
ATOM     12  C   UNL     1       1.763   0.295  22.303  0.00  0.00    +0.130 C 
ATOM     13  C   UNL     1       1.095  -0.891  22.973  0.00  0.00    +0.116 C 
BRANCH  12   2
ATOM      2  O   UNL     1       3.007  -0.057  21.732  0.00  0.00    -0.390 OA
ATOM     30  H   UNL     1       2.995  -1.017  21.575  0.00  0.00    +0.210 HD
ENDBRANCH  12   2
BRANCH   6  14
ATOM     14  C   UNL     1      -0.382  -1.161  24.872  0.00  0.00    +0.122 C 
BRANCH  14  16
ATOM      9  N   UNL     1      -3.464  -3.272  24.255  0.00  0.00    -0.263 NA
ATOM     16  C   UNL     1      -1.805  -1.540  24.557  0.00  0.00    -0.015 A 
ATOM     19  C   UNL     1      -2.760  -0.567  24.280  0.00  0.00    +0.008 A 
ATOM     20  C   UNL     1      -2.204  -2.866  24.532  0.00  0.00    +0.115 A 
ATOM     21  C   UNL     1      -4.067  -0.946  23.992  0.00  0.00    +0.020 A 
ATOM     23  C   UNL     1      -4.365  -2.299  23.992  0.00  0.00    +0.111 A 
ENDBRANCH  14  16
ENDBRANCH   6  14
ENDBRANCH  15  10
BRANCH  17  18
ATOM     18  C   UNL     1      -2.152   4.784  24.632  0.00  0.00    +0.251 C 
BRANCH  18   1
ATOM      1  S   UNL     1      -3.449   4.164  23.597  0.00  0.00    +0.004 S 
ATOM      4  O   UNL     1      -2.861   3.190  22.697  0.00  0.00    -0.169 OA
ATOM      5  O   UNL     1      -4.200   5.290  23.073  0.00  0.00    -0.169 OA
BRANCH   1  22
ATOM     22  C   UNL     1      -4.511   3.305  24.716  0.00  0.00    +0.089 A 
ATOM     24  C   UNL     1      -4.662   3.763  26.025  0.00  0.00    +0.027 A 
ATOM     25  C   UNL     1      -5.198   2.167  24.292  0.00  0.00    +0.027 A 
ATOM     26  C   UNL     1      -6.184   1.946  26.486  0.00  0.00    -0.050 A 
ATOM     27  C   UNL     1      -5.498   3.083  26.910  0.00  0.00    +0.005 A 
ATOM     28  C   UNL     1      -6.034   1.487  25.178  0.00  0.00    +0.005 A 
ATOM     29  C   UNL     1      -7.079   1.219  27.433  0.00  0.00    +0.044 C 
ENDBRANCH   1  22
ENDBRANCH  18   1
ENDBRANCH  17  18
TORSDOF 7
ENDMDL
MODEL 6
REMARK VINA RESULT:      -0.4      2.578      6.990
REMARK  Name = 26744030
REMARK  8 active torsions:
REMARK  status: ('A' for Active; 'I' for Inactive)
REMARK    1  A    between atoms: S_1  and  C_18
REMARK    2  A    between atoms: S_1  and  C_22
REMARK    3  A    between atoms: O_2  and  C_12
REMARK    4  A    between atoms: N_6  and  C_14
REMARK    5  A    between atoms: C_10  and  C_15
REMARK    6  A    between atoms: C_14  and  C_16
REMARK    7  A    between atoms: C_17  and  C_18
REMARK    8  A    between atoms: C_26  and  C_29
REMARK                            x       y       z     vdW  Elec       q    Type
REMARK                         _______ _______ _______ _____ _____    ______ ____
ROOT
ATOM      3  O   UNL     1      -4.038  -0.772  25.597  0.00  0.00    -0.336 OA
ATOM      7  N   UNL     1      -3.963   0.850  24.055  0.00  0.00    -0.193 NA
ATOM      8  N   UNL     1      -5.180   0.013  25.801  0.00  0.00    -0.060 NA
ATOM     15  C   UNL     1      -3.377  -0.209  24.552  0.00  0.00    +0.245 A 
ATOM     17  C   UNL     1      -5.064   0.948  24.854  0.00  0.00    +0.193 A 
ENDROOT
BRANCH  15  10
ATOM      6  N   UNL     1      -0.889  -0.123  24.531  0.00  0.00    -0.285 NA
ATOM     10  C   UNL     1      -2.089  -0.883  24.126  0.00  0.00    +0.149 C 
ATOM     11  C   UNL     1      -1.907  -2.274  24.759  0.00  0.00    +0.061 C 
ATOM     12  C   UNL     1      -0.556  -2.216  25.461  0.00  0.00    +0.130 C 
ATOM     13  C   UNL     1       0.175  -1.106  24.729  0.00  0.00    +0.116 C 
BRANCH  12   2
ATOM      2  O   UNL     1       0.121  -3.452  25.351  0.00  0.00    -0.390 OA
ATOM     30  H   UNL     1       0.598  -3.449  24.502  0.00  0.00    +0.210 HD
ENDBRANCH  12   2
BRANCH   6  14
ATOM     14  C   UNL     1      -0.512   0.908  23.575  0.00  0.00    +0.122 C 
BRANCH  14  16
ATOM      9  N   UNL     1       3.228   1.389  23.232  0.00  0.00    -0.263 NA
ATOM     16  C   UNL     1       0.905   0.735  23.094  0.00  0.00    -0.015 A 
ATOM     19  C   UNL     1       1.217  -0.192  22.105  0.00  0.00    +0.008 A 
ATOM     20  C   UNL     1       1.937   1.494  23.620  0.00  0.00    +0.115 A 
ATOM     21  C   UNL     1       2.533  -0.329  21.680  0.00  0.00    +0.020 A 
ATOM     23  C   UNL     1       3.493   0.477  22.269  0.00  0.00    +0.111 A 
ENDBRANCH  14  16
ENDBRANCH   6  14
ENDBRANCH  15  10
BRANCH  17  18
ATOM     18  C   UNL     1      -6.062   2.011  24.685  0.00  0.00    +0.251 C 
BRANCH  18   1
ATOM      1  S   UNL     1      -5.700   3.315  25.827  0.00  0.00    +0.004 S 
ATOM      4  O   UNL     1      -5.761   2.755  27.164  0.00  0.00    -0.169 OA
ATOM      5  O   UNL     1      -6.503   4.472  25.476  0.00  0.00    -0.169 OA
BRANCH   1  22
ATOM     22  C   UNL     1      -4.018   3.727  25.482  0.00  0.00    +0.089 A 
ATOM     24  C   UNL     1      -3.672   4.265  24.242  0.00  0.00    +0.027 A 
ATOM     25  C   UNL     1      -3.034   3.512  26.447  0.00  0.00    +0.027 A 
ATOM     26  C   UNL     1      -1.360   4.372  24.933  0.00  0.00    -0.050 A 
ATOM     27  C   UNL     1      -2.343   4.587  23.968  0.00  0.00    +0.005 A 
ATOM     28  C   UNL     1      -1.705   3.834  26.173  0.00  0.00    +0.005 A 
ATOM     29  C   UNL     1       0.062   4.717  24.639  0.00  0.00    +0.044 C 
ENDBRANCH   1  22
ENDBRANCH  18   1
ENDBRANCH  17  18
TORSDOF 7
ENDMDL
MODEL 7
REMARK VINA RESULT:      -0.0      2.690      6.516
REMARK  Name = 26744030
REMARK  8 active torsions:
REMARK  status: ('A' for Active; 'I' for Inactive)
REMARK    1  A    between atoms: S_1  and  C_18
REMARK    2  A    between atoms: S_1  and  C_22
REMARK    3  A    between atoms: O_2  and  C_12
REMARK    4  A    between atoms: N_6  and  C_14
REMARK    5  A    between atoms: C_10  and  C_15
REMARK    6  A    between atoms: C_14  and  C_16
REMARK    7  A    between atoms: C_17  and  C_18
REMARK    8  A    between atoms: C_26  and  C_29
REMARK                            x       y       z     vdW  Elec       q    Type
REMARK                         _______ _______ _______ _____ _____    ______ ____
ROOT
ATOM      3  O   UNL     1      -2.117   1.295  23.076  0.00  0.00    -0.336 OA
ATOM      7  N   UNL     1      -2.760   0.699  25.137  0.00  0.00    -0.193 NA
ATOM      8  N   UNL     1      -3.512   1.420  23.101  0.00  0.00    -0.060 NA
ATOM     15  C   UNL     1      -1.756   0.865  24.313  0.00  0.00    +0.245 A 
ATOM     17  C   UNL     1      -3.816   1.051  24.348  0.00  0.00    +0.193 A 
ENDROOT
BRANCH  15  10
ATOM      6  N   UNL     1       0.232  -0.574  23.898  0.00  0.00    -0.285 NA
ATOM     10  C   UNL     1      -0.275   0.651  24.549  0.00  0.00    +0.149 C 
ATOM     11  C   UNL     1       0.589   1.789  23.976  0.00  0.00    +0.061 C 
ATOM     12  C   UNL     1       1.583   1.102  23.049  0.00  0.00    +0.130 C 
ATOM     13  C   UNL     1       1.636  -0.320  23.577  0.00  0.00    +0.116 C 
BRANCH  12   2
ATOM      2  O   UNL     1       2.848   1.732  23.112  0.00  0.00    -0.390 OA
ATOM     30  H   UNL     1       2.873   2.254  23.932  0.00  0.00    +0.210 HD
ENDBRANCH  12   2
BRANCH   6  14
ATOM     14  C   UNL     1       0.064  -1.769  24.713  0.00  0.00    +0.122 C 
BRANCH  14  16
ATOM      9  N   UNL     1      -3.281  -3.199  23.667  0.00  0.00    -0.263 NA
ATOM     16  C   UNL     1      -1.375  -2.208  24.774  0.00  0.00    -0.015 A 
ATOM     19  C   UNL     1      -2.124  -2.045  25.935  0.00  0.00    +0.008 A 
ATOM     20  C   UNL     1      -1.994  -2.785  23.678  0.00  0.00    +0.115 A 
ATOM     21  C   UNL     1      -3.451  -2.459  25.962  0.00  0.00    +0.020 A 
ATOM     23  C   UNL     1      -3.978  -3.025  24.812  0.00  0.00    +0.111 A 
ENDBRANCH  14  16
ENDBRANCH   6  14
ENDBRANCH  15  10
BRANCH  17  18
ATOM     18  C   UNL     1      -5.199   1.029  24.837  0.00  0.00    +0.251 C 
BRANCH  18   1
ATOM      1  S   UNL     1      -5.573   2.605  25.554  0.00  0.00    +0.004 S 
ATOM      4  O   UNL     1      -5.785   2.400  26.975  0.00  0.00    -0.169 OA
ATOM      5  O   UNL     1      -6.590   3.251  24.744  0.00  0.00    -0.169 OA
BRANCH   1  22
ATOM     22  C   UNL     1      -4.082   3.529  25.349  0.00  0.00    +0.089 A 
ATOM     24  C   UNL     1      -3.848   4.220  24.161  0.00  0.00    +0.027 A 
ATOM     25  C   UNL     1      -3.138   3.565  26.375  0.00  0.00    +0.027 A 
ATOM     26  C   UNL     1      -1.724   4.983  25.023  0.00  0.00    -0.050 A 
ATOM     27  C   UNL     1      -2.669   4.946  23.998  0.00  0.00    +0.005 A 
ATOM     28  C   UNL     1      -1.958   4.292  26.212  0.00  0.00    +0.005 A 
ATOM     29  C   UNL     1      -0.463   5.761  24.848  0.00  0.00    +0.044 C 
ENDBRANCH   1  22
ENDBRANCH  18   1
ENDBRANCH  17  18
TORSDOF 7
ENDMDL
MODEL 8
REMARK VINA RESULT:       0.1      2.556      7.239
REMARK  Name = 26744030
REMARK  8 active torsions:
REMARK  status: ('A' for Active; 'I' for Inactive)
REMARK    1  A    between atoms: S_1  and  C_18
REMARK    2  A    between atoms: S_1  and  C_22
REMARK    3  A    between atoms: O_2  and  C_12
REMARK    4  A    between atoms: N_6  and  C_14
REMARK    5  A    between atoms: C_10  and  C_15
REMARK    6  A    between atoms: C_14  and  C_16
REMARK    7  A    between atoms: C_17  and  C_18
REMARK    8  A    between atoms: C_26  and  C_29
REMARK                            x       y       z     vdW  Elec       q    Type
REMARK                         _______ _______ _______ _____ _____    ______ ____
ROOT
ATOM      3  O   UNL     1      -0.457   1.038  26.088  0.00  0.00    -0.336 OA
ATOM      7  N   UNL     1      -0.636   2.503  24.404  0.00  0.00    -0.193 NA
ATOM      8  N   UNL     1      -0.219   2.302  26.644  0.00  0.00    -0.060 NA
ATOM     15  C   UNL     1      -0.692   1.247  24.767  0.00  0.00    +0.245 A 
ATOM     17  C   UNL     1      -0.342   3.112  25.589  0.00  0.00    +0.193 A 
ENDROOT
BRANCH  15  10
ATOM      6  N   UNL     1       0.211  -0.826  23.725  0.00  0.00    -0.285 NA
ATOM     10  C   UNL     1      -0.984   0.018  23.930  0.00  0.00    +0.149 C 
ATOM     11  C   UNL     1      -2.019  -0.916  24.584  0.00  0.00    +0.061 C 
ATOM     12  C   UNL     1      -1.332  -2.273  24.663  0.00  0.00    +0.130 C 
ATOM     13  C   UNL     1      -0.273  -2.198  23.579  0.00  0.00    +0.116 C 
BRANCH  12   2
ATOM      2  O   UNL     1      -2.254  -3.318  24.424  0.00  0.00    -0.390 OA
ATOM     30  H   UNL     1      -2.805  -3.053  23.667  0.00  0.00    +0.210 HD
ENDBRANCH  12   2
BRANCH   6  14
ATOM     14  C   UNL     1       1.022  -0.408  22.590  0.00  0.00    +0.122 C 
BRANCH  14  16
ATOM      9  N   UNL     1       4.444  -1.361  23.900  0.00  0.00    -0.263 NA
ATOM     16  C   UNL     1       2.482  -0.318  22.948  0.00  0.00    -0.015 A 
ATOM     19  C   UNL     1       3.215   0.834  22.683  0.00  0.00    +0.008 A 
ATOM     20  C   UNL     1       3.137  -1.378  23.553  0.00  0.00    +0.115 A 
ATOM     21  C   UNL     1       4.561   0.889  23.025  0.00  0.00    +0.020 A 
ATOM     23  C   UNL     1       5.124  -0.225  23.626  0.00  0.00    +0.111 A 
ENDBRANCH  14  16
ENDBRANCH   6  14
ENDBRANCH  15  10
BRANCH  17  18
ATOM     18  C   UNL     1      -0.173   4.565  25.700  0.00  0.00    +0.251 C 
BRANCH  18   1
ATOM      1  S   UNL     1      -1.399   5.358  24.697  0.00  0.00    +0.004 S 
ATOM      4  O   UNL     1      -0.927   5.329  23.326  0.00  0.00    -0.169 OA
ATOM      5  O   UNL     1      -1.765   6.615  25.323  0.00  0.00    -0.169 OA
BRANCH   1  22
ATOM     22  C   UNL     1      -2.801   4.291  24.818  0.00  0.00    +0.089 A 
ATOM     24  C   UNL     1      -3.446   4.122  26.043  0.00  0.00    +0.027 A 
ATOM     25  C   UNL     1      -3.261   3.614  23.689  0.00  0.00    +0.027 A 
ATOM     26  C   UNL     1      -5.011   2.600  25.010  0.00  0.00    -0.050 A 
ATOM     27  C   UNL     1      -4.550   3.277  26.139  0.00  0.00    +0.005 A 
ATOM     28  C   UNL     1      -4.367   2.767  23.785  0.00  0.00    +0.005 A 
ATOM     29  C   UNL     1      -6.194   1.696  25.114  0.00  0.00    +0.044 C 
ENDBRANCH   1  22
ENDBRANCH  18   1
ENDBRANCH  17  18
TORSDOF 7
ENDMDL
