MODEL 1
REMARK VINA RESULT:      -4.8      0.000      0.000
REMARK  Name = 75536624
REMARK  8 active torsions:
REMARK  status: ('A' for Active; 'I' for Inactive)
REMARK    1  A    between atoms: O_2  and  C_8
REMARK    2  A    between atoms: O_4  and  C_15
REMARK    3  A    between atoms: N_5  and  C_7
REMARK    4  A    between atoms: N_5  and  C_12
REMARK    5  A    between atoms: N_6  and  C_11
REMARK    6  A    between atoms: C_9  and  C_11
REMARK    7  A    between atoms: C_12  and  C_13
REMARK    8  A    between atoms: C_14  and  C_17
REMARK                            x       y       z     vdW  Elec       q    Type
REMARK                         _______ _______ _______ _____ _____    ______ ____
ROOT
ATOM      1  O   UNL     1       0.157   4.069  23.672  0.00  0.00    -0.371 OA
ATOM      7  C   UNL     1      -1.302   4.662  25.450  0.00  0.00    +0.111 C 
ATOM      8  C   UNL     1      -0.892   3.210  25.610  0.00  0.00    +0.164 C 
ATOM      9  C   UNL     1       0.379   3.170  24.771  0.00  0.00    +0.165 C 
ATOM     10  C   UNL     1      -0.967   4.911  23.989  0.00  0.00    +0.181 C 
ENDROOT
BRANCH   8   2
ATOM      2  O   UNL     1      -0.645   2.857  26.957  0.00  0.00    -0.388 OA
ATOM     27  H   UNL     1       0.063   3.429  27.298  0.00  0.00    +0.210 HD
ENDBRANCH   8   2
BRANCH   7   5
ATOM      5  N   UNL     1      -2.701   4.911  25.761  0.00  0.00    -0.305 NA
ATOM     26  H   UNL     1      -2.820   5.896  25.996  0.00  0.00    +0.123 HD
BRANCH   5  12
ATOM     12  C   UNL     1      -3.556   4.588  24.625  0.00  0.00    +0.120 C 
BRANCH  12  13
ATOM     13  C   UNL     1      -4.291   3.290  24.826  0.00  0.00    +0.008 A 
ATOM     15  C   UNL     1      -3.937   2.152  24.101  0.00  0.00    +0.121 A 
ATOM     16  C   UNL     1      -5.334   3.232  25.749  0.00  0.00    +0.008 A 
ATOM     18  C   UNL     1      -4.627   0.956  24.299  0.00  0.00    +0.046 A 
ATOM     19  C   UNL     1      -6.025   2.036  25.948  0.00  0.00    +0.001 A 
ATOM     20  C   UNL     1      -5.671   0.899  25.223  0.00  0.00    +0.004 A 
BRANCH  15   4
ATOM      4  O   UNL     1      -2.921   2.191  23.194  0.00  0.00    -0.506 OA
ATOM     29  H   UNL     1      -3.181   2.761  22.450  0.00  0.00    +0.292 HD
ENDBRANCH  15   4
ENDBRANCH  12  13
ENDBRANCH   5  12
ENDBRANCH   7   5
BRANCH   9  11
ATOM     11  C   UNL     1       0.705   1.785  24.243  0.00  0.00    +0.138 C 
BRANCH  11   6
ATOM      3  O   UNL     1       0.632  -0.997  23.536  0.00  0.00    -0.270 OA
ATOM      6  N   UNL     1      -0.327   0.845  24.573  0.00  0.00    -0.309 N 
ATOM     14  C   UNL     1      -0.279  -0.492  24.186  0.00  0.00    +0.244 C 
ATOM     28  H   UNL     1      -1.143   1.214  25.048  0.00  0.00    +0.149 HD
BRANCH  14  17
ATOM     17  C   UNL     1      -1.439  -1.332  24.584  0.00  0.00    +0.037 A 
ATOM     21  C   UNL     1      -2.218  -0.969  25.683  0.00  0.00    +0.013 A 
ATOM     22  C   UNL     1      -1.750  -2.481  23.858  0.00  0.00    +0.013 A 
ATOM     23  C   UNL     1      -3.307  -1.756  26.056  0.00  0.00    +0.001 A 
ATOM     24  C   UNL     1      -2.840  -3.268  24.229  0.00  0.00    +0.001 A 
ATOM     25  C   UNL     1      -3.619  -2.905  25.328  0.00  0.00    +0.000 A 
ENDBRANCH  14  17
ENDBRANCH  11   6
ENDBRANCH   9  11
TORSDOF 8
ENDMDL
MODEL 2
REMARK VINA RESULT:      -4.4      1.999      5.741
REMARK  Name = 75536624
REMARK  8 active torsions:
REMARK  status: ('A' for Active; 'I' for Inactive)
REMARK    1  A    between atoms: O_2  and  C_8
REMARK    2  A    between atoms: O_4  and  C_15
REMARK    3  A    between atoms: N_5  and  C_7
REMARK    4  A    between atoms: N_5  and  C_12
REMARK    5  A    between atoms: N_6  and  C_11
REMARK    6  A    between atoms: C_9  and  C_11
REMARK    7  A    between atoms: C_12  and  C_13
REMARK    8  A    between atoms: C_14  and  C_17
REMARK                            x       y       z     vdW  Elec       q    Type
REMARK                         _______ _______ _______ _____ _____    ______ ____
ROOT
ATOM      1  O   UNL     1      -2.489  -3.175  23.605  0.00  0.00    -0.371 OA
ATOM      7  C   UNL     1      -1.248  -2.255  25.409  0.00  0.00    +0.111 C 
ATOM      8  C   UNL     1      -2.634  -1.634  25.393  0.00  0.00    +0.164 C 
ATOM      9  C   UNL     1      -3.408  -2.667  24.585  0.00  0.00    +0.165 C 
ATOM     10  C   UNL     1      -1.153  -2.814  24.000  0.00  0.00    +0.181 C 
ENDROOT
BRANCH   8   2
ATOM      2  O   UNL     1      -3.172  -1.467  26.690  0.00  0.00    -0.388 OA
ATOM     27  H   UNL     1      -3.867  -0.788  26.647  0.00  0.00    +0.210 HD
ENDBRANCH   8   2
BRANCH   7   5
ATOM      5  N   UNL     1      -0.189  -1.308  25.716  0.00  0.00    -0.305 NA
ATOM     26  H   UNL     1       0.650  -1.822  25.984  0.00  0.00    +0.123 HD
BRANCH   5  12
ATOM     12  C   UNL     1       0.119  -0.471  24.562  0.00  0.00    +0.120 C 
BRANCH  12  13
ATOM     13  C   UNL     1      -0.161   0.983  24.832  0.00  0.00    +0.008 A 
ATOM     15  C   UNL     1       0.576   1.980  24.193  0.00  0.00    +0.121 A 
ATOM     16  C   UNL     1      -1.170   1.328  25.729  0.00  0.00    +0.008 A 
ATOM     18  C   UNL     1       0.305   3.323  24.454  0.00  0.00    +0.046 A 
ATOM     19  C   UNL     1      -1.442   2.671  25.991  0.00  0.00    +0.001 A 
ATOM     20  C   UNL     1      -0.705   3.668  25.353  0.00  0.00    +0.004 A 
BRANCH  15   4
ATOM      4  O   UNL     1       1.566   1.660  23.313  0.00  0.00    -0.506 OA
ATOM     29  H   UNL     1       2.192   1.054  23.746  0.00  0.00    +0.292 HD
ENDBRANCH  15   4
ENDBRANCH  12  13
ENDBRANCH   5  12
ENDBRANCH   7   5
BRANCH   9  11
ATOM     11  C   UNL     1      -4.631  -2.094  23.894  0.00  0.00    +0.138 C 
BRANCH  11   6
ATOM      3  O   UNL     1      -3.206   0.217  22.961  0.00  0.00    -0.270 OA
ATOM      6  N   UNL     1      -4.859  -0.732  24.283  0.00  0.00    -0.309 N 
ATOM     14  C   UNL     1      -4.116   0.331  23.776  0.00  0.00    +0.244 C 
ATOM     28  H   UNL     1      -5.550  -0.576  25.009  0.00  0.00    +0.149 HD
BRANCH  14  17
ATOM     17  C   UNL     1      -4.457   1.679  24.300  0.00  0.00    +0.037 A 
ATOM     21  C   UNL     1      -5.309   1.806  25.397  0.00  0.00    +0.013 A 
ATOM     22  C   UNL     1      -3.925   2.818  23.695  0.00  0.00    +0.013 A 
ATOM     23  C   UNL     1      -5.630   3.071  25.888  0.00  0.00    +0.001 A 
ATOM     24  C   UNL     1      -4.243   4.083  24.187  0.00  0.00    +0.001 A 
ATOM     25  C   UNL     1      -5.096   4.209  25.284  0.00  0.00    +0.000 A 
ENDBRANCH  14  17
ENDBRANCH  11   6
ENDBRANCH   9  11
TORSDOF 8
ENDMDL
MODEL 3
REMARK VINA RESULT:      -4.2      1.735      5.056
REMARK  Name = 75536624
REMARK  8 active torsions:
REMARK  status: ('A' for Active; 'I' for Inactive)
REMARK    1  A    between atoms: O_2  and  C_8
REMARK    2  A    between atoms: O_4  and  C_15
REMARK    3  A    between atoms: N_5  and  C_7
REMARK    4  A    between atoms: N_5  and  C_12
REMARK    5  A    between atoms: N_6  and  C_11
REMARK    6  A    between atoms: C_9  and  C_11
REMARK    7  A    between atoms: C_12  and  C_13
REMARK    8  A    between atoms: C_14  and  C_17
REMARK                            x       y       z     vdW  Elec       q    Type
REMARK                         _______ _______ _______ _____ _____    ______ ____
ROOT
ATOM      1  O   UNL     1      -1.377  -2.104  23.537  0.00  0.00    -0.371 OA
ATOM      7  C   UNL     1       0.133  -0.691  24.706  0.00  0.00    +0.111 C 
ATOM      8  C   UNL     1      -1.155  -0.805  25.501  0.00  0.00    +0.164 C 
ATOM      9  C   UNL     1      -1.741  -2.088  24.927  0.00  0.00    +0.165 C 
ATOM     10  C   UNL     1      -0.322  -1.148  23.330  0.00  0.00    +0.181 C 
ENDROOT
BRANCH   8   2
ATOM      2  O   UNL     1      -0.930  -0.905  26.894  0.00  0.00    -0.388 OA
ATOM     27  H   UNL     1      -1.784  -1.062  27.330  0.00  0.00    +0.210 HD
ENDBRANCH   8   2
BRANCH   7   5
ATOM      5  N   UNL     1       0.699   0.649  24.701  0.00  0.00    -0.305 NA
ATOM     26  H   UNL     1       1.670   0.599  24.393  0.00  0.00    +0.123 HD
BRANCH   5  12
ATOM     12  C   UNL     1      -0.038   1.526  23.799  0.00  0.00    +0.120 C 
BRANCH  12  13
ATOM     13  C   UNL     1      -0.662   2.685  24.529  0.00  0.00    +0.008 A 
ATOM     15  C   UNL     1      -0.490   3.991  24.071  0.00  0.00    +0.121 A 
ATOM     16  C   UNL     1      -1.420   2.441  25.674  0.00  0.00    +0.008 A 
ATOM     18  C   UNL     1      -1.075   5.054  24.759  0.00  0.00    +0.046 A 
ATOM     19  C   UNL     1      -2.005   3.504  26.363  0.00  0.00    +0.001 A 
ATOM     20  C   UNL     1      -1.833   4.810  25.905  0.00  0.00    +0.004 A 
BRANCH  15   4
ATOM      4  O   UNL     1       0.247   4.247  22.955  0.00  0.00    -0.506 OA
ATOM     29  H   UNL     1       1.155   4.478  23.219  0.00  0.00    +0.292 HD
ENDBRANCH  15   4
ENDBRANCH  12  13
ENDBRANCH   5  12
ENDBRANCH   7   5
BRANCH   9  11
ATOM     11  C   UNL     1      -3.251  -2.170  25.063  0.00  0.00    +0.138 C 
BRANCH  11   6
ATOM      3  O   UNL     1      -3.730  -0.139  23.091  0.00  0.00    -0.270 OA
ATOM      6  N   UNL     1      -3.825  -0.876  25.289  0.00  0.00    -0.309 N 
ATOM     14  C   UNL     1      -4.022   0.051  24.268  0.00  0.00    +0.244 C 
ATOM     28  H   UNL     1      -4.023  -0.628  26.253  0.00  0.00    +0.149 HD
BRANCH  14  17
ATOM     17  C   UNL     1      -4.604   1.358  24.671  0.00  0.00    +0.037 A 
ATOM     21  C   UNL     1      -5.477   1.427  25.756  0.00  0.00    +0.013 A 
ATOM     22  C   UNL     1      -4.274   2.515  23.966  0.00  0.00    +0.013 A 
ATOM     23  C   UNL     1      -6.024   2.653  26.134  0.00  0.00    +0.001 A 
ATOM     24  C   UNL     1      -4.818   3.741  24.345  0.00  0.00    +0.001 A 
ATOM     25  C   UNL     1      -5.693   3.810  25.429  0.00  0.00    +0.000 A 
ENDBRANCH  14  17
ENDBRANCH  11   6
ENDBRANCH   9  11
TORSDOF 8
ENDMDL
MODEL 4
REMARK VINA RESULT:      -4.1      2.758      6.946
REMARK  Name = 75536624
REMARK  8 active torsions:
REMARK  status: ('A' for Active; 'I' for Inactive)
REMARK    1  A    between atoms: O_2  and  C_8
REMARK    2  A    between atoms: O_4  and  C_15
REMARK    3  A    between atoms: N_5  and  C_7
REMARK    4  A    between atoms: N_5  and  C_12
REMARK    5  A    between atoms: N_6  and  C_11
REMARK    6  A    between atoms: C_9  and  C_11
REMARK    7  A    between atoms: C_12  and  C_13
REMARK    8  A    between atoms: C_14  and  C_17
REMARK                            x       y       z     vdW  Elec       q    Type
REMARK                         _______ _______ _______ _____ _____    ______ ____
ROOT
ATOM      1  O   UNL     1      -1.682  -2.653  23.889  0.00  0.00    -0.371 OA
ATOM      7  C   UNL     1       0.028  -1.086  24.397  0.00  0.00    +0.111 C 
ATOM      8  C   UNL     1      -1.162  -0.832  25.305  0.00  0.00    +0.164 C 
ATOM      9  C   UNL     1      -1.879  -2.174  25.228  0.00  0.00    +0.165 C 
ATOM     10  C   UNL     1      -0.609  -1.906  23.288  0.00  0.00    +0.181 C 
ENDROOT
BRANCH   8   2
ATOM      2  O   UNL     1      -0.780  -0.513  26.629  0.00  0.00    -0.388 OA
ATOM     27  H   UNL     1      -1.451   0.081  27.005  0.00  0.00    +0.210 HD
ENDBRANCH   8   2
BRANCH   7   5
ATOM      5  N   UNL     1       0.660   0.130  23.911  0.00  0.00    -0.305 NA
ATOM     26  H   UNL     1       1.229   0.531  24.657  0.00  0.00    +0.123 HD
BRANCH   5  12
ATOM     12  C   UNL     1       1.513  -0.145  22.761  0.00  0.00    +0.120 C 
BRANCH  12  13
ATOM     13  C   UNL     1       2.964  -0.247  23.150  0.00  0.00    +0.008 A 
ATOM     15  C   UNL     1       3.801   0.867  23.076  0.00  0.00    +0.121 A 
ATOM     16  C   UNL     1       3.468  -1.470  23.589  0.00  0.00    +0.008 A 
ATOM     18  C   UNL     1       5.143   0.756  23.440  0.00  0.00    +0.046 A 
ATOM     19  C   UNL     1       4.810  -1.582  23.953  0.00  0.00    +0.001 A 
ATOM     20  C   UNL     1       5.647  -0.469  23.878  0.00  0.00    +0.004 A 
BRANCH  15   4
ATOM      4  O   UNL     1       3.325   2.070  22.649  0.00  0.00    -0.506 OA
ATOM     29  H   UNL     1       3.746   2.780  23.165  0.00  0.00    +0.292 HD
ENDBRANCH  15   4
ENDBRANCH  12  13
ENDBRANCH   5  12
ENDBRANCH   7   5
BRANCH   9  11
ATOM     11  C   UNL     1      -3.365  -2.076  25.526  0.00  0.00    +0.138 C 
BRANCH  11   6
ATOM      3  O   UNL     1      -4.051  -0.310  23.369  0.00  0.00    -0.270 OA
ATOM      6  N   UNL     1      -3.785  -0.709  25.639  0.00  0.00    -0.309 N 
ATOM     14  C   UNL     1      -4.100   0.076  24.533  0.00  0.00    +0.244 C 
ATOM     28  H   UNL     1      -3.777  -0.307  26.570  0.00  0.00    +0.149 HD
BRANCH  14  17
ATOM     17  C   UNL     1      -4.493   1.481  24.817  0.00  0.00    +0.037 A 
ATOM     21  C   UNL     1      -5.668   1.747  25.520  0.00  0.00    +0.013 A 
ATOM     22  C   UNL     1      -3.686   2.532  24.382  0.00  0.00    +0.013 A 
ATOM     23  C   UNL     1      -6.037   3.066  25.787  0.00  0.00    +0.001 A 
ATOM     24  C   UNL     1      -4.054   3.850  24.650  0.00  0.00    +0.001 A 
ATOM     25  C   UNL     1      -5.229   4.117  25.353  0.00  0.00    +0.000 A 
ENDBRANCH  14  17
ENDBRANCH  11   6
ENDBRANCH   9  11
TORSDOF 8
ENDMDL
MODEL 5
REMARK VINA RESULT:      -4.1      2.017      4.392
REMARK  Name = 75536624
REMARK  8 active torsions:
REMARK  status: ('A' for Active; 'I' for Inactive)
REMARK    1  A    between atoms: O_2  and  C_8
REMARK    2  A    between atoms: O_4  and  C_15
REMARK    3  A    between atoms: N_5  and  C_7
REMARK    4  A    between atoms: N_5  and  C_12
REMARK    5  A    between atoms: N_6  and  C_11
REMARK    6  A    between atoms: C_9  and  C_11
REMARK    7  A    between atoms: C_12  and  C_13
REMARK    8  A    between atoms: C_14  and  C_17
REMARK                            x       y       z     vdW  Elec       q    Type
REMARK                         _______ _______ _______ _____ _____    ______ ____
ROOT
ATOM      1  O   UNL     1      -3.017   3.771  23.520  0.00  0.00    -0.371 OA
ATOM      7  C   UNL     1      -4.410   2.763  25.159  0.00  0.00    +0.111 C 
ATOM      8  C   UNL     1      -3.132   3.244  25.823  0.00  0.00    +0.164 C 
ATOM      9  C   UNL     1      -2.648   4.277  24.813  0.00  0.00    +0.165 C 
ATOM     10  C   UNL     1      -3.995   2.731  23.698  0.00  0.00    +0.181 C 
ENDROOT
BRANCH   8   2
ATOM      2  O   UNL     1      -3.361   3.818  27.096  0.00  0.00    -0.388 OA
ATOM     27  H   UNL     1      -2.678   4.491  27.254  0.00  0.00    +0.210 HD
ENDBRANCH   8   2
BRANCH   7   5
ATOM      5  N   UNL     1      -4.870   1.473  25.646  0.00  0.00    -0.305 NA
ATOM     26  H   UNL     1      -5.845   1.555  25.936  0.00  0.00    +0.123 HD
BRANCH   5  12
ATOM     12  C   UNL     1      -4.770   0.453  24.609  0.00  0.00    +0.120 C 
BRANCH  12  13
ATOM     13  C   UNL     1      -3.603  -0.469  24.840  0.00  0.00    +0.008 A 
ATOM     15  C   UNL     1      -3.590  -1.751  24.290  0.00  0.00    +0.121 A 
ATOM     16  C   UNL     1      -2.529  -0.030  25.611  0.00  0.00    +0.008 A 
ATOM     18  C   UNL     1      -2.501  -2.594  24.513  0.00  0.00    +0.046 A 
ATOM     19  C   UNL     1      -1.439  -0.873  25.835  0.00  0.00    +0.001 A 
ATOM     20  C   UNL     1      -1.426  -2.154  25.286  0.00  0.00    +0.004 A 
BRANCH  15   4
ATOM      4  O   UNL     1      -4.632  -2.197  23.534  0.00  0.00    -0.506 OA
ATOM     29  H   UNL     1      -4.582  -1.789  22.652  0.00  0.00    +0.292 HD
ENDBRANCH  15   4
ENDBRANCH  12  13
ENDBRANCH   5  12
ENDBRANCH   7   5
BRANCH   9  11
ATOM     11  C   UNL     1      -1.149   4.509  24.866  0.00  0.00    +0.138 C 
BRANCH  11   6
ATOM      3  O   UNL     1       0.230   2.248  25.973  0.00  0.00    -0.270 OA
ATOM      6  N   UNL     1      -0.439   3.498  24.137  0.00  0.00    -0.309 N 
ATOM     14  C   UNL     1       0.204   2.432  24.759  0.00  0.00    +0.244 C 
ATOM     28  H   UNL     1      -0.362   3.631  23.134  0.00  0.00    +0.149 HD
BRANCH  14  17
ATOM     17  C   UNL     1       0.918   1.484  23.865  0.00  0.00    +0.037 A 
ATOM     21  C   UNL     1       0.226   0.428  23.273  0.00  0.00    +0.013 A 
ATOM     22  C   UNL     1       2.280   1.653  23.617  0.00  0.00    +0.013 A 
ATOM     23  C   UNL     1       0.897  -0.462  22.434  0.00  0.00    +0.001 A 
ATOM     24  C   UNL     1       2.951   0.765  22.775  0.00  0.00    +0.001 A 
ATOM     25  C   UNL     1       2.259  -0.292  22.184  0.00  0.00    +0.000 A 
ENDBRANCH  14  17
ENDBRANCH  11   6
ENDBRANCH   9  11
TORSDOF 8
ENDMDL
MODEL 6
REMARK VINA RESULT:      -4.0     15.139     17.662
REMARK  Name = 75536624
REMARK  8 active torsions:
REMARK  status: ('A' for Active; 'I' for Inactive)
REMARK    1  A    between atoms: O_2  and  C_8
REMARK    2  A    between atoms: O_4  and  C_15
REMARK    3  A    between atoms: N_5  and  C_7
REMARK    4  A    between atoms: N_5  and  C_12
REMARK    5  A    between atoms: N_6  and  C_11
REMARK    6  A    between atoms: C_9  and  C_11
REMARK    7  A    between atoms: C_12  and  C_13
REMARK    8  A    between atoms: C_14  and  C_17
REMARK                            x       y       z     vdW  Elec       q    Type
REMARK                         _______ _______ _______ _____ _____    ______ ____
ROOT
ATOM      1  O   UNL     1      -4.529  -9.274  11.514  0.00  0.00    -0.371 OA
ATOM      7  C   UNL     1      -6.680  -9.303  10.506  0.00  0.00    +0.111 C 
ATOM      8  C   UNL     1      -6.684 -10.228  11.709  0.00  0.00    +0.164 C 
ATOM      9  C   UNL     1      -5.492  -9.695  12.493  0.00  0.00    +0.165 C 
ATOM     10  C   UNL     1      -5.190  -9.162  10.241  0.00  0.00    +0.181 C 
ENDROOT
BRANCH   8   2
ATOM      2  O   UNL     1      -7.884 -10.149  12.454  0.00  0.00    -0.388 OA
ATOM     27  H   UNL     1      -8.517  -9.605  11.957  0.00  0.00    +0.210 HD
ENDBRANCH   8   2
BRANCH   7   5
ATOM      5  N   UNL     1      -7.411  -9.827   9.364  0.00  0.00    -0.305 NA
ATOM     26  H   UNL     1      -8.401  -9.892   9.604  0.00  0.00    +0.123 HD
BRANCH   5  12
ATOM     12  C   UNL     1      -7.262  -8.960   8.202  0.00  0.00    +0.120 C 
BRANCH  12  13
ATOM     13  C   UNL     1      -8.245  -7.819   8.222  0.00  0.00    +0.008 A 
ATOM     15  C   UNL     1      -9.618  -8.062   8.185  0.00  0.00    +0.121 A 
ATOM     16  C   UNL     1      -7.769  -6.511   8.280  0.00  0.00    +0.008 A 
ATOM     18  C   UNL     1     -10.515  -6.994   8.205  0.00  0.00    +0.046 A 
ATOM     19  C   UNL     1      -8.666  -5.442   8.301  0.00  0.00    +0.001 A 
ATOM     20  C   UNL     1     -10.039  -5.684   8.263  0.00  0.00    +0.004 A 
BRANCH  15   4
ATOM      4  O   UNL     1     -10.100  -9.335   8.127  0.00  0.00    -0.506 OA
ATOM     29  H   UNL     1      -9.819  -9.744   7.290  0.00  0.00    +0.292 HD
ENDBRANCH  15   4
ENDBRANCH  12  13
ENDBRANCH   5  12
ENDBRANCH   7   5
BRANCH   9  11
ATOM     11  C   UNL     1      -4.870 -10.729  13.414  0.00  0.00    +0.138 C 
BRANCH  11   6
ATOM      3  O   UNL     1      -3.621 -10.382  15.976  0.00  0.00    -0.270 OA
ATOM      6  N   UNL     1      -5.520 -10.747  14.693  0.00  0.00    -0.309 N 
ATOM     14  C   UNL     1      -4.832 -10.569  15.890  0.00  0.00    +0.244 C 
ATOM     28  H   UNL     1      -6.510 -10.968  14.697  0.00  0.00    +0.149 HD
BRANCH  14  17
ATOM     17  C   UNL     1      -5.646 -10.641  17.132  0.00  0.00    +0.037 A 
ATOM     21  C   UNL     1      -5.017 -10.714  18.374  0.00  0.00    +0.013 A 
ATOM     22  C   UNL     1      -7.038 -10.634  17.053  0.00  0.00    +0.013 A 
ATOM     23  C   UNL     1      -5.781 -10.781  19.539  0.00  0.00    +0.001 A 
ATOM     24  C   UNL     1      -7.802 -10.699  18.218  0.00  0.00    +0.001 A 
ATOM     25  C   UNL     1      -7.173 -10.772  19.461  0.00  0.00    +0.000 A 
ENDBRANCH  14  17
ENDBRANCH  11   6
ENDBRANCH   9  11
TORSDOF 8
ENDMDL
MODEL 7
REMARK VINA RESULT:      -3.9     14.595     17.473
REMARK  Name = 75536624
REMARK  8 active torsions:
REMARK  status: ('A' for Active; 'I' for Inactive)
REMARK    1  A    between atoms: O_2  and  C_8
REMARK    2  A    between atoms: O_4  and  C_15
REMARK    3  A    between atoms: N_5  and  C_7
REMARK    4  A    between atoms: N_5  and  C_12
REMARK    5  A    between atoms: N_6  and  C_11
REMARK    6  A    between atoms: C_9  and  C_11
REMARK    7  A    between atoms: C_12  and  C_13
REMARK    8  A    between atoms: C_14  and  C_17
REMARK                            x       y       z     vdW  Elec       q    Type
REMARK                         _______ _______ _______ _____ _____    ______ ____
ROOT
ATOM      1  O   UNL     1      -2.150  -9.728  12.343  0.00  0.00    -0.371 OA
ATOM      7  C   UNL     1      -3.846  -9.922  10.691  0.00  0.00    +0.111 C 
ATOM      8  C   UNL     1      -4.318 -10.596  11.967  0.00  0.00    +0.164 C 
ATOM      9  C   UNL     1      -3.411  -9.938  12.999  0.00  0.00    +0.165 C 
ATOM     10  C   UNL     1      -2.346  -9.856  10.923  0.00  0.00    +0.181 C 
ENDROOT
BRANCH   8   2
ATOM      2  O   UNL     1      -5.686 -10.357  12.237  0.00  0.00    -0.388 OA
ATOM     27  H   UNL     1      -6.195 -11.129  11.940  0.00  0.00    +0.210 HD
ENDBRANCH   8   2
BRANCH   7   5
ATOM      5  N   UNL     1      -4.201 -10.648   9.482  0.00  0.00    -0.305 NA
ATOM     26  H   UNL     1      -4.835 -11.410   9.725  0.00  0.00    +0.123 HD
BRANCH   5  12
ATOM     12  C   UNL     1      -4.860  -9.774   8.519  0.00  0.00    +0.120 C 
BRANCH  12  13
ATOM     13  C   UNL     1      -6.329  -9.625   8.810  0.00  0.00    +0.008 A 
ATOM     15  C   UNL     1      -6.894  -8.362   8.994  0.00  0.00    +0.121 A 
ATOM     16  C   UNL     1      -7.127 -10.764   8.894  0.00  0.00    +0.008 A 
ATOM     18  C   UNL     1      -8.257  -8.240   9.263  0.00  0.00    +0.046 A 
ATOM     19  C   UNL     1      -8.491 -10.643   9.163  0.00  0.00    +0.001 A 
ATOM     20  C   UNL     1      -9.055  -9.381   9.348  0.00  0.00    +0.004 A 
BRANCH  15   4
ATOM      4  O   UNL     1      -6.128  -7.238   8.917  0.00  0.00    -0.506 OA
ATOM     29  H   UNL     1      -6.197  -6.868   8.019  0.00  0.00    +0.292 HD
ENDBRANCH  15   4
ENDBRANCH  12  13
ENDBRANCH   5  12
ENDBRANCH   7   5
BRANCH   9  11
ATOM     11  C   UNL     1      -3.209 -10.781  14.244  0.00  0.00    +0.138 C 
BRANCH  11   6
ATOM      3  O   UNL     1      -3.138 -10.658  17.112  0.00  0.00    -0.270 OA
ATOM      6  N   UNL     1      -4.337 -10.689  15.126  0.00  0.00    -0.309 N 
ATOM     14  C   UNL     1      -4.208 -10.633  16.511  0.00  0.00    +0.244 C 
ATOM     28  H   UNL     1      -5.255 -10.736  14.696  0.00  0.00    +0.149 HD
BRANCH  14  17
ATOM     17  C   UNL     1      -5.474 -10.566  17.286  0.00  0.00    +0.037 A 
ATOM     21  C   UNL     1      -6.698 -10.512  16.618  0.00  0.00    +0.013 A 
ATOM     22  C   UNL     1      -5.439 -10.558  18.680  0.00  0.00    +0.013 A 
ATOM     23  C   UNL     1      -7.886 -10.449  17.345  0.00  0.00    +0.001 A 
ATOM     24  C   UNL     1      -6.627 -10.497  19.407  0.00  0.00    +0.001 A 
ATOM     25  C   UNL     1      -7.851 -10.443  18.740  0.00  0.00    +0.000 A 
ENDBRANCH  14  17
ENDBRANCH  11   6
ENDBRANCH   9  11
TORSDOF 8
ENDMDL
MODEL 8
REMARK VINA RESULT:      -3.3      1.453      4.702
REMARK  Name = 75536624
REMARK  8 active torsions:
REMARK  status: ('A' for Active; 'I' for Inactive)
REMARK    1  A    between atoms: O_2  and  C_8
REMARK    2  A    between atoms: O_4  and  C_15
REMARK    3  A    between atoms: N_5  and  C_7
REMARK    4  A    between atoms: N_5  and  C_12
REMARK    5  A    between atoms: N_6  and  C_11
REMARK    6  A    between atoms: C_9  and  C_11
REMARK    7  A    between atoms: C_12  and  C_13
REMARK    8  A    between atoms: C_14  and  C_17
REMARK                            x       y       z     vdW  Elec       q    Type
REMARK                         _______ _______ _______ _____ _____    ______ ____
ROOT
ATOM      1  O   UNL     1       0.164   3.737  25.963  0.00  0.00    -0.371 OA
ATOM      7  C   UNL     1       0.386   1.684  24.787  0.00  0.00    +0.111 C 
ATOM      8  C   UNL     1      -0.692   2.522  24.123  0.00  0.00    +0.164 C 
ATOM      9  C   UNL     1      -0.334   3.914  24.627  0.00  0.00    +0.165 C 
ATOM     10  C   UNL     1       0.483   2.346  26.152  0.00  0.00    +0.181 C 
ENDROOT
BRANCH   8   2
ATOM      2  O   UNL     1      -0.651   2.445  22.711  0.00  0.00    -0.388 OA
ATOM     27  H   UNL     1      -1.180   1.679  22.432  0.00  0.00    +0.210 HD
ENDBRANCH   8   2
BRANCH   7   5
ATOM      5  N   UNL     1       0.060   0.270  24.865  0.00  0.00    -0.305 NA
ATOM     26  H   UNL     1       0.873  -0.241  25.213  0.00  0.00    +0.123 HD
BRANCH   5  12
ATOM     12  C   UNL     1      -1.064   0.038  25.764  0.00  0.00    +0.120 C 
BRANCH  12  13
ATOM     13  C   UNL     1      -2.128  -0.814  25.125  0.00  0.00    +0.008 A 
ATOM     15  C   UNL     1      -1.892  -2.161  24.851  0.00  0.00    +0.121 A 
ATOM     16  C   UNL     1      -3.359  -0.242  24.808  0.00  0.00    +0.008 A 
ATOM     18  C   UNL     1      -2.888  -2.937  24.258  0.00  0.00    +0.046 A 
ATOM     19  C   UNL     1      -4.356  -1.018  24.215  0.00  0.00    +0.001 A 
ATOM     20  C   UNL     1      -4.120  -2.365  23.940  0.00  0.00    +0.004 A 
BRANCH  15   4
ATOM      4  O   UNL     1      -0.694  -2.735  25.153  0.00  0.00    -0.506 OA
ATOM     29  H   UNL     1      -0.251  -3.000  24.328  0.00  0.00    +0.292 HD
ENDBRANCH  15   4
ENDBRANCH  12  13
ENDBRANCH   5  12
ENDBRANCH   7   5
BRANCH   9  11
ATOM     11  C   UNL     1      -1.514   4.868  24.641  0.00  0.00    +0.138 C 
BRANCH  11   6
ATOM      3  O   UNL     1      -2.978   3.933  26.927  0.00  0.00    -0.270 OA
ATOM      6  N   UNL     1      -2.759   4.157  24.628  0.00  0.00    -0.309 N 
ATOM     14  C   UNL     1      -3.401   3.740  25.791  0.00  0.00    +0.244 C 
ATOM     28  H   UNL     1      -3.128   3.903  23.717  0.00  0.00    +0.149 HD
BRANCH  14  17
ATOM     17  C   UNL     1      -4.672   2.991  25.606  0.00  0.00    +0.037 A 
ATOM     21  C   UNL     1      -5.447   2.650  26.714  0.00  0.00    +0.013 A 
ATOM     22  C   UNL     1      -5.089   2.632  24.325  0.00  0.00    +0.013 A 
ATOM     23  C   UNL     1      -6.639   1.947  26.541  0.00  0.00    +0.001 A 
ATOM     24  C   UNL     1      -6.282   1.931  24.151  0.00  0.00    +0.001 A 
ATOM     25  C   UNL     1      -7.057   1.589  25.259  0.00  0.00    +0.000 A 
ENDBRANCH  14  17
ENDBRANCH  11   6
ENDBRANCH   9  11
TORSDOF 8
ENDMDL
MODEL 9
REMARK VINA RESULT:      -3.3     14.381     17.160
REMARK  Name = 75536624
REMARK  8 active torsions:
REMARK  status: ('A' for Active; 'I' for Inactive)
REMARK    1  A    between atoms: O_2  and  C_8
REMARK    2  A    between atoms: O_4  and  C_15
REMARK    3  A    between atoms: N_5  and  C_7
REMARK    4  A    between atoms: N_5  and  C_12
REMARK    5  A    between atoms: N_6  and  C_11
REMARK    6  A    between atoms: C_9  and  C_11
REMARK    7  A    between atoms: C_12  and  C_13
REMARK    8  A    between atoms: C_14  and  C_17
REMARK                            x       y       z     vdW  Elec       q    Type
REMARK                         _______ _______ _______ _____ _____    ______ ____
ROOT
ATOM      1  O   UNL     1      -2.594 -10.420  13.260  0.00  0.00    -0.371 OA
ATOM      7  C   UNL     1      -4.137 -10.765  15.032  0.00  0.00    +0.111 C 
ATOM      8  C   UNL     1      -4.876 -10.191  13.837  0.00  0.00    +0.164 C 
ATOM      9  C   UNL     1      -3.914 -10.533  12.706  0.00  0.00    +0.165 C 
ATOM     10  C   UNL     1      -2.698 -10.411  14.695  0.00  0.00    +0.181 C 
ENDROOT
BRANCH   8   2
ATOM      2  O   UNL     1      -6.147 -10.781  13.645  0.00  0.00    -0.388 OA
ATOM     27  H   UNL     1      -6.080 -11.726  13.862  0.00  0.00    +0.210 HD
ENDBRANCH   8   2
BRANCH   7   5
ATOM      5  N   UNL     1      -4.572 -10.216  16.306  0.00  0.00    -0.305 NA
ATOM     26  H   UNL     1      -3.799  -9.701  16.728  0.00  0.00    +0.123 HD
BRANCH   5  12
ATOM     12  C   UNL     1      -5.702  -9.312  16.130  0.00  0.00    +0.120 C 
BRANCH  12  13
ATOM     13  C   UNL     1      -6.890  -9.730  16.955  0.00  0.00    +0.008 A 
ATOM     15  C   UNL     1      -6.721 -10.208  18.255  0.00  0.00    +0.121 A 
ATOM     16  C   UNL     1      -8.168  -9.634  16.407  0.00  0.00    +0.008 A 
ATOM     18  C   UNL     1      -7.832 -10.591  19.006  0.00  0.00    +0.046 A 
ATOM     19  C   UNL     1      -9.280 -10.017  17.158  0.00  0.00    +0.001 A 
ATOM     20  C   UNL     1      -9.111 -10.496  18.457  0.00  0.00    +0.004 A 
BRANCH  15   4
ATOM      4  O   UNL     1      -5.479 -10.308  18.805  0.00  0.00    -0.506 OA
ATOM     29  H   UNL     1      -4.960 -10.960  18.301  0.00  0.00    +0.292 HD
ENDBRANCH  15   4
ENDBRANCH  12  13
ENDBRANCH   5  12
ENDBRANCH   7   5
BRANCH   9  11
ATOM     11  C   UNL     1      -4.049  -9.613  11.506  0.00  0.00    +0.138 C 
BRANCH  11   6
ATOM      3  O   UNL     1      -5.384  -7.592   9.966  0.00  0.00    -0.270 OA
ATOM      6  N   UNL     1      -5.356  -9.705  10.923  0.00  0.00    -0.309 N 
ATOM     14  C   UNL     1      -5.928  -8.669  10.188  0.00  0.00    +0.244 C 
ATOM     28  H   UNL     1      -5.889 -10.543  11.130  0.00  0.00    +0.149 HD
BRANCH  14  17
ATOM     17  C   UNL     1      -7.301  -8.910   9.673  0.00  0.00    +0.037 A 
ATOM     21  C   UNL     1      -7.878  -8.009   8.780  0.00  0.00    +0.013 A 
ATOM     22  C   UNL     1      -8.010 -10.040  10.082  0.00  0.00    +0.013 A 
ATOM     23  C   UNL     1      -9.167  -8.235   8.296  0.00  0.00    +0.001 A 
ATOM     24  C   UNL     1      -9.298 -10.268   9.597  0.00  0.00    +0.001 A 
ATOM     25  C   UNL     1      -9.876  -9.365   8.704  0.00  0.00    +0.000 A 
ENDBRANCH  14  17
ENDBRANCH  11   6
ENDBRANCH   9  11
TORSDOF 8
ENDMDL
MODEL 10
REMARK VINA RESULT:      -1.4      2.168      6.540
REMARK  Name = 75536624
REMARK  8 active torsions:
REMARK  status: ('A' for Active; 'I' for Inactive)
REMARK    1  A    between atoms: O_2  and  C_8
REMARK    2  A    between atoms: O_4  and  C_15
REMARK    3  A    between atoms: N_5  and  C_7
REMARK    4  A    between atoms: N_5  and  C_12
REMARK    5  A    between atoms: N_6  and  C_11
REMARK    6  A    between atoms: C_9  and  C_11
REMARK    7  A    between atoms: C_12  and  C_13
REMARK    8  A    between atoms: C_14  and  C_17
REMARK                            x       y       z     vdW  Elec       q    Type
REMARK                         _______ _______ _______ _____ _____    ______ ____
ROOT
ATOM      1  O   UNL     1      -4.594  -1.916  23.424  0.00  0.00    -0.371 OA
ATOM      7  C   UNL     1      -2.811  -2.599  24.838  0.00  0.00    +0.111 C 
ATOM      8  C   UNL     1      -3.356  -1.271  25.333  0.00  0.00    +0.164 C 
ATOM      9  C   UNL     1      -4.740  -1.266  24.697  0.00  0.00    +0.165 C 
ATOM     10  C   UNL     1      -3.346  -2.631  23.415  0.00  0.00    +0.181 C 
ENDROOT
BRANCH   8   2
ATOM      2  O   UNL     1      -3.423  -1.200  26.744  0.00  0.00    -0.388 OA
ATOM     27  H   UNL     1      -3.521  -2.103  27.090  0.00  0.00    +0.210 HD
ENDBRANCH   8   2
BRANCH   7   5
ATOM      5  N   UNL     1      -1.362  -2.695  24.901  0.00  0.00    -0.305 NA
ATOM     26  H   UNL     1      -0.985  -2.670  23.954  0.00  0.00    +0.123 HD
BRANCH   5  12
ATOM     12  C   UNL     1      -0.795  -1.591  25.666  0.00  0.00    +0.120 C 
BRANCH  12  13
ATOM     13  C   UNL     1      -0.145  -0.567  24.775  0.00  0.00    +0.008 A 
ATOM     15  C   UNL     1      -0.165   0.786  25.113  0.00  0.00    +0.121 A 
ATOM     16  C   UNL     1       0.482  -0.983  23.602  0.00  0.00    +0.008 A 
ATOM     18  C   UNL     1       0.442   1.723  24.277  0.00  0.00    +0.046 A 
ATOM     19  C   UNL     1       1.089  -0.047  22.764  0.00  0.00    +0.001 A 
ATOM     20  C   UNL     1       1.069   1.306  23.102  0.00  0.00    +0.004 A 
BRANCH  15   4
ATOM      4  O   UNL     1      -0.774   1.211  26.256  0.00  0.00    -0.506 OA
ATOM     29  H   UNL     1      -0.799   0.476  26.894  0.00  0.00    +0.292 HD
ENDBRANCH  15   4
ENDBRANCH  12  13
ENDBRANCH   5  12
ENDBRANCH   7   5
BRANCH   9  11
ATOM     11  C   UNL     1      -5.304   0.129  24.500  0.00  0.00    +0.138 C 
BRANCH  11   6
ATOM      3  O   UNL     1      -5.664   2.903  25.148  0.00  0.00    -0.270 OA
ATOM      6  N   UNL     1      -4.277   1.126  24.601  0.00  0.00    -0.309 N 
ATOM     14  C   UNL     1      -4.544   2.454  24.923  0.00  0.00    +0.244 C 
ATOM     28  H   UNL     1      -3.336   0.836  24.356  0.00  0.00    +0.149 HD
BRANCH  14  17
ATOM     17  C   UNL     1      -3.373   3.368  24.962  0.00  0.00    +0.037 A 
ATOM     21  C   UNL     1      -2.448   3.361  23.919  0.00  0.00    +0.013 A 
ATOM     22  C   UNL     1      -3.202   4.234  26.042  0.00  0.00    +0.013 A 
ATOM     23  C   UNL     1      -1.349   4.220  23.955  0.00  0.00    +0.001 A 
ATOM     24  C   UNL     1      -2.104   5.094  26.078  0.00  0.00    +0.001 A 
ATOM     25  C   UNL     1      -1.178   5.087  25.034  0.00  0.00    +0.000 A 
ENDBRANCH  14  17
ENDBRANCH  11   6
ENDBRANCH   9  11
TORSDOF 8
ENDMDL
