MODEL 1
REMARK VINA RESULT:       0.8      0.000      0.000
REMARK  Name = 51136659
REMARK  10 active torsions:
REMARK  status: ('A' for Active; 'I' for Inactive)
REMARK    1  A    between atoms: O_2  and  C_16
REMARK    2  A    between atoms: O_4  and  C_26
REMARK    3  A    between atoms: O_4  and  C_33
REMARK    4  A    between atoms: C_7  and  C_12
REMARK    5  A    between atoms: C_8  and  C_13
REMARK    6  A    between atoms: C_12  and  C_14
REMARK    7  A    between atoms: C_13  and  C_16
REMARK    8  A    between atoms: C_15  and  C_18
REMARK    9  A    between atoms: C_18  and  C_22
REMARK   10  A    between atoms: C_22  and  C_27
REMARK                            x       y       z     vdW  Elec       q    Type
REMARK                         _______ _______ _______ _____ _____    ______ ____
ROOT
ATOM      1  O   UNL     1      -0.246   5.402  24.600  0.00  0.00    -0.276 OA
ATOM      5  N   UNL     1      -1.953   4.286  25.713  0.00  0.00    -0.301 N 
ATOM      7  C   UNL     1      -3.814   2.642  25.769  0.00  0.00    +0.016 C 
ATOM      8  C   UNL     1      -4.813   3.825  25.716  0.00  0.00    +0.006 C 
ATOM      9  C   UNL     1      -4.194   5.057  25.034  0.00  0.00    +0.023 C 
ATOM     10  C   UNL     1      -2.488   3.105  26.399  0.00  0.00    +0.112 C 
ATOM     11  C   UNL     1      -2.861   5.434  25.673  0.00  0.00    +0.108 C 
ATOM     15  C   UNL     1      -0.682   4.387  25.149  0.00  0.00    +0.216 C 
ENDROOT
BRANCH   7  12
ATOM     12  C   UNL     1      -3.555   1.983  24.408  0.00  0.00    +0.061 C 
BRANCH  12  14
ATOM      6  N   UNL     1      -3.739  -0.271  25.218  0.00  0.00    -0.287 NA
ATOM     14  C   UNL     1      -2.997   0.595  24.609  0.00  0.00    +0.044 C 
ATOM     17  C   UNL     1      -1.631   0.294  24.108  0.00  0.00    -0.001 A 
ATOM     19  C   UNL     1      -1.002  -0.841  24.636  0.00  0.00    -0.033 A 
ATOM     20  C   UNL     1      -1.728  -1.656  25.664  0.00  0.00    +0.059 C 
ATOM     21  C   UNL     1      -3.221  -1.636  25.359  0.00  0.00    +0.146 C 
ATOM     23  C   UNL     1      -0.978   1.093  23.169  0.00  0.00    +0.013 A 
ATOM     24  C   UNL     1       0.300  -1.157  24.236  0.00  0.00    +0.050 A 
ATOM     25  C   UNL     1       0.315   0.762  22.764  0.00  0.00    +0.046 A 
ATOM     26  C   UNL     1       0.954  -0.359  23.297  0.00  0.00    +0.120 A 
BRANCH  26   4
ATOM      4  O   UNL     1       2.219  -0.671  22.903  0.00  0.00    -0.495 OA
ATOM     33  C   UNL     1       3.127   0.413  22.716  0.00  0.00    +0.277 C 
ENDBRANCH  26   4
ENDBRANCH  12  14
ENDBRANCH   7  12
BRANCH   8  13
ATOM     13  C   UNL     1      -6.145   3.459  25.060  0.00  0.00    +0.124 C 
BRANCH  13  16
ATOM      3  O   UNL     1      -6.784   1.153  24.600  0.00  0.00    -0.251 OA
ATOM     16  C   UNL     1      -6.560   2.053  25.395  0.00  0.00    +0.305 C 
BRANCH  16   2
ATOM      2  O   UNL     1      -6.654   1.912  26.742  0.00  0.00    -0.481 OA
ATOM     34  H   UNL     1      -5.996   2.465  27.214  0.00  0.00    +0.295 HD
ENDBRANCH  16   2
ENDBRANCH  13  16
ENDBRANCH   8  13
BRANCH  15  18
ATOM     18  C   UNL     1       0.191   3.160  25.227  0.00  0.00    +0.100 C 
BRANCH  18  22
ATOM     22  C   UNL     1      -0.193   2.305  26.425  0.00  0.00    +0.044 C 
BRANCH  22  27
ATOM     27  C   UNL     1       0.721   2.494  27.610  0.00  0.00    -0.047 A 
ATOM     28  C   UNL     1       2.019   2.970  27.422  0.00  0.00    +0.003 A 
ATOM     29  C   UNL     1       0.268   2.194  28.896  0.00  0.00    +0.003 A 
ATOM     30  C   UNL     1       2.865   3.144  28.518  0.00  0.00    +0.000 A 
ATOM     31  C   UNL     1       1.114   2.369  29.991  0.00  0.00    +0.000 A 
ATOM     32  C   UNL     1       2.412   2.844  29.803  0.00  0.00    +0.000 A 
ENDBRANCH  22  27
ENDBRANCH  18  22
ENDBRANCH  15  18
TORSDOF 9
ENDMDL
MODEL 2
REMARK VINA RESULT:       3.1      2.506      4.752
REMARK  Name = 51136659
REMARK  10 active torsions:
REMARK  status: ('A' for Active; 'I' for Inactive)
REMARK    1  A    between atoms: O_2  and  C_16
REMARK    2  A    between atoms: O_4  and  C_26
REMARK    3  A    between atoms: O_4  and  C_33
REMARK    4  A    between atoms: C_7  and  C_12
REMARK    5  A    between atoms: C_8  and  C_13
REMARK    6  A    between atoms: C_12  and  C_14
REMARK    7  A    between atoms: C_13  and  C_16
REMARK    8  A    between atoms: C_15  and  C_18
REMARK    9  A    between atoms: C_18  and  C_22
REMARK   10  A    between atoms: C_22  and  C_27
REMARK                            x       y       z     vdW  Elec       q    Type
REMARK                         _______ _______ _______ _____ _____    ______ ____
ROOT
ATOM      1  O   UNL     1      -5.900   0.853  26.288  0.00  0.00    -0.276 OA
ATOM      5  N   UNL     1      -4.898   2.517  25.013  0.00  0.00    -0.301 N 
ATOM      7  C   UNL     1      -2.889   3.664  24.110  0.00  0.00    +0.016 C 
ATOM      8  C   UNL     1      -3.109   4.790  25.152  0.00  0.00    +0.006 C 
ATOM      9  C   UNL     1      -3.857   4.274  26.393  0.00  0.00    +0.023 C 
ATOM     10  C   UNL     1      -4.229   2.978  23.791  0.00  0.00    +0.112 C 
ATOM     11  C   UNL     1      -5.150   3.563  26.005  0.00  0.00    +0.108 C 
ATOM     15  C   UNL     1      -5.315   1.210  25.262  0.00  0.00    +0.216 C 
ENDROOT
BRANCH   7  12
ATOM     12  C   UNL     1      -1.844   2.622  24.530  0.00  0.00    +0.061 C 
BRANCH  12  14
ATOM      6  N   UNL     1      -2.346   1.542  22.443  0.00  0.00    -0.287 NA
ATOM     14  C   UNL     1      -1.445   1.787  23.337  0.00  0.00    +0.044 C 
ATOM     17  C   UNL     1      -0.049   1.285  23.250  0.00  0.00    -0.001 A 
ATOM     19  C   UNL     1       0.184   0.223  22.369  0.00  0.00    -0.033 A 
ATOM     20  C   UNL     1      -0.970  -0.340  21.594  0.00  0.00    +0.059 C 
ATOM     21  C   UNL     1      -1.943   0.783  21.256  0.00  0.00    +0.146 C 
ATOM     23  C   UNL     1       0.994   1.819  24.009  0.00  0.00    +0.013 A 
ATOM     24  C   UNL     1       1.469  -0.322  22.270  0.00  0.00    +0.050 A 
ATOM     25  C   UNL     1       2.275   1.279  23.893  0.00  0.00    +0.046 A 
ATOM     26  C   UNL     1       2.512   0.210  23.028  0.00  0.00    +0.120 A 
BRANCH  26   4
ATOM      4  O   UNL     1       3.763  -0.316  22.926  0.00  0.00    -0.495 OA
ATOM     33  C   UNL     1       4.857   0.543  23.244  0.00  0.00    +0.277 C 
ENDBRANCH  26   4
ENDBRANCH  12  14
ENDBRANCH   7  12
BRANCH   8  13
ATOM     13  C   UNL     1      -1.814   5.495  25.557  0.00  0.00    +0.124 C 
BRANCH  13  16
ATOM      3  O   UNL     1      -0.228   5.167  23.736  0.00  0.00    -0.251 OA
ATOM     16  C   UNL     1      -0.619   4.903  24.863  0.00  0.00    +0.305 C 
BRANCH  16   2
ATOM      2  O   UNL     1      -0.010   4.007  25.682  0.00  0.00    -0.481 OA
ATOM     34  H   UNL     1       0.964   4.019  25.576  0.00  0.00    +0.295 HD
ENDBRANCH  16   2
ENDBRANCH  13  16
ENDBRANCH   8  13
BRANCH  15  18
ATOM     18  C   UNL     1      -5.016   0.189  24.193  0.00  0.00    +0.100 C 
BRANCH  18  22
ATOM     22  C   UNL     1      -4.667  -1.153  24.818  0.00  0.00    +0.044 C 
BRANCH  22  27
ATOM     27  C   UNL     1      -3.184  -1.354  25.010  0.00  0.00    -0.047 A 
ATOM     28  C   UNL     1      -2.472  -0.522  25.873  0.00  0.00    +0.003 A 
ATOM     29  C   UNL     1      -2.524  -2.374  24.324  0.00  0.00    +0.003 A 
ATOM     30  C   UNL     1      -1.101  -0.707  26.051  0.00  0.00    +0.000 A 
ATOM     31  C   UNL     1      -1.153  -2.560  24.501  0.00  0.00    +0.000 A 
ATOM     32  C   UNL     1      -0.441  -1.728  25.365  0.00  0.00    +0.000 A 
ENDBRANCH  22  27
ENDBRANCH  18  22
ENDBRANCH  15  18
TORSDOF 9
ENDMDL
MODEL 3
REMARK VINA RESULT:       3.2      2.306      4.207
REMARK  Name = 51136659
REMARK  10 active torsions:
REMARK  status: ('A' for Active; 'I' for Inactive)
REMARK    1  A    between atoms: O_2  and  C_16
REMARK    2  A    between atoms: O_4  and  C_26
REMARK    3  A    between atoms: O_4  and  C_33
REMARK    4  A    between atoms: C_7  and  C_12
REMARK    5  A    between atoms: C_8  and  C_13
REMARK    6  A    between atoms: C_12  and  C_14
REMARK    7  A    between atoms: C_13  and  C_16
REMARK    8  A    between atoms: C_15  and  C_18
REMARK    9  A    between atoms: C_18  and  C_22
REMARK   10  A    between atoms: C_22  and  C_27
REMARK                            x       y       z     vdW  Elec       q    Type
REMARK                         _______ _______ _______ _____ _____    ______ ____
ROOT
ATOM      1  O   UNL     1       0.575   4.380  23.403  0.00  0.00    -0.276 OA
ATOM      5  N   UNL     1      -1.041   4.024  25.034  0.00  0.00    -0.301 N 
ATOM      7  C   UNL     1      -3.117   2.931  25.849  0.00  0.00    +0.016 C 
ATOM      8  C   UNL     1      -3.875   4.258  25.587  0.00  0.00    +0.006 C 
ATOM      9  C   UNL     1      -3.195   5.089  24.485  0.00  0.00    +0.023 C 
ATOM     10  C   UNL     1      -1.629   3.222  26.113  0.00  0.00    +0.112 C 
ATOM     11  C   UNL     1      -1.714   5.300  24.783  0.00  0.00    +0.108 C 
ATOM     15  C   UNL     1       0.085   3.675  24.288  0.00  0.00    +0.216 C 
ENDROOT
BRANCH   7  12
ATOM     12  C   UNL     1      -3.266   1.897  24.725  0.00  0.00    +0.061 C 
BRANCH  12  14
ATOM      6  N   UNL     1      -1.501   0.705  25.837  0.00  0.00    -0.287 NA
ATOM     14  C   UNL     1      -2.568   0.616  25.113  0.00  0.00    +0.044 C 
ATOM     17  C   UNL     1      -3.131  -0.676  24.641  0.00  0.00    -0.001 A 
ATOM     19  C   UNL     1      -2.277  -1.786  24.678  0.00  0.00    -0.033 A 
ATOM     20  C   UNL     1      -0.872  -1.600  25.167  0.00  0.00    +0.059 C 
ATOM     21  C   UNL     1      -0.858  -0.541  26.263  0.00  0.00    +0.146 C 
ATOM     23  C   UNL     1      -4.438  -0.802  24.167  0.00  0.00    +0.013 A 
ATOM     24  C   UNL     1      -2.733  -3.022  24.211  0.00  0.00    +0.050 A 
ATOM     25  C   UNL     1      -4.888  -2.043  23.717  0.00  0.00    +0.046 A 
ATOM     26  C   UNL     1      -4.039  -3.150  23.736  0.00  0.00    +0.120 A 
BRANCH  26   4
ATOM      4  O   UNL     1      -4.485  -4.356  23.289  0.00  0.00    -0.495 OA
ATOM     33  C   UNL     1      -5.611  -4.347  22.413  0.00  0.00    +0.277 C 
ENDBRANCH  26   4
ENDBRANCH  12  14
ENDBRANCH   7  12
BRANCH   8  13
ATOM     13  C   UNL     1      -5.356   4.052  25.271  0.00  0.00    +0.124 C 
BRANCH  13  16
ATOM      3  O   UNL     1      -5.870   2.538  27.110  0.00  0.00    -0.251 OA
ATOM     16  C   UNL     1      -5.894   2.806  25.919  0.00  0.00    +0.305 C 
BRANCH  16   2
ATOM      2  O   UNL     1      -6.429   1.993  24.972  0.00  0.00    -0.481 OA
ATOM     34  H   UNL     1      -7.408   2.043  24.958  0.00  0.00    +0.295 HD
ENDBRANCH  16   2
ENDBRANCH  13  16
ENDBRANCH   8  13
BRANCH  15  18
ATOM     18  C   UNL     1       0.718   2.343  24.604  0.00  0.00    +0.100 C 
BRANCH  18  22
ATOM     22  C   UNL     1       0.904   1.526  23.336  0.00  0.00    +0.044 C 
BRANCH  22  27
ATOM     27  C   UNL     1       2.236   0.818  23.272  0.00  0.00    -0.047 A 
ATOM     28  C   UNL     1       2.305  -0.558  23.489  0.00  0.00    +0.003 A 
ATOM     29  C   UNL     1       3.398   1.540  22.997  0.00  0.00    +0.003 A 
ATOM     30  C   UNL     1       3.536  -1.213  23.430  0.00  0.00    +0.000 A 
ATOM     31  C   UNL     1       4.628   0.885  22.938  0.00  0.00    +0.000 A 
ATOM     32  C   UNL     1       4.698  -0.491  23.155  0.00  0.00    +0.000 A 
ENDBRANCH  22  27
ENDBRANCH  18  22
ENDBRANCH  15  18
TORSDOF 9
ENDMDL
MODEL 4
REMARK VINA RESULT:       3.3      2.309      7.417
REMARK  Name = 51136659
REMARK  10 active torsions:
REMARK  status: ('A' for Active; 'I' for Inactive)
REMARK    1  A    between atoms: O_2  and  C_16
REMARK    2  A    between atoms: O_4  and  C_26
REMARK    3  A    between atoms: O_4  and  C_33
REMARK    4  A    between atoms: C_7  and  C_12
REMARK    5  A    between atoms: C_8  and  C_13
REMARK    6  A    between atoms: C_12  and  C_14
REMARK    7  A    between atoms: C_13  and  C_16
REMARK    8  A    between atoms: C_15  and  C_18
REMARK    9  A    between atoms: C_18  and  C_22
REMARK   10  A    between atoms: C_22  and  C_27
REMARK                            x       y       z     vdW  Elec       q    Type
REMARK                         _______ _______ _______ _____ _____    ______ ____
ROOT
ATOM      1  O   UNL     1      -3.597  -3.399  24.121  0.00  0.00    -0.276 OA
ATOM      5  N   UNL     1      -1.544  -2.389  24.521  0.00  0.00    -0.301 N 
ATOM      7  C   UNL     1       0.022  -0.470  24.325  0.00  0.00    +0.016 C 
ATOM      8  C   UNL     1       0.778  -1.248  23.218  0.00  0.00    +0.006 C 
ATOM      9  C   UNL     1      -0.144  -2.245  22.497  0.00  0.00    +0.023 C 
ATOM     10  C   UNL     1      -0.687  -1.459  25.267  0.00  0.00    +0.112 C 
ATOM     11  C   UNL     1      -0.852  -3.163  23.489  0.00  0.00    +0.108 C 
ATOM     15  C   UNL     1      -2.905  -2.591  24.745  0.00  0.00    +0.216 C 
ENDROOT
BRANCH   7  12
ATOM     12  C   UNL     1      -0.977   0.564  23.789  0.00  0.00    +0.061 C 
BRANCH  12  14
ATOM      6  N   UNL     1       0.050   1.958  25.453  0.00  0.00    -0.287 NA
ATOM     14  C   UNL     1      -0.958   1.795  24.661  0.00  0.00    +0.044 C 
ATOM     17  C   UNL     1      -2.092   2.751  24.574  0.00  0.00    -0.001 A 
ATOM     19  C   UNL     1      -2.242   3.649  25.638  0.00  0.00    -0.033 A 
ATOM     20  C   UNL     1      -1.275   3.581  26.782  0.00  0.00    +0.059 C 
ATOM     21  C   UNL     1       0.099   3.183  26.256  0.00  0.00    +0.146 C 
ATOM     23  C   UNL     1      -2.987   2.765  23.503  0.00  0.00    +0.013 A 
ATOM     24  C   UNL     1      -3.313   4.548  25.637  0.00  0.00    +0.050 A 
ATOM     25  C   UNL     1      -4.044   3.675  23.504  0.00  0.00    +0.046 A 
ATOM     26  C   UNL     1      -4.209   4.563  24.567  0.00  0.00    +0.120 A 
BRANCH  26   4
ATOM      4  O   UNL     1      -5.247   5.444  24.563  0.00  0.00    -0.495 OA
ATOM     33  C   UNL     1      -6.194   5.337  25.625  0.00  0.00    +0.277 C 
ENDBRANCH  26   4
ENDBRANCH  12  14
ENDBRANCH   7  12
BRANCH   8  13
ATOM     13  C   UNL     1       1.476  -0.333  22.210  0.00  0.00    +0.124 C 
BRANCH  13  16
ATOM      3  O   UNL     1       3.840  -0.170  22.780  0.00  0.00    -0.251 OA
ATOM     16  C   UNL     1       2.711   0.296  22.794  0.00  0.00    +0.305 C 
BRANCH  16   2
ATOM      2  O   UNL     1       2.393   1.490  23.358  0.00  0.00    -0.481 OA
ATOM     34  H   UNL     1       1.423   1.606  23.445  0.00  0.00    +0.295 HD
ENDBRANCH  16   2
ENDBRANCH  13  16
ENDBRANCH   8  13
BRANCH  15  18
ATOM     18  C   UNL     1      -3.544  -1.752  25.823  0.00  0.00    +0.100 C 
BRANCH  18  22
ATOM     22  C   UNL     1      -3.302  -0.273  25.564  0.00  0.00    +0.044 C 
BRANCH  22  27
ATOM     27  C   UNL     1      -4.575   0.518  25.392  0.00  0.00    -0.047 A 
ATOM     28  C   UNL     1      -5.336   0.374  24.232  0.00  0.00    +0.003 A 
ATOM     29  C   UNL     1      -4.993   1.394  26.395  0.00  0.00    +0.003 A 
ATOM     30  C   UNL     1      -6.513   1.106  24.073  0.00  0.00    +0.000 A 
ATOM     31  C   UNL     1      -6.170   2.126  26.236  0.00  0.00    +0.000 A 
ATOM     32  C   UNL     1      -6.930   1.982  25.075  0.00  0.00    +0.000 A 
ENDBRANCH  22  27
ENDBRANCH  18  22
ENDBRANCH  15  18
TORSDOF 9
ENDMDL
MODEL 5
REMARK VINA RESULT:       3.3      1.894      5.174
REMARK  Name = 51136659
REMARK  10 active torsions:
REMARK  status: ('A' for Active; 'I' for Inactive)
REMARK    1  A    between atoms: O_2  and  C_16
REMARK    2  A    between atoms: O_4  and  C_26
REMARK    3  A    between atoms: O_4  and  C_33
REMARK    4  A    between atoms: C_7  and  C_12
REMARK    5  A    between atoms: C_8  and  C_13
REMARK    6  A    between atoms: C_12  and  C_14
REMARK    7  A    between atoms: C_13  and  C_16
REMARK    8  A    between atoms: C_15  and  C_18
REMARK    9  A    between atoms: C_18  and  C_22
REMARK   10  A    between atoms: C_22  and  C_27
REMARK                            x       y       z     vdW  Elec       q    Type
REMARK                         _______ _______ _______ _____ _____    ______ ____
ROOT
ATOM      1  O   UNL     1      -5.700   3.773  25.814  0.00  0.00    -0.276 OA
ATOM      5  N   UNL     1      -3.739   3.439  24.614  0.00  0.00    -0.301 N 
ATOM      7  C   UNL     1      -1.516   2.371  24.316  0.00  0.00    +0.016 C 
ATOM      8  C   UNL     1      -0.857   3.705  24.750  0.00  0.00    +0.006 C 
ATOM      9  C   UNL     1      -1.788   4.526  25.658  0.00  0.00    +0.023 C 
ATOM     10  C   UNL     1      -2.902   2.646  23.706  0.00  0.00    +0.112 C 
ATOM     11  C   UNL     1      -3.159   4.721  25.017  0.00  0.00    +0.108 C 
ATOM     15  C   UNL     1      -5.005   3.075  25.071  0.00  0.00    +0.216 C 
ENDROOT
BRANCH   7  12
ATOM     12  C   UNL     1      -1.626   1.335  25.443  0.00  0.00    +0.061 C 
BRANCH  12  14
ATOM      6  N   UNL     1      -1.410  -1.057  25.419  0.00  0.00    -0.287 NA
ATOM     14  C   UNL     1      -0.900   0.072  25.050  0.00  0.00    +0.044 C 
ATOM     17  C   UNL     1       0.360   0.184  24.270  0.00  0.00    -0.001 A 
ATOM     19  C   UNL     1       1.195  -0.940  24.258  0.00  0.00    -0.033 A 
ATOM     20  C   UNL     1       0.780  -2.157  25.030  0.00  0.00    +0.059 C 
ATOM     21  C   UNL     1      -0.738  -2.286  24.986  0.00  0.00    +0.146 C 
ATOM     23  C   UNL     1       0.723   1.345  23.587  0.00  0.00    +0.013 A 
ATOM     24  C   UNL     1       2.415  -0.885  23.576  0.00  0.00    +0.050 A 
ATOM     25  C   UNL     1       1.935   1.385  22.897  0.00  0.00    +0.046 A 
ATOM     26  C   UNL     1       2.780   0.275  22.892  0.00  0.00    +0.120 A 
BRANCH  26   4
ATOM      4  O   UNL     1       3.964   0.325  22.222  0.00  0.00    -0.495 OA
ATOM     33  C   UNL     1       5.155   0.242  23.002  0.00  0.00    +0.277 C 
ENDBRANCH  26   4
ENDBRANCH  12  14
ENDBRANCH   7  12
BRANCH   8  13
ATOM     13  C   UNL     1       0.509   3.515  25.409  0.00  0.00    +0.124 C 
BRANCH  13  16
ATOM      3  O   UNL     1      -0.652   2.680  27.382  0.00  0.00    -0.251 OA
ATOM     16  C   UNL     1       0.385   2.906  26.778  0.00  0.00    +0.305 C 
BRANCH  16   2
ATOM      2  O   UNL     1       1.621   2.632  27.270  0.00  0.00    -0.481 OA
ATOM     34  H   UNL     1       1.633   2.640  28.251  0.00  0.00    +0.295 HD
ENDBRANCH  16   2
ENDBRANCH  13  16
ENDBRANCH   8  13
BRANCH  15  18
ATOM     18  C   UNL     1      -5.530   1.738  24.614  0.00  0.00    +0.100 C 
BRANCH  18  22
ATOM     22  C   UNL     1      -5.242   0.666  25.655  0.00  0.00    +0.044 C 
BRANCH  22  27
ATOM     27  C   UNL     1      -4.645  -0.589  25.068  0.00  0.00    -0.047 A 
ATOM     28  C   UNL     1      -4.153  -1.587  25.909  0.00  0.00    +0.003 A 
ATOM     29  C   UNL     1      -4.587  -0.753  23.684  0.00  0.00    +0.003 A 
ATOM     30  C   UNL     1      -3.601  -2.748  25.368  0.00  0.00    +0.000 A 
ATOM     31  C   UNL     1      -4.035  -1.914  23.142  0.00  0.00    +0.000 A 
ATOM     32  C   UNL     1      -3.542  -2.912  23.983  0.00  0.00    +0.000 A 
ENDBRANCH  22  27
ENDBRANCH  18  22
ENDBRANCH  15  18
TORSDOF 9
ENDMDL
MODEL 6
REMARK VINA RESULT:       3.4      2.276      3.450
REMARK  Name = 51136659
REMARK  10 active torsions:
REMARK  status: ('A' for Active; 'I' for Inactive)
REMARK    1  A    between atoms: O_2  and  C_16
REMARK    2  A    between atoms: O_4  and  C_26
REMARK    3  A    between atoms: O_4  and  C_33
REMARK    4  A    between atoms: C_7  and  C_12
REMARK    5  A    between atoms: C_8  and  C_13
REMARK    6  A    between atoms: C_12  and  C_14
REMARK    7  A    between atoms: C_13  and  C_16
REMARK    8  A    between atoms: C_15  and  C_18
REMARK    9  A    between atoms: C_18  and  C_22
REMARK   10  A    between atoms: C_22  and  C_27
REMARK                            x       y       z     vdW  Elec       q    Type
REMARK                         _______ _______ _______ _____ _____    ______ ____
ROOT
ATOM      1  O   UNL     1       0.629   4.320  23.636  0.00  0.00    -0.276 OA
ATOM      5  N   UNL     1      -1.051   3.514  25.023  0.00  0.00    -0.301 N 
ATOM      7  C   UNL     1      -3.199   2.319  25.385  0.00  0.00    +0.016 C 
ATOM      8  C   UNL     1      -3.888   3.693  25.583  0.00  0.00    +0.006 C 
ATOM      9  C   UNL     1      -3.138   4.814  24.842  0.00  0.00    +0.023 C 
ATOM     10  C   UNL     1      -1.709   2.423  25.754  0.00  0.00    +0.112 C 
ATOM     11  C   UNL     1      -1.659   4.832  25.215  0.00  0.00    +0.108 C 
ATOM     15  C   UNL     1       0.080   3.381  24.219  0.00  0.00    +0.216 C 
ENDROOT
BRANCH   7  12
ATOM     12  C   UNL     1      -3.359   1.740  23.973  0.00  0.00    +0.061 C 
BRANCH  12  14
ATOM      6  N   UNL     1      -4.651  -0.276  23.781  0.00  0.00    -0.287 NA
ATOM     14  C   UNL     1      -3.496   0.239  24.048  0.00  0.00    +0.044 C 
ATOM     17  C   UNL     1      -2.309  -0.570  24.430  0.00  0.00    -0.001 A 
ATOM     19  C   UNL     1      -2.552  -1.879  24.863  0.00  0.00    -0.033 A 
ATOM     20  C   UNL     1      -3.968  -2.368  24.928  0.00  0.00    +0.059 C 
ATOM     21  C   UNL     1      -4.769  -1.738  23.795  0.00  0.00    +0.146 C 
ATOM     23  C   UNL     1      -1.007  -0.068  24.381  0.00  0.00    +0.013 A 
ATOM     24  C   UNL     1      -1.481  -2.679  25.275  0.00  0.00    +0.050 A 
ATOM     25  C   UNL     1       0.056  -0.879  24.780  0.00  0.00    +0.046 A 
ATOM     26  C   UNL     1      -0.179  -2.179  25.228  0.00  0.00    +0.120 A 
BRANCH  26   4
ATOM      4  O   UNL     1       0.864  -2.960  25.622  0.00  0.00    -0.495 OA
ATOM     33  C   UNL     1       0.664  -4.373  25.591  0.00  0.00    +0.277 C 
ENDBRANCH  26   4
ENDBRANCH  12  14
ENDBRANCH   7  12
BRANCH   8  13
ATOM     13  C   UNL     1      -5.367   3.686  25.195  0.00  0.00    +0.124 C 
BRANCH  13  16
ATOM      3  O   UNL     1      -6.183   2.328  27.046  0.00  0.00    -0.251 OA
ATOM     16  C   UNL     1      -6.107   2.551  25.848  0.00  0.00    +0.305 C 
BRANCH  16   2
ATOM      2  O   UNL     1      -6.698   1.783  24.896  0.00  0.00    -0.481 OA
ATOM     34  H   UNL     1      -6.578   2.159  23.998  0.00  0.00    +0.295 HD
ENDBRANCH  16   2
ENDBRANCH  13  16
ENDBRANCH   8  13
BRANCH  15  18
ATOM     18  C   UNL     1       0.644   1.991  24.069  0.00  0.00    +0.100 C 
BRANCH  18  22
ATOM     22  C   UNL     1       1.609   1.929  22.895  0.00  0.00    +0.044 C 
BRANCH  22  27
ATOM     27  C   UNL     1       2.764   0.985  23.121  0.00  0.00    -0.047 A 
ATOM     28  C   UNL     1       4.069   1.473  23.151  0.00  0.00    +0.003 A 
ATOM     29  C   UNL     1       2.525  -0.378  23.303  0.00  0.00    +0.003 A 
ATOM     30  C   UNL     1       5.138   0.601  23.360  0.00  0.00    +0.000 A 
ATOM     31  C   UNL     1       3.593  -1.251  23.512  0.00  0.00    +0.000 A 
ATOM     32  C   UNL     1       4.899  -0.762  23.541  0.00  0.00    +0.000 A 
ENDBRANCH  22  27
ENDBRANCH  18  22
ENDBRANCH  15  18
TORSDOF 9
ENDMDL
MODEL 7
REMARK VINA RESULT:       3.5      2.098      7.310
REMARK  Name = 51136659
REMARK  10 active torsions:
REMARK  status: ('A' for Active; 'I' for Inactive)
REMARK    1  A    between atoms: O_2  and  C_16
REMARK    2  A    between atoms: O_4  and  C_26
REMARK    3  A    between atoms: O_4  and  C_33
REMARK    4  A    between atoms: C_7  and  C_12
REMARK    5  A    between atoms: C_8  and  C_13
REMARK    6  A    between atoms: C_12  and  C_14
REMARK    7  A    between atoms: C_13  and  C_16
REMARK    8  A    between atoms: C_15  and  C_18
REMARK    9  A    between atoms: C_18  and  C_22
REMARK   10  A    between atoms: C_22  and  C_27
REMARK                            x       y       z     vdW  Elec       q    Type
REMARK                         _______ _______ _______ _____ _____    ______ ____
ROOT
ATOM      1  O   UNL     1      -2.459   0.982  21.263  0.00  0.00    -0.276 OA
ATOM      5  N   UNL     1      -0.784   0.239  22.690  0.00  0.00    -0.301 N 
ATOM      7  C   UNL     1       1.189   0.650  24.143  0.00  0.00    +0.016 C 
ATOM      8  C   UNL     1       2.091   0.083  23.017  0.00  0.00    +0.006 C 
ATOM      9  C   UNL     1       1.443   0.257  21.632  0.00  0.00    +0.023 C 
ATOM     10  C   UNL     1      -0.224   0.049  24.033  0.00  0.00    +0.112 C 
ATOM     11  C   UNL     1       0.029  -0.315  21.605  0.00  0.00    +0.108 C 
ATOM     15  C   UNL     1      -1.999   0.859  22.400  0.00  0.00    +0.216 C 
ENDROOT
BRANCH   7  12
ATOM     12  C   UNL     1       1.116   2.182  24.170  0.00  0.00    +0.061 C 
BRANCH  12  14
ATOM      6  N   UNL     1       1.064   2.468  26.554  0.00  0.00    -0.287 NA
ATOM     14  C   UNL     1       0.437   2.640  25.438  0.00  0.00    +0.044 C 
ATOM     17  C   UNL     1      -0.913   3.255  25.344  0.00  0.00    -0.001 A 
ATOM     19  C   UNL     1      -1.664   3.308  26.525  0.00  0.00    -0.033 A 
ATOM     20  C   UNL     1      -1.075   2.739  27.782  0.00  0.00    +0.059 C 
ATOM     21  C   UNL     1       0.431   2.967  27.779  0.00  0.00    +0.146 C 
ATOM     23  C   UNL     1      -1.436   3.749  24.149  0.00  0.00    +0.013 A 
ATOM     24  C   UNL     1      -2.958   3.838  26.497  0.00  0.00    +0.050 A 
ATOM     25  C   UNL     1      -2.722   4.289  24.133  0.00  0.00    +0.046 A 
ATOM     26  C   UNL     1      -3.483   4.332  25.302  0.00  0.00    +0.120 A 
BRANCH  26   4
ATOM      4  O   UNL     1      -4.739   4.854  25.277  0.00  0.00    -0.495 OA
ATOM     33  C   UNL     1      -5.820   3.960  25.535  0.00  0.00    +0.277 C 
ENDBRANCH  26   4
ENDBRANCH  12  14
ENDBRANCH   7  12
BRANCH   8  13
ATOM     13  C   UNL     1       3.504   0.665  23.028  0.00  0.00    +0.124 C 
BRANCH  13  16
ATOM      3  O   UNL     1       5.734  -0.213  23.471  0.00  0.00    -0.251 OA
ATOM     16  C   UNL     1       4.522  -0.356  23.458  0.00  0.00    +0.305 C 
BRANCH  16   2
ATOM      2  O   UNL     1       3.891  -1.495  23.843  0.00  0.00    -0.481 OA
ATOM     34  H   UNL     1       4.497  -2.266  23.841  0.00  0.00    +0.295 HD
ENDBRANCH  16   2
ENDBRANCH  13  16
ENDBRANCH   8  13
BRANCH  15  18
ATOM     18  C   UNL     1      -2.774   1.406  23.572  0.00  0.00    +0.100 C 
BRANCH  18  22
ATOM     22  C   UNL     1      -4.053   0.611  23.784  0.00  0.00    +0.044 C 
BRANCH  22  27
ATOM     27  C   UNL     1      -3.814  -0.755  24.378  0.00  0.00    -0.047 A 
ATOM     28  C   UNL     1      -4.075  -1.899  23.624  0.00  0.00    +0.003 A 
ATOM     29  C   UNL     1      -3.331  -0.875  25.682  0.00  0.00    +0.003 A 
ATOM     30  C   UNL     1      -3.854  -3.163  24.172  0.00  0.00    +0.000 A 
ATOM     31  C   UNL     1      -3.110  -2.139  26.230  0.00  0.00    +0.000 A 
ATOM     32  C   UNL     1      -3.371  -3.282  25.476  0.00  0.00    +0.000 A 
ENDBRANCH  22  27
ENDBRANCH  18  22
ENDBRANCH  15  18
TORSDOF 9
ENDMDL
MODEL 8
REMARK VINA RESULT:       4.0      2.769      5.387
REMARK  Name = 51136659
REMARK  10 active torsions:
REMARK  status: ('A' for Active; 'I' for Inactive)
REMARK    1  A    between atoms: O_2  and  C_16
REMARK    2  A    between atoms: O_4  and  C_26
REMARK    3  A    between atoms: O_4  and  C_33
REMARK    4  A    between atoms: C_7  and  C_12
REMARK    5  A    between atoms: C_8  and  C_13
REMARK    6  A    between atoms: C_12  and  C_14
REMARK    7  A    between atoms: C_13  and  C_16
REMARK    8  A    between atoms: C_15  and  C_18
REMARK    9  A    between atoms: C_18  and  C_22
REMARK   10  A    between atoms: C_22  and  C_27
REMARK                            x       y       z     vdW  Elec       q    Type
REMARK                         _______ _______ _______ _____ _____    ______ ____
ROOT
ATOM      1  O   UNL     1       0.795   2.036  25.394  0.00  0.00    -0.276 OA
ATOM      5  N   UNL     1      -0.106  -0.027  24.820  0.00  0.00    -0.301 N 
ATOM      7  C   UNL     1      -1.864  -1.422  23.756  0.00  0.00    +0.016 C 
ATOM      8  C   UNL     1      -2.423  -1.730  25.168  0.00  0.00    +0.006 C 
ATOM      9  C   UNL     1      -2.088  -0.607  26.165  0.00  0.00    +0.023 C 
ATOM     10  C   UNL     1      -0.363  -1.096  23.848  0.00  0.00    +0.112 C 
ATOM     11  C   UNL     1      -0.593  -0.300  26.172  0.00  0.00    +0.108 C 
ATOM     15  C   UNL     1       0.569   1.164  24.552  0.00  0.00    +0.216 C 
ENDROOT
BRANCH   7  12
ATOM     12  C   UNL     1      -2.609  -0.300  23.021  0.00  0.00    +0.061 C 
BRANCH  12  14
ATOM      6  N   UNL     1      -4.524  -0.145  24.463  0.00  0.00    -0.287 NA
ATOM     14  C   UNL     1      -3.481   0.457  23.993  0.00  0.00    +0.044 C 
ATOM     17  C   UNL     1      -3.108   1.849  24.355  0.00  0.00    -0.001 A 
ATOM     19  C   UNL     1      -4.110   2.641  24.929  0.00  0.00    -0.033 A 
ATOM     20  C   UNL     1      -5.474   2.050  25.125  0.00  0.00    +0.059 C 
ATOM     21  C   UNL     1      -5.337   0.568  25.453  0.00  0.00    +0.146 C 
ATOM     23  C   UNL     1      -1.832   2.370  24.132  0.00  0.00    +0.013 A 
ATOM     24  C   UNL     1      -3.834   3.972  25.256  0.00  0.00    +0.050 A 
ATOM     25  C   UNL     1      -1.562   3.695  24.475  0.00  0.00    +0.046 A 
ATOM     26  C   UNL     1      -2.560   4.496  25.033  0.00  0.00    +0.120 A 
BRANCH  26   4
ATOM      4  O   UNL     1      -2.290   5.789  25.358  0.00  0.00    -0.495 OA
ATOM     33  C   UNL     1      -1.033   6.316  24.937  0.00  0.00    +0.277 C 
ENDBRANCH  26   4
ENDBRANCH  12  14
ENDBRANCH   7  12
BRANCH   8  13
ATOM     13  C   UNL     1      -3.924  -2.022  25.170  0.00  0.00    +0.124 C 
BRANCH  13  16
ATOM      3  O   UNL     1      -3.815  -4.204  24.092  0.00  0.00    -0.251 OA
ATOM     16  C   UNL     1      -4.285  -3.080  24.164  0.00  0.00    +0.305 C 
BRANCH  16   2
ATOM      2  O   UNL     1      -5.235  -2.602  23.319  0.00  0.00    -0.481 OA
ATOM     34  H   UNL     1      -6.076  -2.409  23.787  0.00  0.00    +0.295 HD
ENDBRANCH  16   2
ENDBRANCH  13  16
ENDBRANCH   8  13
BRANCH  15  18
ATOM     18  C   UNL     1       1.036   1.372  23.133  0.00  0.00    +0.100 C 
BRANCH  18  22
ATOM     22  C   UNL     1       1.681   0.105  22.592  0.00  0.00    +0.044 C 
BRANCH  22  27
ATOM     27  C   UNL     1       3.107  -0.080  23.049  0.00  0.00    -0.047 A 
ATOM     28  C   UNL     1       4.014   0.974  22.950  0.00  0.00    +0.003 A 
ATOM     29  C   UNL     1       3.517  -1.307  23.572  0.00  0.00    +0.003 A 
ATOM     30  C   UNL     1       5.333   0.803  23.373  0.00  0.00    +0.000 A 
ATOM     31  C   UNL     1       4.836  -1.478  23.995  0.00  0.00    +0.000 A 
ATOM     32  C   UNL     1       5.743  -0.424  23.896  0.00  0.00    +0.000 A 
ENDBRANCH  22  27
ENDBRANCH  18  22
ENDBRANCH  15  18
TORSDOF 9
ENDMDL
MODEL 9
REMARK VINA RESULT:       4.1      2.056      6.900
REMARK  Name = 51136659
REMARK  10 active torsions:
REMARK  status: ('A' for Active; 'I' for Inactive)
REMARK    1  A    between atoms: O_2  and  C_16
REMARK    2  A    between atoms: O_4  and  C_26
REMARK    3  A    between atoms: O_4  and  C_33
REMARK    4  A    between atoms: C_7  and  C_12
REMARK    5  A    between atoms: C_8  and  C_13
REMARK    6  A    between atoms: C_12  and  C_14
REMARK    7  A    between atoms: C_13  and  C_16
REMARK    8  A    between atoms: C_15  and  C_18
REMARK    9  A    between atoms: C_18  and  C_22
REMARK   10  A    between atoms: C_22  and  C_27
REMARK                            x       y       z     vdW  Elec       q    Type
REMARK                         _______ _______ _______ _____ _____    ______ ____
ROOT
ATOM      1  O   UNL     1      -4.014  -3.001  24.086  0.00  0.00    -0.276 OA
ATOM      5  N   UNL     1      -2.000  -1.955  24.583  0.00  0.00    -0.301 N 
ATOM      7  C   UNL     1      -0.372  -0.102  24.291  0.00  0.00    +0.016 C 
ATOM      8  C   UNL     1       0.496  -1.050  23.425  0.00  0.00    +0.006 C 
ATOM      9  C   UNL     1      -0.355  -2.144  22.757  0.00  0.00    +0.023 C 
ATOM     10  C   UNL     1      -1.220  -0.924  25.277  0.00  0.00    +0.112 C 
ATOM     11  C   UNL     1      -1.206  -2.887  23.782  0.00  0.00    +0.108 C 
ATOM     15  C   UNL     1      -3.384  -2.109  24.659  0.00  0.00    +0.216 C 
ENDROOT
BRANCH   7  12
ATOM     12  C   UNL     1      -1.267   0.840  23.475  0.00  0.00    +0.061 C 
BRANCH  12  14
ATOM      6  N   UNL     1      -1.722   3.196  23.353  0.00  0.00    -0.287 NA
ATOM     14  C   UNL     1      -1.179   2.240  24.032  0.00  0.00    +0.044 C 
ATOM     17  C   UNL     1      -0.471   2.453  25.322  0.00  0.00    -0.001 A 
ATOM     19  C   UNL     1      -0.071   3.764  25.612  0.00  0.00    -0.033 A 
ATOM     20  C   UNL     1      -0.364   4.845  24.615  0.00  0.00    +0.059 C 
ATOM     21  C   UNL     1      -1.688   4.546  23.924  0.00  0.00    +0.146 C 
ATOM     23  C   UNL     1      -0.193   1.414  26.211  0.00  0.00    +0.013 A 
ATOM     24  C   UNL     1       0.635   4.024  26.790  0.00  0.00    +0.050 A 
ATOM     25  C   UNL     1       0.499   1.686  27.391  0.00  0.00    +0.046 A 
ATOM     26  C   UNL     1       0.914   2.987  27.680  0.00  0.00    +0.120 A 
BRANCH  26   4
ATOM      4  O   UNL     1       1.594   3.243  28.831  0.00  0.00    -0.495 OA
ATOM     33  C   UNL     1       1.618   2.209  29.814  0.00  0.00    +0.277 C 
ENDBRANCH  26   4
ENDBRANCH  12  14
ENDBRANCH   7  12
BRANCH   8  13
ATOM     13  C   UNL     1       1.339  -0.312  22.385  0.00  0.00    +0.124 C 
BRANCH  13  16
ATOM      3  O   UNL     1       3.632  -0.678  23.125  0.00  0.00    -0.251 OA
ATOM     16  C   UNL     1       2.687   0.070  22.932  0.00  0.00    +0.305 C 
BRANCH  16   2
ATOM      2  O   UNL     1       2.714   1.403  23.191  0.00  0.00    -0.481 OA
ATOM     34  H   UNL     1       3.092   1.913  22.444  0.00  0.00    +0.295 HD
ENDBRANCH  16   2
ENDBRANCH  13  16
ENDBRANCH   8  13
BRANCH  15  18
ATOM     18  C   UNL     1      -4.131  -1.106  25.501  0.00  0.00    +0.100 C 
BRANCH  18  22
ATOM     22  C   UNL     1      -5.005  -0.219  24.627  0.00  0.00    +0.044 C 
BRANCH  22  27
ATOM     27  C   UNL     1      -5.040   1.219  25.084  0.00  0.00    -0.047 A 
ATOM     28  C   UNL     1      -3.889   1.817  25.595  0.00  0.00    +0.003 A 
ATOM     29  C   UNL     1      -6.225   1.950  24.993  0.00  0.00    +0.003 A 
ATOM     30  C   UNL     1      -3.921   3.147  26.017  0.00  0.00    +0.000 A 
ATOM     31  C   UNL     1      -6.257   3.280  25.415  0.00  0.00    +0.000 A 
ATOM     32  C   UNL     1      -5.106   3.878  25.926  0.00  0.00    +0.000 A 
ENDBRANCH  22  27
ENDBRANCH  18  22
ENDBRANCH  15  18
TORSDOF 9
ENDMDL
MODEL 10
REMARK VINA RESULT:       4.7      2.459      4.472
REMARK  Name = 51136659
REMARK  10 active torsions:
REMARK  status: ('A' for Active; 'I' for Inactive)
REMARK    1  A    between atoms: O_2  and  C_16
REMARK    2  A    between atoms: O_4  and  C_26
REMARK    3  A    between atoms: O_4  and  C_33
REMARK    4  A    between atoms: C_7  and  C_12
REMARK    5  A    between atoms: C_8  and  C_13
REMARK    6  A    between atoms: C_12  and  C_14
REMARK    7  A    between atoms: C_13  and  C_16
REMARK    8  A    between atoms: C_15  and  C_18
REMARK    9  A    between atoms: C_18  and  C_22
REMARK   10  A    between atoms: C_22  and  C_27
REMARK                            x       y       z     vdW  Elec       q    Type
REMARK                         _______ _______ _______ _____ _____    ______ ____
ROOT
ATOM      1  O   UNL     1       1.865   2.622  23.367  0.00  0.00    -0.276 OA
ATOM      5  N   UNL     1       0.140   2.816  24.913  0.00  0.00    -0.301 N 
ATOM      7  C   UNL     1      -2.268   3.026  25.482  0.00  0.00    +0.016 C 
ATOM      8  C   UNL     1      -2.032   4.531  25.768  0.00  0.00    +0.006 C 
ATOM      9  C   UNL     1      -0.838   5.078  24.966  0.00  0.00    +0.023 C 
ATOM     10  C   UNL     1      -0.961   2.242  25.695  0.00  0.00    +0.112 C 
ATOM     11  C   UNL     1       0.411   4.229  25.183  0.00  0.00    +0.108 C 
ATOM     15  C   UNL     1       0.926   2.122  23.993  0.00  0.00    +0.216 C 
ENDROOT
BRANCH   7  12
ATOM     12  C   UNL     1      -2.841   2.739  24.088  0.00  0.00    +0.061 C 
BRANCH  12  14
ATOM      6  N   UNL     1      -5.178   2.232  24.318  0.00  0.00    -0.287 NA
ATOM     14  C   UNL     1      -3.983   1.757  24.196  0.00  0.00    +0.044 C 
ATOM     17  C   UNL     1      -3.680   0.302  24.163  0.00  0.00    -0.001 A 
ATOM     19  C   UNL     1      -4.674  -0.558  24.645  0.00  0.00    -0.033 A 
ATOM     20  C   UNL     1      -5.950   0.032  25.167  0.00  0.00    +0.059 C 
ATOM     21  C   UNL     1      -6.292   1.280  24.362  0.00  0.00    +0.146 C 
ATOM     23  C   UNL     1      -2.468  -0.206  23.694  0.00  0.00    +0.013 A 
ATOM     24  C   UNL     1      -4.436  -1.936  24.679  0.00  0.00    +0.050 A 
ATOM     25  C   UNL     1      -2.245  -1.583  23.718  0.00  0.00    +0.046 A 
ATOM     26  C   UNL     1      -3.225  -2.446  24.211  0.00  0.00    +0.120 A 
BRANCH  26   4
ATOM      4  O   UNL     1      -2.997  -3.788  24.238  0.00  0.00    -0.495 OA
ATOM     33  C   UNL     1      -2.148  -4.322  23.223  0.00  0.00    +0.277 C 
ENDBRANCH  26   4
ENDBRANCH  12  14
ENDBRANCH   7  12
BRANCH   8  13
ATOM     13  C   UNL     1      -3.276   5.390  25.536  0.00  0.00    +0.124 C 
BRANCH  13  16
ATOM      3  O   UNL     1      -5.662   4.915  25.681  0.00  0.00    -0.251 OA
ATOM     16  C   UNL     1      -4.517   4.721  26.060  0.00  0.00    +0.305 C 
BRANCH  16   2
ATOM      2  O   UNL     1      -4.184   3.844  27.042  0.00  0.00    -0.481 OA
ATOM     34  H   UNL     1      -4.192   4.268  27.927  0.00  0.00    +0.295 HD
ENDBRANCH  16   2
ENDBRANCH  13  16
ENDBRANCH   8  13
BRANCH  15  18
ATOM     18  C   UNL     1       0.582   0.671  23.768  0.00  0.00    +0.100 C 
BRANCH  18  22
ATOM     22  C   UNL     1       1.419   0.092  22.638  0.00  0.00    +0.044 C 
BRANCH  22  27
ATOM     27  C   UNL     1       2.864  -0.126  23.018  0.00  0.00    -0.047 A 
ATOM     28  C   UNL     1       3.258  -1.329  23.603  0.00  0.00    +0.003 A 
ATOM     29  C   UNL     1       3.806   0.877  22.783  0.00  0.00    +0.003 A 
ATOM     30  C   UNL     1       4.593  -1.531  23.954  0.00  0.00    +0.000 A 
ATOM     31  C   UNL     1       5.141   0.675  23.134  0.00  0.00    +0.000 A 
ATOM     32  C   UNL     1       5.535  -0.529  23.719  0.00  0.00    +0.000 A 
ENDBRANCH  22  27
ENDBRANCH  18  22
ENDBRANCH  15  18
TORSDOF 9
ENDMDL
