MODEL 1
REMARK VINA RESULT:       2.7      0.000      0.000
REMARK  Name = 75537060
REMARK  5 active torsions:
REMARK  status: ('A' for Active; 'I' for Inactive)
REMARK    1  A    between atoms: O_2  and  C_24
REMARK    2  A    between atoms: O_2  and  C_25
REMARK    3  A    between atoms: N_4  and  C_13
REMARK    4  A    between atoms: N_5  and  C_14
REMARK    5  A    between atoms: C_13  and  C_15
REMARK                            x       y       z     vdW  Elec       q    Type
REMARK                         _______ _______ _______ _____ _____    ______ ____
ROOT
ATOM      1  O   UNL     1      -1.892   3.911  25.678  0.00  0.00    -0.252 OA
ATOM      3  N   UNL     1      -0.856   1.930  25.014  0.00  0.00    -0.278 N 
ATOM      4  N   UNL     1       1.021   0.232  23.786  0.00  0.00    -0.295 NA
ATOM      5  N   UNL     1      -3.120   1.968  25.007  0.00  0.00    -0.254 N 
ATOM      7  C   UNL     1      -1.234   0.574  24.707  0.00  0.00    +0.109 C 
ATOM      8  C   UNL     1      -0.421   0.043  23.527  0.00  0.00    +0.109 C 
ATOM      9  C   UNL     1      -2.736   0.672  24.459  0.00  0.00    +0.139 C 
ATOM     10  C   UNL     1       0.549   2.260  25.142  0.00  0.00    +0.125 C 
ATOM     11  C   UNL     1       1.337   1.662  23.974  0.00  0.00    +0.104 C 
ATOM     12  C   UNL     1      -1.962   2.752  25.290  0.00  0.00    +0.309 C 
ENDROOT
BRANCH   5  14
ATOM     14  C   UNL     1      -4.481   2.369  25.138  0.00  0.00    +0.038 A 
ATOM     16  C   UNL     1      -5.503   1.442  24.937  0.00  0.00    +0.023 A 
ATOM     17  C   UNL     1      -4.791   3.688  25.468  0.00  0.00    +0.023 A 
ATOM     20  C   UNL     1      -6.836   1.835  25.064  0.00  0.00    +0.002 A 
ATOM     21  C   UNL     1      -6.122   4.081  25.596  0.00  0.00    +0.002 A 
ATOM     22  C   UNL     1      -7.146   3.154  25.395  0.00  0.00    +0.000 A 
ENDBRANCH   5  14
BRANCH   4  13
ATOM     13  C   UNL     1       1.813  -0.327  22.690  0.00  0.00    +0.121 C 
BRANCH  13  15
ATOM      6  N   UNL     1       5.407   0.843  22.896  0.00  0.00    -0.221 NA
ATOM     15  C   UNL     1       3.286  -0.313  22.999  0.00  0.00    -0.015 A 
ATOM     18  C   UNL     1       3.893  -1.385  23.644  0.00  0.00    +0.011 A 
ATOM     19  C   UNL     1       4.080   0.767  22.649  0.00  0.00    +0.119 A 
ATOM     23  C   UNL     1       5.256  -1.344  23.915  0.00  0.00    +0.067 A 
ATOM     24  C   UNL     1       5.962  -0.218  23.525  0.00  0.00    +0.214 A 
BRANCH  24   2
ATOM      2  O   UNL     1       7.306  -0.154  23.781  0.00  0.00    -0.480 OA
ATOM     25  C   UNL     1       8.177  -0.621  22.757  0.00  0.00    +0.279 C 
ENDBRANCH  24   2
ENDBRANCH  13  15
ENDBRANCH   4  13
TORSDOF 4
ENDMDL
MODEL 2
REMARK VINA RESULT:       4.0      2.049      9.220
REMARK  Name = 75537060
REMARK  5 active torsions:
REMARK  status: ('A' for Active; 'I' for Inactive)
REMARK    1  A    between atoms: O_2  and  C_24
REMARK    2  A    between atoms: O_2  and  C_25
REMARK    3  A    between atoms: N_4  and  C_13
REMARK    4  A    between atoms: N_5  and  C_14
REMARK    5  A    between atoms: C_13  and  C_15
REMARK                            x       y       z     vdW  Elec       q    Type
REMARK                         _______ _______ _______ _____ _____    ______ ____
ROOT
ATOM      1  O   UNL     1       2.033   2.283  23.161  0.00  0.00    -0.252 OA
ATOM      3  N   UNL     1       0.166   0.890  23.284  0.00  0.00    -0.278 N 
ATOM      4  N   UNL     1      -2.424   0.024  23.959  0.00  0.00    -0.295 NA
ATOM      5  N   UNL     1       2.201  -0.087  23.460  0.00  0.00    -0.254 N 
ATOM      7  C   UNL     1      -0.117  -0.523  23.303  0.00  0.00    +0.109 C 
ATOM      8  C   UNL     1      -1.259  -0.829  24.271  0.00  0.00    +0.109 C 
ATOM      9  C   UNL     1       1.223  -1.148  23.673  0.00  0.00    +0.139 C 
ATOM     10  C   UNL     1      -0.928   1.828  23.134  0.00  0.00    +0.125 C 
ATOM     11  C   UNL     1      -2.074   1.454  24.078  0.00  0.00    +0.104 C 
ATOM     12  C   UNL     1       1.544   1.167  23.280  0.00  0.00    +0.309 C 
ENDROOT
BRANCH   5  14
ATOM     14  C   UNL     1       3.606  -0.319  23.520  0.00  0.00    +0.038 A 
ATOM     16  C   UNL     1       4.496   0.700  23.181  0.00  0.00    +0.023 A 
ATOM     17  C   UNL     1       4.091  -1.565  23.917  0.00  0.00    +0.023 A 
ATOM     20  C   UNL     1       5.871   0.473  23.239  0.00  0.00    +0.002 A 
ATOM     21  C   UNL     1       5.465  -1.792  23.976  0.00  0.00    +0.002 A 
ATOM     22  C   UNL     1       6.356  -0.773  23.637  0.00  0.00    +0.000 A 
ENDBRANCH   5  14
BRANCH   4  13
ATOM     13  C   UNL     1      -3.544  -0.302  24.842  0.00  0.00    +0.121 C 
BRANCH  13  15
ATOM      6  N   UNL     1      -4.514   3.209  25.871  0.00  0.00    -0.221 NA
ATOM     15  C   UNL     1      -4.389   0.906  25.145  0.00  0.00    -0.015 A 
ATOM     18  C   UNL     1      -5.772   0.870  24.998  0.00  0.00    +0.011 A 
ATOM     19  C   UNL     1      -3.815   2.090  25.581  0.00  0.00    +0.119 A 
ATOM     23  C   UNL     1      -6.526   2.002  25.286  0.00  0.00    +0.067 A 
ATOM     24  C   UNL     1      -5.855   3.136  25.715  0.00  0.00    +0.214 A 
BRANCH  24   2
ATOM      2  O   UNL     1      -6.576   4.264  26.005  0.00  0.00    -0.480 OA
ATOM     25  C   UNL     1      -6.196   5.459  25.332  0.00  0.00    +0.279 C 
ENDBRANCH  24   2
ENDBRANCH  13  15
ENDBRANCH   4  13
TORSDOF 4
ENDMDL
MODEL 3
REMARK VINA RESULT:       4.4      2.564      8.517
REMARK  Name = 75537060
REMARK  5 active torsions:
REMARK  status: ('A' for Active; 'I' for Inactive)
REMARK    1  A    between atoms: O_2  and  C_24
REMARK    2  A    between atoms: O_2  and  C_25
REMARK    3  A    between atoms: N_4  and  C_13
REMARK    4  A    between atoms: N_5  and  C_14
REMARK    5  A    between atoms: C_13  and  C_15
REMARK                            x       y       z     vdW  Elec       q    Type
REMARK                         _______ _______ _______ _____ _____    ______ ____
ROOT
ATOM      1  O   UNL     1      -0.154  -2.508  22.826  0.00  0.00    -0.252 OA
ATOM      3  N   UNL     1      -1.586  -1.459  24.338  0.00  0.00    -0.278 N 
ATOM      4  N   UNL     1      -3.976  -0.438  25.417  0.00  0.00    -0.295 NA
ATOM      5  N   UNL     1       0.478  -0.567  24.076  0.00  0.00    -0.254 N 
ATOM      7  C   UNL     1      -1.517  -0.420  25.335  0.00  0.00    +0.109 C 
ATOM      8  C   UNL     1      -2.786   0.431  25.313  0.00  0.00    +0.109 C 
ATOM      9  C   UNL     1      -0.236   0.327  24.980  0.00  0.00    +0.139 C 
ATOM     10  C   UNL     1      -2.779  -2.278  24.253  0.00  0.00    +0.125 C 
ATOM     11  C   UNL     1      -4.027  -1.393  24.292  0.00  0.00    +0.104 C 
ATOM     12  C   UNL     1      -0.376  -1.625  23.644  0.00  0.00    +0.309 C 
ENDROOT
BRANCH   5  14
ATOM     14  C   UNL     1       1.816  -0.316  23.653  0.00  0.00    +0.038 A 
ATOM     16  C   UNL     1       2.795  -1.295  23.821  0.00  0.00    +0.023 A 
ATOM     17  C   UNL     1       2.146   0.907  23.071  0.00  0.00    +0.023 A 
ATOM     20  C   UNL     1       4.105  -1.050  23.409  0.00  0.00    +0.002 A 
ATOM     21  C   UNL     1       3.455   1.152  22.658  0.00  0.00    +0.002 A 
ATOM     22  C   UNL     1       4.435   0.173  22.826  0.00  0.00    +0.000 A 
ENDBRANCH   5  14
BRANCH   4  13
ATOM     13  C   UNL     1      -5.195   0.370  25.457  0.00  0.00    +0.121 C 
BRANCH  13  15
ATOM      6  N   UNL     1      -3.954   3.356  23.488  0.00  0.00    -0.221 NA
ATOM     15  C   UNL     1      -4.934   1.797  25.055  0.00  0.00    -0.015 A 
ATOM     18  C   UNL     1      -5.400   2.856  25.828  0.00  0.00    +0.011 A 
ATOM     19  C   UNL     1      -4.223   2.099  23.905  0.00  0.00    +0.119 A 
ATOM     23  C   UNL     1      -5.144   4.164  25.432  0.00  0.00    +0.067 A 
ATOM     24  C   UNL     1      -4.424   4.359  24.264  0.00  0.00    +0.214 A 
BRANCH  24   2
ATOM      2  O   UNL     1      -4.158   5.638  23.853  0.00  0.00    -0.480 OA
ATOM     25  C   UNL     1      -2.799   6.059  23.905  0.00  0.00    +0.279 C 
ENDBRANCH  24   2
ENDBRANCH  13  15
ENDBRANCH   4  13
TORSDOF 4
ENDMDL
MODEL 4
REMARK VINA RESULT:       4.7      2.305      9.338
REMARK  Name = 75537060
REMARK  5 active torsions:
REMARK  status: ('A' for Active; 'I' for Inactive)
REMARK    1  A    between atoms: O_2  and  C_24
REMARK    2  A    between atoms: O_2  and  C_25
REMARK    3  A    between atoms: N_4  and  C_13
REMARK    4  A    between atoms: N_5  and  C_14
REMARK    5  A    between atoms: C_13  and  C_15
REMARK                            x       y       z     vdW  Elec       q    Type
REMARK                         _______ _______ _______ _____ _____    ______ ____
ROOT
ATOM      1  O   UNL     1       1.571  -0.422  20.931  0.00  0.00    -0.252 OA
ATOM      3  N   UNL     1      -0.095   0.371  22.357  0.00  0.00    -0.278 N 
ATOM      4  N   UNL     1      -2.371   1.793  23.201  0.00  0.00    -0.295 NA
ATOM      5  N   UNL     1       1.993   0.179  23.210  0.00  0.00    -0.254 N 
ATOM      7  C   UNL     1      -0.253   0.672  23.757  0.00  0.00    +0.109 C 
ATOM      8  C   UNL     1      -1.102   1.929  23.944  0.00  0.00    +0.109 C 
ATOM      9  C   UNL     1       1.182   0.786  24.259  0.00  0.00    +0.139 C 
ATOM     10  C   UNL     1      -1.265   0.359  21.500  0.00  0.00    +0.125 C 
ATOM     11  C   UNL     1      -2.117   1.604  21.759  0.00  0.00    +0.104 C 
ATOM     12  C   UNL     1       1.214  -0.018  22.030  0.00  0.00    +0.309 C 
ENDROOT
BRANCH   5  14
ATOM     14  C   UNL     1       3.385  -0.079  23.373  0.00  0.00    +0.038 A 
ATOM     16  C   UNL     1       3.817  -1.338  23.789  0.00  0.00    +0.023 A 
ATOM     17  C   UNL     1       4.316   0.927  23.115  0.00  0.00    +0.023 A 
ATOM     20  C   UNL     1       5.179  -1.590  23.950  0.00  0.00    +0.002 A 
ATOM     21  C   UNL     1       5.678   0.675  23.274  0.00  0.00    +0.002 A 
ATOM     22  C   UNL     1       6.110  -0.584  23.691  0.00  0.00    +0.000 A 
ENDBRANCH   5  14
BRANCH   4  13
ATOM     13  C   UNL     1      -3.218   2.966  23.421  0.00  0.00    +0.121 C 
BRANCH  13  15
ATOM      6  N   UNL     1      -5.787   3.555  26.137  0.00  0.00    -0.221 NA
ATOM     15  C   UNL     1      -4.291   2.699  24.442  0.00  0.00    -0.015 A 
ATOM     18  C   UNL     1      -4.779   1.413  24.650  0.00  0.00    +0.011 A 
ATOM     19  C   UNL     1      -4.824   3.726  25.205  0.00  0.00    +0.119 A 
ATOM     23  C   UNL     1      -5.771   1.198  25.600  0.00  0.00    +0.067 A 
ATOM     24  C   UNL     1      -6.238   2.292  26.311  0.00  0.00    +0.214 A 
BRANCH  24   2
ATOM      2  O   UNL     1      -7.214   2.105  27.253  0.00  0.00    -0.480 OA
ATOM     25  C   UNL     1      -7.143   0.910  28.022  0.00  0.00    +0.279 C 
ENDBRANCH  24   2
ENDBRANCH  13  15
ENDBRANCH   4  13
TORSDOF 4
ENDMDL
MODEL 5
REMARK VINA RESULT:       4.9      1.602      2.062
REMARK  Name = 75537060
REMARK  5 active torsions:
REMARK  status: ('A' for Active; 'I' for Inactive)
REMARK    1  A    between atoms: O_2  and  C_24
REMARK    2  A    between atoms: O_2  and  C_25
REMARK    3  A    between atoms: N_4  and  C_13
REMARK    4  A    between atoms: N_5  and  C_14
REMARK    5  A    between atoms: C_13  and  C_15
REMARK                            x       y       z     vdW  Elec       q    Type
REMARK                         _______ _______ _______ _____ _____    ______ ____
ROOT
ATOM      1  O   UNL     1      -2.214   0.345  26.499  0.00  0.00    -0.252 OA
ATOM      3  N   UNL     1      -1.347  -0.068  24.374  0.00  0.00    -0.278 N 
ATOM      4  N   UNL     1       0.565  -0.519  22.360  0.00  0.00    -0.295 NA
ATOM      5  N   UNL     1      -3.119   1.334  24.515  0.00  0.00    -0.254 N 
ATOM      7  C   UNL     1      -1.697   0.204  23.003  0.00  0.00    +0.109 C 
ATOM      8  C   UNL     1      -0.450   0.540  22.186  0.00  0.00    +0.109 C 
ATOM      9  C   UNL     1      -2.716   1.333  23.114  0.00  0.00    +0.139 C 
ATOM     10  C   UNL     1      -0.259  -0.982  24.658  0.00  0.00    +0.125 C 
ATOM     11  C   UNL     1       0.949  -0.649  23.780  0.00  0.00    +0.104 C 
ATOM     12  C   UNL     1      -2.239   0.518  25.287  0.00  0.00    +0.309 C 
ENDROOT
BRANCH   5  14
ATOM     14  C   UNL     1      -4.200   2.128  24.999  0.00  0.00    +0.038 A 
ATOM     16  C   UNL     1      -4.052   3.509  25.117  0.00  0.00    +0.023 A 
ATOM     17  C   UNL     1      -5.405   1.523  25.355  0.00  0.00    +0.023 A 
ATOM     20  C   UNL     1      -5.109   4.286  25.591  0.00  0.00    +0.002 A 
ATOM     21  C   UNL     1      -6.462   2.299  25.829  0.00  0.00    +0.002 A 
ATOM     22  C   UNL     1      -6.314   3.681  25.946  0.00  0.00    +0.000 A 
ENDBRANCH   5  14
BRANCH   4  13
ATOM     13  C   UNL     1       1.740  -0.238  21.536  0.00  0.00    +0.121 C 
BRANCH  13  15
ATOM      6  N   UNL     1       4.584  -1.415  23.739  0.00  0.00    -0.221 NA
ATOM     15  C   UNL     1       3.005  -0.220  22.351  0.00  0.00    -0.015 A 
ATOM     18  C   UNL     1       3.756   0.943  22.486  0.00  0.00    +0.011 A 
ATOM     19  C   UNL     1       3.458  -1.362  22.992  0.00  0.00    +0.119 A 
ATOM     23  C   UNL     1       4.920   0.928  23.245  0.00  0.00    +0.067 A 
ATOM     24  C   UNL     1       5.288  -0.265  23.846  0.00  0.00    +0.214 A 
BRANCH  24   2
ATOM      2  O   UNL     1       6.431  -0.305  24.600  0.00  0.00    -0.480 OA
ATOM     25  C   UNL     1       7.666  -0.240  23.896  0.00  0.00    +0.279 C 
ENDBRANCH  24   2
ENDBRANCH  13  15
ENDBRANCH   4  13
TORSDOF 4
ENDMDL
MODEL 6
REMARK VINA RESULT:       5.0      2.303      9.206
REMARK  Name = 75537060
REMARK  5 active torsions:
REMARK  status: ('A' for Active; 'I' for Inactive)
REMARK    1  A    between atoms: O_2  and  C_24
REMARK    2  A    between atoms: O_2  and  C_25
REMARK    3  A    between atoms: N_4  and  C_13
REMARK    4  A    between atoms: N_5  and  C_14
REMARK    5  A    between atoms: C_13  and  C_15
REMARK                            x       y       z     vdW  Elec       q    Type
REMARK                         _______ _______ _______ _____ _____    ______ ____
ROOT
ATOM      1  O   UNL     1       1.285  -2.742  24.555  0.00  0.00    -0.252 OA
ATOM      3  N   UNL     1      -0.509  -1.296  24.915  0.00  0.00    -0.278 N 
ATOM      4  N   UNL     1      -3.167  -0.376  24.988  0.00  0.00    -0.295 NA
ATOM      5  N   UNL     1       1.400  -0.394  24.100  0.00  0.00    -0.254 N 
ATOM      7  C   UNL     1      -0.760   0.123  24.909  0.00  0.00    +0.109 C 
ATOM      8  C   UNL     1      -2.131   0.424  24.306  0.00  0.00    +0.109 C 
ATOM      9  C   UNL     1       0.423   0.688  24.131  0.00  0.00    +0.139 C 
ATOM     10  C   UNL     1      -1.528  -2.191  25.427  0.00  0.00    +0.125 C 
ATOM     11  C   UNL     1      -2.894  -1.820  24.844  0.00  0.00    +0.104 C 
ATOM     12  C   UNL     1       0.802  -1.617  24.528  0.00  0.00    +0.309 C 
ENDROOT
BRANCH   5  14
ATOM     14  C   UNL     1       2.729  -0.210  23.618  0.00  0.00    +0.038 A 
ATOM     16  C   UNL     1       3.719  -1.141  23.932  0.00  0.00    +0.023 A 
ATOM     17  C   UNL     1       3.039   0.900  22.834  0.00  0.00    +0.023 A 
ATOM     20  C   UNL     1       5.020  -0.961  23.461  0.00  0.00    +0.002 A 
ATOM     21  C   UNL     1       4.339   1.080  22.363  0.00  0.00    +0.002 A 
ATOM     22  C   UNL     1       5.330   0.149  22.676  0.00  0.00    +0.000 A 
ENDBRANCH   5  14
BRANCH   4  13
ATOM     13  C   UNL     1      -4.492  -0.052  24.459  0.00  0.00    +0.121 C 
BRANCH  13  15
ATOM      6  N   UNL     1      -6.341   2.750  26.206  0.00  0.00    -0.221 NA
ATOM     15  C   UNL     1      -4.928   1.335  24.848  0.00  0.00    -0.015 A 
ATOM     18  C   UNL     1      -4.363   2.458  24.253  0.00  0.00    +0.011 A 
ATOM     19  C   UNL     1      -5.904   1.534  25.811  0.00  0.00    +0.119 A 
ATOM     23  C   UNL     1      -4.785   3.726  24.634  0.00  0.00    +0.067 A 
ATOM     24  C   UNL     1      -5.768   3.818  25.606  0.00  0.00    +0.214 A 
BRANCH  24   2
ATOM      2  O   UNL     1      -6.202   5.057  25.998  0.00  0.00    -0.480 OA
ATOM     25  C   UNL     1      -6.565   5.965  24.965  0.00  0.00    +0.279 C 
ENDBRANCH  24   2
ENDBRANCH  13  15
ENDBRANCH   4  13
TORSDOF 4
ENDMDL
