MODEL 1
REMARK VINA RESULT:       3.9      0.000      0.000
REMARK  Name = 11912821
REMARK  6 active torsions:
REMARK  status: ('A' for Active; 'I' for Inactive)
REMARK    1  A    between atoms: O_5  and  C_30
REMARK    2  A    between atoms: O_5  and  C_31
REMARK    3  A    between atoms: N_6  and  C_12
REMARK    4  A    between atoms: N_7  and  C_13
REMARK    5  A    between atoms: C_17  and  C_18
REMARK    6  A    between atoms: C_19  and  C_23
REMARK                            x       y       z     vdW  Elec       q    Type
REMARK                         _______ _______ _______ _____ _____    ______ ____
ROOT
ATOM      2  O   UNL     1      -5.238   2.838  25.977  0.00  0.00    -0.370 OA
ATOM      3  O   UNL     1      -2.829   3.481  24.102  0.00  0.00    -0.370 OA
ATOM     10  C   UNL     1      -3.266   2.284  24.766  0.00  0.00    +0.171 C 
ATOM     11  C   UNL     1      -3.815   2.695  26.119  0.00  0.00    +0.171 C 
ATOM     12  C   UNL     1      -4.457   1.693  24.048  0.00  0.00    +0.130 C 
ATOM     13  C   UNL     1      -3.175   4.038  26.383  0.00  0.00    +0.130 C 
ATOM     14  C   UNL     1      -5.621   2.460  24.647  0.00  0.00    +0.185 C 
ATOM     15  C   UNL     1      -3.010   4.601  24.982  0.00  0.00    +0.185 C 
ENDROOT
BRANCH  12   6
ATOM      6  N   UNL     1      -4.574   0.285  24.360  0.00  0.00    -0.306 N 
ATOM      8  N   UNL     1      -2.276  -0.085  24.055  0.00  0.00    -0.214 NA
ATOM      9  N   UNL     1      -3.748  -1.889  24.677  0.00  0.00    -0.223 NA
ATOM     16  C   UNL     1      -3.500  -0.589  24.364  0.00  0.00    +0.216 A 
ATOM     19  C   UNL     1      -1.253  -0.964  24.068  0.00  0.00    +0.076 A 
ATOM     21  C   UNL     1      -2.679  -2.712  24.671  0.00  0.00    +0.116 A 
ATOM     22  C   UNL     1      -1.396  -2.302  24.372  0.00  0.00    +0.048 A 
ATOM     32  H   UNL     1      -5.472  -0.091  24.643  0.00  0.00    +0.149 HD
BRANCH  19  23
ATOM     23  C   UNL     1       0.038  -0.408  23.738  0.00  0.00    +0.001 A 
ATOM     26  C   UNL     1       0.272   0.960  23.892  0.00  0.00    +0.013 A 
ATOM     27  C   UNL     1       1.056  -1.236  23.262  0.00  0.00    +0.013 A 
ATOM     28  C   UNL     1       1.518   1.497  23.572  0.00  0.00    +0.046 A 
ATOM     29  C   UNL     1       2.304  -0.699  22.943  0.00  0.00    +0.046 A 
ATOM     30  C   UNL     1       2.534   0.668  23.096  0.00  0.00    +0.120 A 
BRANCH  30   5
ATOM      5  O   UNL     1       3.750   1.192  22.783  0.00  0.00    -0.495 OA
ATOM     31  C   UNL     1       4.898   0.409  23.107  0.00  0.00    +0.277 C 
ENDBRANCH  30   5
ENDBRANCH  19  23
ENDBRANCH  12   6
BRANCH  13   7
ATOM      4  O   UNL     1      -1.420   1.849  26.095  0.00  0.00    -0.270 OA
ATOM      7  N   UNL     1      -1.898   3.888  27.039  0.00  0.00    -0.303 N 
ATOM     17  C   UNL     1      -1.088   2.771  26.842  0.00  0.00    +0.251 C 
ATOM     33  H   UNL     1      -1.582   4.660  27.616  0.00  0.00    +0.149 HD
BRANCH  17  18
ATOM      1  S   UNL     1       0.168   2.627  29.240  0.00  0.00    -0.092 S 
ATOM     18  C   UNL     1       0.198   2.778  27.556  0.00  0.00    +0.074 A 
ATOM     20  C   UNL     1       1.433   2.892  27.019  0.00  0.00    +0.021 A 
ATOM     24  C   UNL     1       2.428   2.856  28.039  0.00  0.00    +0.008 A 
ATOM     25  C   UNL     1       1.878   2.716  29.294  0.00  0.00    +0.046 A 
ENDBRANCH  17  18
ENDBRANCH  13   7
TORSDOF 5
ENDMDL
MODEL 2
REMARK VINA RESULT:       4.8      2.482      5.428
REMARK  Name = 11912821
REMARK  6 active torsions:
REMARK  status: ('A' for Active; 'I' for Inactive)
REMARK    1  A    between atoms: O_5  and  C_30
REMARK    2  A    between atoms: O_5  and  C_31
REMARK    3  A    between atoms: N_6  and  C_12
REMARK    4  A    between atoms: N_7  and  C_13
REMARK    5  A    between atoms: C_17  and  C_18
REMARK    6  A    between atoms: C_19  and  C_23
REMARK                            x       y       z     vdW  Elec       q    Type
REMARK                         _______ _______ _______ _____ _____    ______ ____
ROOT
ATOM      2  O   UNL     1      -3.356  -1.546  23.065  0.00  0.00    -0.370 OA
ATOM      3  O   UNL     1      -2.140  -1.490  25.938  0.00  0.00    -0.370 OA
ATOM     10  C   UNL     1      -2.594  -0.462  25.042  0.00  0.00    +0.171 C 
ATOM     11  C   UNL     1      -2.214  -0.889  23.637  0.00  0.00    +0.171 C 
ATOM     12  C   UNL     1      -4.105  -0.419  25.018  0.00  0.00    +0.130 C 
ATOM     13  C   UNL     1      -1.088  -1.877  23.846  0.00  0.00    +0.130 C 
ATOM     14  C   UNL     1      -4.452  -1.481  23.991  0.00  0.00    +0.185 C 
ATOM     15  C   UNL     1      -1.442  -2.495  25.187  0.00  0.00    +0.185 C 
ENDROOT
BRANCH  12   6
ATOM      6  N   UNL     1      -4.556   0.879  24.567  0.00  0.00    -0.306 N 
ATOM      8  N   UNL     1      -2.724   1.976  25.542  0.00  0.00    -0.214 NA
ATOM      9  N   UNL     1      -4.408   3.211  24.340  0.00  0.00    -0.223 NA
ATOM     16  C   UNL     1      -3.875   2.057  24.823  0.00  0.00    +0.216 A 
ATOM     19  C   UNL     1      -2.087   3.142  25.774  0.00  0.00    +0.076 A 
ATOM     21  C   UNL     1      -3.720   4.339  24.609  0.00  0.00    +0.116 A 
ATOM     22  C   UNL     1      -2.542   4.365  25.328  0.00  0.00    +0.048 A 
ATOM     32  H   UNL     1      -5.384   0.946  23.986  0.00  0.00    +0.149 HD
BRANCH  19  23
ATOM     23  C   UNL     1      -0.866   3.033  26.537  0.00  0.00    +0.001 A 
ATOM     26  C   UNL     1       0.371   3.107  25.894  0.00  0.00    +0.013 A 
ATOM     27  C   UNL     1      -0.919   2.851  27.921  0.00  0.00    +0.013 A 
ATOM     28  C   UNL     1       1.550   3.001  26.631  0.00  0.00    +0.046 A 
ATOM     29  C   UNL     1       0.260   2.745  28.658  0.00  0.00    +0.046 A 
ATOM     30  C   UNL     1       1.494   2.819  28.013  0.00  0.00    +0.120 A 
BRANCH  30   5
ATOM      5  O   UNL     1       2.645   2.713  28.733  0.00  0.00    -0.495 OA
ATOM     31  C   UNL     1       2.581   1.982  29.956  0.00  0.00    +0.277 C 
ENDBRANCH  30   5
ENDBRANCH  19  23
ENDBRANCH  12   6
BRANCH  13   7
ATOM      4  O   UNL     1       0.338  -0.864  21.633  0.00  0.00    -0.270 OA
ATOM      7  N   UNL     1       0.190  -1.209  23.900  0.00  0.00    -0.303 N 
ATOM     17  C   UNL     1       0.830  -0.736  22.755  0.00  0.00    +0.251 C 
ATOM     33  H   UNL     1       0.587  -1.046  24.818  0.00  0.00    +0.149 HD
BRANCH  17  18
ATOM      1  S   UNL     1       3.473  -0.999  23.296  0.00  0.00    -0.092 S 
ATOM     18  C   UNL     1       2.112  -0.049  22.976  0.00  0.00    +0.074 A 
ATOM     20  C   UNL     1       2.344   1.282  22.952  0.00  0.00    +0.021 A 
ATOM     24  C   UNL     1       3.717   1.557  23.212  0.00  0.00    +0.008 A 
ATOM     25  C   UNL     1       4.446   0.405  23.417  0.00  0.00    +0.046 A 
ENDBRANCH  17  18
ENDBRANCH  13   7
TORSDOF 5
ENDMDL
MODEL 3
REMARK VINA RESULT:       6.1      1.758      5.132
REMARK  Name = 11912821
REMARK  6 active torsions:
REMARK  status: ('A' for Active; 'I' for Inactive)
REMARK    1  A    between atoms: O_5  and  C_30
REMARK    2  A    between atoms: O_5  and  C_31
REMARK    3  A    between atoms: N_6  and  C_12
REMARK    4  A    between atoms: N_7  and  C_13
REMARK    5  A    between atoms: C_17  and  C_18
REMARK    6  A    between atoms: C_19  and  C_23
REMARK                            x       y       z     vdW  Elec       q    Type
REMARK                         _______ _______ _______ _____ _____    ______ ____
ROOT
ATOM      2  O   UNL     1      -1.389   1.215  23.444  0.00  0.00    -0.370 OA
ATOM      3  O   UNL     1       1.725   1.072  23.310  0.00  0.00    -0.370 OA
ATOM     10  C   UNL     1       0.720   0.183  23.825  0.00  0.00    +0.171 C 
ATOM     11  C   UNL     1      -0.368   1.041  24.440  0.00  0.00    +0.171 C 
ATOM     12  C   UNL     1       0.028  -0.536  22.691  0.00  0.00    +0.130 C 
ATOM     13  C   UNL     1       0.318   2.357  24.726  0.00  0.00    +0.130 C 
ATOM     14  C   UNL     1      -1.047   0.452  22.277  0.00  0.00    +0.185 C 
ATOM     15  C   UNL     1       1.362   2.426  23.625  0.00  0.00    +0.185 C 
ENDROOT
BRANCH  12   6
ATOM      6  N   UNL     1      -0.576  -1.758  23.176  0.00  0.00    -0.306 N 
ATOM      8  N   UNL     1      -2.398  -0.614  24.115  0.00  0.00    -0.214 NA
ATOM      9  N   UNL     1      -2.229  -3.013  24.273  0.00  0.00    -0.223 NA
ATOM     16  C   UNL     1      -1.770  -1.796  23.874  0.00  0.00    +0.216 A 
ATOM     19  C   UNL     1      -3.559  -0.688  24.798  0.00  0.00    +0.076 A 
ATOM     21  C   UNL     1      -3.394  -3.013  24.951  0.00  0.00    +0.116 A 
ATOM     22  C   UNL     1      -4.111  -1.871  25.246  0.00  0.00    +0.048 A 
ATOM     32  H   UNL     1      -0.145  -2.649  22.957  0.00  0.00    +0.149 HD
BRANCH  19  23
ATOM     23  C   UNL     1      -4.209   0.578  25.041  0.00  0.00    +0.001 A 
ATOM     26  C   UNL     1      -3.451   1.744  25.160  0.00  0.00    +0.013 A 
ATOM     27  C   UNL     1      -5.600   0.639  25.159  0.00  0.00    +0.013 A 
ATOM     28  C   UNL     1      -4.079   2.966  25.394  0.00  0.00    +0.046 A 
ATOM     29  C   UNL     1      -6.228   1.863  25.393  0.00  0.00    +0.046 A 
ATOM     30  C   UNL     1      -5.468   3.026  25.512  0.00  0.00    +0.120 A 
BRANCH  30   5
ATOM      5  O   UNL     1      -6.081   4.219  25.743  0.00  0.00    -0.495 OA
ATOM     31  C   UNL     1      -5.614   5.344  25.000  0.00  0.00    +0.277 C 
ENDBRANCH  30   5
ENDBRANCH  19  23
ENDBRANCH  12   6
BRANCH  13   7
ATOM      4  O   UNL     1      -0.978   2.928  27.165  0.00  0.00    -0.270 OA
ATOM      7  N   UNL     1       0.935   2.351  26.031  0.00  0.00    -0.303 N 
ATOM     17  C   UNL     1       0.221   2.646  27.192  0.00  0.00    +0.251 C 
ATOM     33  H   UNL     1       1.908   2.070  26.080  0.00  0.00    +0.149 HD
BRANCH  17  18
ATOM      1  S   UNL     1       2.658   2.775  28.372  0.00  0.00    -0.092 S 
ATOM     18  C   UNL     1       0.981   2.567  28.448  0.00  0.00    +0.074 A 
ATOM     20  C   UNL     1       0.494   2.346  29.689  0.00  0.00    +0.021 A 
ATOM     24  C   UNL     1       1.548   2.341  30.649  0.00  0.00    +0.008 A 
ATOM     25  C   UNL     1       2.777   2.563  30.067  0.00  0.00    +0.046 A 
ENDBRANCH  17  18
ENDBRANCH  13   7
TORSDOF 5
ENDMDL
MODEL 4
REMARK VINA RESULT:       6.1      3.019      5.191
REMARK  Name = 11912821
REMARK  6 active torsions:
REMARK  status: ('A' for Active; 'I' for Inactive)
REMARK    1  A    between atoms: O_5  and  C_30
REMARK    2  A    between atoms: O_5  and  C_31
REMARK    3  A    between atoms: N_6  and  C_12
REMARK    4  A    between atoms: N_7  and  C_13
REMARK    5  A    between atoms: C_17  and  C_18
REMARK    6  A    between atoms: C_19  and  C_23
REMARK                            x       y       z     vdW  Elec       q    Type
REMARK                         _______ _______ _______ _____ _____    ______ ____
ROOT
ATOM      2  O   UNL     1      -1.442   5.255  25.599  0.00  0.00    -0.370 OA
ATOM      3  O   UNL     1      -1.598   3.335  23.146  0.00  0.00    -0.370 OA
ATOM     10  C   UNL     1      -2.447   3.544  24.287  0.00  0.00    +0.171 C 
ATOM     11  C   UNL     1      -1.544   3.828  25.472  0.00  0.00    +0.171 C 
ATOM     12  C   UNL     1      -3.246   4.815  24.118  0.00  0.00    +0.130 C 
ATOM     13  C   UNL     1      -0.212   3.238  25.070  0.00  0.00    +0.130 C 
ATOM     14  C   UNL     1      -2.289   5.879  24.623  0.00  0.00    +0.185 C 
ATOM     15  C   UNL     1      -0.225   3.404  23.561  0.00  0.00    +0.185 C 
ENDROOT
BRANCH  12   6
ATOM      6  N   UNL     1      -4.428   4.770  24.950  0.00  0.00    -0.306 N 
ATOM      8  N   UNL     1      -4.436   2.423  25.003  0.00  0.00    -0.214 NA
ATOM      9  N   UNL     1      -6.122   3.692  26.166  0.00  0.00    -0.223 NA
ATOM     16  C   UNL     1      -5.012   3.593  25.387  0.00  0.00    +0.216 A 
ATOM     19  C   UNL     1      -5.031   1.297  25.445  0.00  0.00    +0.076 A 
ATOM     21  C   UNL     1      -6.665   2.526  26.573  0.00  0.00    +0.116 A 
ATOM     22  C   UNL     1      -6.157   1.287  26.241  0.00  0.00    +0.048 A 
ATOM     32  H   UNL     1      -4.836   5.635  25.286  0.00  0.00    +0.149 HD
BRANCH  19  23
ATOM     23  C   UNL     1      -4.401   0.066  25.027  0.00  0.00    +0.001 A 
ATOM     26  C   UNL     1      -4.069  -0.130  23.686  0.00  0.00    +0.013 A 
ATOM     27  C   UNL     1      -4.125  -0.932  25.964  0.00  0.00    +0.013 A 
ATOM     28  C   UNL     1      -3.462  -1.319  23.282  0.00  0.00    +0.046 A 
ATOM     29  C   UNL     1      -3.517  -2.121  25.560  0.00  0.00    +0.046 A 
ATOM     30  C   UNL     1      -3.186  -2.315  24.219  0.00  0.00    +0.120 A 
BRANCH  30   5
ATOM      5  O   UNL     1      -2.595  -3.476  23.826  0.00  0.00    -0.495 OA
ATOM     31  C   UNL     1      -3.381  -4.371  23.040  0.00  0.00    +0.277 C 
ENDBRANCH  30   5
ENDBRANCH  19  23
ENDBRANCH  12   6
BRANCH  13   7
ATOM      4  O   UNL     1      -0.721   1.043  23.374  0.00  0.00    -0.270 OA
ATOM      7  N   UNL     1      -0.123   1.847  25.442  0.00  0.00    -0.303 N 
ATOM     17  C   UNL     1      -0.392   0.818  24.539  0.00  0.00    +0.251 C 
ATOM     33  H   UNL     1       0.198   1.639  26.381  0.00  0.00    +0.149 HD
BRANCH  17  18
ATOM      1  S   UNL     1       0.540  -1.682  24.065  0.00  0.00    -0.092 S 
ATOM     18  C   UNL     1      -0.226  -0.548  25.058  0.00  0.00    +0.074 A 
ATOM     20  C   UNL     1      -0.618  -1.022  26.261  0.00  0.00    +0.021 A 
ATOM     24  C   UNL     1      -0.279  -2.400  26.392  0.00  0.00    +0.008 A 
ATOM     25  C   UNL     1       0.356  -2.886  25.269  0.00  0.00    +0.046 A 
ENDBRANCH  17  18
ENDBRANCH  13   7
TORSDOF 5
ENDMDL
MODEL 5
REMARK VINA RESULT:       6.3      2.597      4.478
REMARK  Name = 11912821
REMARK  6 active torsions:
REMARK  status: ('A' for Active; 'I' for Inactive)
REMARK    1  A    between atoms: O_5  and  C_30
REMARK    2  A    between atoms: O_5  and  C_31
REMARK    3  A    between atoms: N_6  and  C_12
REMARK    4  A    between atoms: N_7  and  C_13
REMARK    5  A    between atoms: C_17  and  C_18
REMARK    6  A    between atoms: C_19  and  C_23
REMARK                            x       y       z     vdW  Elec       q    Type
REMARK                         _______ _______ _______ _____ _____    ______ ____
ROOT
ATOM      2  O   UNL     1      -2.844   3.450  26.871  0.00  0.00    -0.370 OA
ATOM      3  O   UNL     1      -1.881   5.073  24.387  0.00  0.00    -0.370 OA
ATOM     10  C   UNL     1      -2.950   4.136  24.595  0.00  0.00    +0.171 C 
ATOM     11  C   UNL     1      -2.437   3.072  25.546  0.00  0.00    +0.171 C 
ATOM     12  C   UNL     1      -4.081   4.793  25.352  0.00  0.00    +0.130 C 
ATOM     13  C   UNL     1      -0.934   3.154  25.414  0.00  0.00    +0.130 C 
ATOM     14  C   UNL     1      -3.650   4.635  26.798  0.00  0.00    +0.185 C 
ATOM     15  C   UNL     1      -0.715   4.623  25.095  0.00  0.00    +0.185 C 
ENDROOT
BRANCH  12   6
ATOM      6  N   UNL     1      -5.315   4.076  25.117  0.00  0.00    -0.306 N 
ATOM      8  N   UNL     1      -4.227   1.997  25.071  0.00  0.00    -0.214 NA
ATOM      9  N   UNL     1      -6.612   2.151  24.764  0.00  0.00    -0.223 NA
ATOM     16  C   UNL     1      -5.387   2.700  24.981  0.00  0.00    +0.216 A 
ATOM     19  C   UNL     1      -4.333   0.659  24.934  0.00  0.00    +0.076 A 
ATOM     21  C   UNL     1      -6.644   0.809  24.635  0.00  0.00    +0.116 A 
ATOM     22  C   UNL     1      -5.526   0.004  24.713  0.00  0.00    +0.048 A 
ATOM     32  H   UNL     1      -6.193   4.584  25.100  0.00  0.00    +0.149 HD
BRANCH  19  23
ATOM     23  C   UNL     1      -3.090  -0.068  25.035  0.00  0.00    +0.001 A 
ATOM     26  C   UNL     1      -2.693  -0.926  24.007  0.00  0.00    +0.013 A 
ATOM     27  C   UNL     1      -2.280   0.083  26.163  0.00  0.00    +0.013 A 
ATOM     28  C   UNL     1      -1.493  -1.628  24.106  0.00  0.00    +0.046 A 
ATOM     29  C   UNL     1      -1.079  -0.620  26.261  0.00  0.00    +0.046 A 
ATOM     30  C   UNL     1      -0.686  -1.476  25.233  0.00  0.00    +0.120 A 
BRANCH  30   5
ATOM      5  O   UNL     1       0.485  -2.163  25.330  0.00  0.00    -0.495 OA
ATOM     31  C   UNL     1       0.399  -3.549  25.659  0.00  0.00    +0.277 C 
ENDBRANCH  30   5
ENDBRANCH  19  23
ENDBRANCH  12   6
BRANCH  13   7
ATOM      4  O   UNL     1       1.572   1.862  25.327  0.00  0.00    -0.270 OA
ATOM      7  N   UNL     1      -0.456   2.311  24.344  0.00  0.00    -0.303 N 
ATOM     17  C   UNL     1       0.800   1.707  24.379  0.00  0.00    +0.251 C 
ATOM     33  H   UNL     1      -1.096   2.127  23.580  0.00  0.00    +0.149 HD
BRANCH  17  18
ATOM      1  S   UNL     1       2.766   0.619  22.862  0.00  0.00    -0.092 S 
ATOM     18  C   UNL     1       1.131   0.851  23.230  0.00  0.00    +0.074 A 
ATOM     20  C   UNL     1       0.270   0.207  22.411  0.00  0.00    +0.021 A 
ATOM     24  C   UNL     1       0.978  -0.524  21.414  0.00  0.00    +0.008 A 
ATOM     25  C   UNL     1       2.343  -0.388  21.542  0.00  0.00    +0.046 A 
ENDBRANCH  17  18
ENDBRANCH  13   7
TORSDOF 5
ENDMDL
MODEL 6
REMARK VINA RESULT:       6.6      2.491      6.116
REMARK  Name = 11912821
REMARK  6 active torsions:
REMARK  status: ('A' for Active; 'I' for Inactive)
REMARK    1  A    between atoms: O_5  and  C_30
REMARK    2  A    between atoms: O_5  and  C_31
REMARK    3  A    between atoms: N_6  and  C_12
REMARK    4  A    between atoms: N_7  and  C_13
REMARK    5  A    between atoms: C_17  and  C_18
REMARK    6  A    between atoms: C_19  and  C_23
REMARK                            x       y       z     vdW  Elec       q    Type
REMARK                         _______ _______ _______ _____ _____    ______ ____
ROOT
ATOM      2  O   UNL     1       0.958  -0.670  23.590  0.00  0.00    -0.370 OA
ATOM      3  O   UNL     1      -0.192   0.688  26.153  0.00  0.00    -0.370 OA
ATOM     10  C   UNL     1      -0.772  -0.148  25.138  0.00  0.00    +0.171 C 
ATOM     11  C   UNL     1      -0.133   0.237  23.818  0.00  0.00    +0.171 C 
ATOM     12  C   UNL     1      -0.356  -1.586  25.344  0.00  0.00    +0.130 C 
ATOM     13  C   UNL     1       0.387   1.636  24.056  0.00  0.00    +0.130 C 
ATOM     14  C   UNL     1       0.987  -1.648  24.641  0.00  0.00    +0.185 C 
ATOM     15  C   UNL     1       0.717   1.613  25.538  0.00  0.00    +0.185 C 
ENDROOT
BRANCH  12   6
ATOM      6  N   UNL     1      -1.300  -2.472  24.699  0.00  0.00    -0.306 N 
ATOM      8  N   UNL     1      -3.035  -0.895  24.828  0.00  0.00    -0.214 NA
ATOM      9  N   UNL     1      -3.400  -3.057  23.828  0.00  0.00    -0.223 NA
ATOM     16  C   UNL     1      -2.617  -2.131  24.443  0.00  0.00    +0.216 A 
ATOM     19  C   UNL     1      -4.323  -0.596  24.564  0.00  0.00    +0.076 A 
ATOM     21  C   UNL     1      -4.677  -2.692  23.595  0.00  0.00    +0.116 A 
ATOM     22  C   UNL     1      -5.199  -1.463  23.944  0.00  0.00    +0.048 A 
ATOM     32  H   UNL     1      -0.987  -3.375  24.361  0.00  0.00    +0.149 HD
BRANCH  19  23
ATOM     23  C   UNL     1      -4.745   0.721  24.979  0.00  0.00    +0.001 A 
ATOM     26  C   UNL     1      -3.840   1.581  25.604  0.00  0.00    +0.013 A 
ATOM     27  C   UNL     1      -6.059   1.138  24.757  0.00  0.00    +0.013 A 
ATOM     28  C   UNL     1      -4.247   2.853  26.005  0.00  0.00    +0.046 A 
ATOM     29  C   UNL     1      -6.466   2.410  25.158  0.00  0.00    +0.046 A 
ATOM     30  C   UNL     1      -5.561   3.268  25.783  0.00  0.00    +0.120 A 
BRANCH  30   5
ATOM      5  O   UNL     1      -5.959   4.508  26.176  0.00  0.00    -0.495 OA
ATOM     31  C   UNL     1      -6.520   5.357  25.175  0.00  0.00    +0.277 C 
ENDBRANCH  30   5
ENDBRANCH  19  23
ENDBRANCH  12   6
BRANCH  13   7
ATOM      4  O   UNL     1      -0.460   3.694  25.789  0.00  0.00    -0.270 OA
ATOM      7  N   UNL     1      -0.621   2.626  23.761  0.00  0.00    -0.303 N 
ATOM     17  C   UNL     1      -0.983   3.613  24.676  0.00  0.00    +0.251 C 
ATOM     33  H   UNL     1      -1.026   2.610  22.831  0.00  0.00    +0.149 HD
BRANCH  17  18
ATOM      1  S   UNL     1      -3.253   3.982  23.241  0.00  0.00    -0.092 S 
ATOM     18  C   UNL     1      -2.003   4.569  24.218  0.00  0.00    +0.074 A 
ATOM     20  C   UNL     1      -2.069   5.891  24.488  0.00  0.00    +0.021 A 
ATOM     24  C   UNL     1      -3.208   6.475  23.861  0.00  0.00    +0.008 A 
ATOM     25  C   UNL     1      -3.940   5.549  23.151  0.00  0.00    +0.046 A 
ENDBRANCH  17  18
ENDBRANCH  13   7
TORSDOF 5
ENDMDL
MODEL 7
REMARK VINA RESULT:       7.5      2.514      4.431
REMARK  Name = 11912821
REMARK  6 active torsions:
REMARK  status: ('A' for Active; 'I' for Inactive)
REMARK    1  A    between atoms: O_5  and  C_30
REMARK    2  A    between atoms: O_5  and  C_31
REMARK    3  A    between atoms: N_6  and  C_12
REMARK    4  A    between atoms: N_7  and  C_13
REMARK    5  A    between atoms: C_17  and  C_18
REMARK    6  A    between atoms: C_19  and  C_23
REMARK                            x       y       z     vdW  Elec       q    Type
REMARK                         _______ _______ _______ _____ _____    ______ ____
ROOT
ATOM      2  O   UNL     1      -2.574   0.434  23.685  0.00  0.00    -0.370 OA
ATOM      3  O   UNL     1      -1.779  -1.877  25.624  0.00  0.00    -0.370 OA
ATOM     10  C   UNL     1      -2.762  -0.831  25.691  0.00  0.00    +0.171 C 
ATOM     11  C   UNL     1      -2.150   0.403  25.057  0.00  0.00    +0.171 C 
ATOM     12  C   UNL     1      -3.937  -1.160  24.799  0.00  0.00    +0.130 C 
ATOM     13  C   UNL     1      -0.661   0.161  25.143  0.00  0.00    +0.130 C 
ATOM     14  C   UNL     1      -3.478  -0.654  23.444  0.00  0.00    +0.185 C 
ATOM     15  C   UNL     1      -0.572  -1.352  25.050  0.00  0.00    +0.185 C 
ENDROOT
BRANCH  12   6
ATOM      6  N   UNL     1      -5.108  -0.430  25.235  0.00  0.00    -0.306 N 
ATOM      8  N   UNL     1      -4.044   1.646  24.984  0.00  0.00    -0.214 NA
ATOM      9  N   UNL     1      -6.325   1.510  25.748  0.00  0.00    -0.223 NA
ATOM     16  C   UNL     1      -5.160   0.950  25.324  0.00  0.00    +0.216 A 
ATOM     19  C   UNL     1      -4.129   2.989  25.082  0.00  0.00    +0.076 A 
ATOM     21  C   UNL     1      -6.340   2.857  25.823  0.00  0.00    +0.116 A 
ATOM     22  C   UNL     1      -5.262   3.656  25.500  0.00  0.00    +0.048 A 
ATOM     32  H   UNL     1      -5.962  -0.936  25.442  0.00  0.00    +0.149 HD
BRANCH  19  23
ATOM     23  C   UNL     1      -2.933   3.709  24.714  0.00  0.00    +0.001 A 
ATOM     26  C   UNL     1      -2.522   4.814  25.462  0.00  0.00    +0.013 A 
ATOM     27  C   UNL     1      -2.184   3.302  23.608  0.00  0.00    +0.013 A 
ATOM     28  C   UNL     1      -1.367   5.509  25.106  0.00  0.00    +0.046 A 
ATOM     29  C   UNL     1      -1.028   3.997  23.252  0.00  0.00    +0.046 A 
ATOM     30  C   UNL     1      -0.620   5.101  24.000  0.00  0.00    +0.120 A 
BRANCH  30   5
ATOM      5  O   UNL     1       0.506   5.781  23.652  0.00  0.00    -0.495 OA
ATOM     31  C   UNL     1       0.901   5.725  22.281  0.00  0.00    +0.277 C 
ENDBRANCH  30   5
ENDBRANCH  19  23
ENDBRANCH  12   6
BRANCH  13   7
ATOM      4  O   UNL     1       0.456   2.712  25.590  0.00  0.00    -0.270 OA
ATOM      7  N   UNL     1      -0.125   0.639  26.394  0.00  0.00    -0.303 N 
ATOM     17  C   UNL     1       0.412   1.919  26.532  0.00  0.00    +0.251 C 
ATOM     33  H   UNL     1      -0.200   0.022  27.195  0.00  0.00    +0.149 HD
BRANCH  17  18
ATOM      1  S   UNL     1       2.514   2.708  28.051  0.00  0.00    -0.092 S 
ATOM     18  C   UNL     1       0.889   2.272  27.878  0.00  0.00    +0.074 A 
ATOM     20  C   UNL     1       0.172   2.294  29.023  0.00  0.00    +0.021 A 
ATOM     24  C   UNL     1       0.991   2.689  30.120  0.00  0.00    +0.008 A 
ATOM     25  C   UNL     1       2.289   2.944  29.732  0.00  0.00    +0.046 A 
ENDBRANCH  17  18
ENDBRANCH  13   7
TORSDOF 5
ENDMDL
MODEL 8
REMARK VINA RESULT:       7.9      2.965      5.327
REMARK  Name = 11912821
REMARK  6 active torsions:
REMARK  status: ('A' for Active; 'I' for Inactive)
REMARK    1  A    between atoms: O_5  and  C_30
REMARK    2  A    between atoms: O_5  and  C_31
REMARK    3  A    between atoms: N_6  and  C_12
REMARK    4  A    between atoms: N_7  and  C_13
REMARK    5  A    between atoms: C_17  and  C_18
REMARK    6  A    between atoms: C_19  and  C_23
REMARK                            x       y       z     vdW  Elec       q    Type
REMARK                         _______ _______ _______ _____ _____    ______ ____
ROOT
ATOM      2  O   UNL     1      -5.802   4.531  24.773  0.00  0.00    -0.370 OA
ATOM      3  O   UNL     1      -4.714   2.639  27.003  0.00  0.00    -0.370 OA
ATOM     10  C   UNL     1      -4.080   3.391  25.955  0.00  0.00    +0.171 C 
ATOM     11  C   UNL     1      -4.996   3.342  24.748  0.00  0.00    +0.171 C 
ATOM     12  C   UNL     1      -4.029   4.856  26.320  0.00  0.00    +0.130 C 
ATOM     13  C   UNL     1      -5.853   2.120  24.986  0.00  0.00    +0.130 C 
ATOM     14  C   UNL     1      -5.388   5.359  25.871  0.00  0.00    +0.185 C 
ATOM     15  C   UNL     1      -5.933   2.070  26.502  0.00  0.00    +0.185 C 
ENDROOT
BRANCH  12   6
ATOM      6  N   UNL     1      -2.980   5.516  25.574  0.00  0.00    -0.306 N 
ATOM      8  N   UNL     1      -1.824   3.506  25.210  0.00  0.00    -0.214 NA
ATOM      9  N   UNL     1      -0.981   5.592  24.346  0.00  0.00    -0.223 NA
ATOM     16  C   UNL     1      -1.897   4.851  25.026  0.00  0.00    +0.216 A 
ATOM     19  C   UNL     1      -0.756   2.890  24.663  0.00  0.00    +0.076 A 
ATOM     21  C   UNL     1       0.061   4.912  23.827  0.00  0.00    +0.116 A 
ATOM     22  C   UNL     1       0.228   3.548  23.954  0.00  0.00    +0.048 A 
ATOM     32  H   UNL     1      -3.050   6.510  25.386  0.00  0.00    +0.149 HD
BRANCH  19  23
ATOM     23  C   UNL     1      -0.700   1.462  24.868  0.00  0.00    +0.001 A 
ATOM     26  C   UNL     1      -1.132   0.910  26.076  0.00  0.00    +0.013 A 
ATOM     27  C   UNL     1      -0.211   0.629  23.860  0.00  0.00    +0.013 A 
ATOM     28  C   UNL     1      -1.077  -0.469  26.274  0.00  0.00    +0.046 A 
ATOM     29  C   UNL     1      -0.157  -0.751  24.058  0.00  0.00    +0.046 A 
ATOM     30  C   UNL     1      -0.588  -1.300  25.265  0.00  0.00    +0.120 A 
BRANCH  30   5
ATOM      5  O   UNL     1      -0.533  -2.646  25.459  0.00  0.00    -0.495 OA
ATOM     31  C   UNL     1       0.761  -3.245  25.490  0.00  0.00    +0.277 C 
ENDBRANCH  30   5
ENDBRANCH  19  23
ENDBRANCH  12   6
BRANCH  13   7
ATOM      4  O   UNL     1      -4.723   0.033  26.510  0.00  0.00    -0.270 OA
ATOM      7  N   UNL     1      -5.229   0.932  24.457  0.00  0.00    -0.303 N 
ATOM     17  C   UNL     1      -4.692  -0.056  25.282  0.00  0.00    +0.251 C 
ATOM     33  H   UNL     1      -5.241   0.813  23.450  0.00  0.00    +0.149 HD
BRANCH  17  18
ATOM      1  S   UNL     1      -3.619  -2.532  25.542  0.00  0.00    -0.092 S 
ATOM     18  C   UNL     1      -4.119  -1.223  24.594  0.00  0.00    +0.074 A 
ATOM     20  C   UNL     1      -3.938  -1.385  23.265  0.00  0.00    +0.021 A 
ATOM     24  C   UNL     1      -3.353  -2.655  22.989  0.00  0.00    +0.008 A 
ATOM     25  C   UNL     1      -3.127  -3.381  24.138  0.00  0.00    +0.046 A 
ENDBRANCH  17  18
ENDBRANCH  13   7
TORSDOF 5
ENDMDL
