MODEL 1
REMARK VINA RESULT:       9.1      0.000      0.000
REMARK  Name = 25312695
REMARK  9 active torsions:
REMARK  status: ('A' for Active; 'I' for Inactive)
REMARK    1  A    between atoms: O_3  and  C_29
REMARK    2  A    between atoms: O_5  and  C_35
REMARK    3  A    between atoms: O_5  and  C_36
REMARK    4  A    between atoms: N_6  and  C_16
REMARK    5  A    between atoms: C_14  and  C_18
REMARK    6  A    between atoms: C_16  and  C_18
REMARK    7  A    between atoms: C_17  and  C_23
REMARK    8  A    between atoms: C_23  and  C_29
REMARK    9  A    between atoms: C_27  and  C_30
REMARK                            x       y       z     vdW  Elec       q    Type
REMARK                         _______ _______ _______ _____ _____    ______ ____
ROOT
ATOM      2  O   UNL     1      -6.263   0.782  26.166  0.00  0.00    -0.270 OA
ATOM      8  N   UNL     1      -4.744   2.045  24.911  0.00  0.00    -0.297 N 
ATOM     14  C   UNL     1      -2.496   3.073  24.658  0.00  0.00    +0.011 C 
ATOM     17  C   UNL     1      -3.130   4.448  24.991  0.00  0.00    +0.006 C 
ATOM     20  C   UNL     1      -3.558   2.140  24.048  0.00  0.00    +0.112 C 
ATOM     21  C   UNL     1      -4.393   4.293  25.855  0.00  0.00    +0.023 C 
ATOM     22  C   UNL     1      -5.384   3.323  25.218  0.00  0.00    +0.108 C 
ATOM     27  C   UNL     1      -5.273   0.866  25.439  0.00  0.00    +0.247 C 
ENDROOT
BRANCH  27  30
ATOM     30  C   UNL     1      -4.604  -0.399  25.110  0.00  0.00    +0.037 A 
ATOM     31  C   UNL     1      -4.914  -1.061  23.921  0.00  0.00    +0.016 A 
ATOM     32  C   UNL     1      -3.660  -0.937  25.984  0.00  0.00    +0.016 A 
ATOM     33  C   UNL     1      -4.280  -2.263  23.608  0.00  0.00    +0.046 A 
ATOM     34  C   UNL     1      -3.027  -2.140  25.670  0.00  0.00    +0.046 A 
ATOM     35  C   UNL     1      -3.336  -2.802  24.482  0.00  0.00    +0.120 A 
BRANCH  35   5
ATOM      5  O   UNL     1      -2.717  -3.975  24.176  0.00  0.00    -0.495 OA
ATOM     36  C   UNL     1      -1.684  -3.927  23.193  0.00  0.00    +0.277 C 
ENDBRANCH  35   5
ENDBRANCH  27  30
BRANCH  14  18
ATOM     18  C   UNL     1      -1.815   2.396  25.854  0.00  0.00    +0.020 C 
BRANCH  18  16
ATOM     16  C   UNL     1      -0.298   2.358  25.681  0.00  0.00    +0.085 C 
BRANCH  16   6
ATOM      1  O   UNL     1       3.747   0.790  21.316  0.00  0.00    -0.268 OA
ATOM      6  N   UNL     1       0.075   1.347  24.694  0.00  0.00    -0.301 NA
ATOM      7  N   UNL     1       2.089  -0.117  22.699  0.00  0.00    -0.312 N 
ATOM      9  C   UNL     1      -0.406   0.394  22.426  0.00  0.00    +0.024 C 
ATOM     10  C   UNL     1       0.339  -1.092  24.225  0.00  0.00    +0.050 C 
ATOM     11  C   UNL     1      -0.604  -0.990  23.029  0.00  0.00    +0.017 C 
ATOM     12  C   UNL     1      -0.732   1.479  23.475  0.00  0.00    +0.089 C 
ATOM     13  C   UNL     1      -0.023  -0.005  25.262  0.00  0.00    +0.094 C 
ATOM     15  C   UNL     1       1.029   0.502  21.893  0.00  0.00    +0.130 C 
ATOM     19  C   UNL     1       1.784  -0.946  23.784  0.00  0.00    +0.026 A 
ATOM     24  C   UNL     1       2.766  -1.589  24.439  0.00  0.00    +0.022 A 
ATOM     25  C   UNL     1       3.414   0.087  22.270  0.00  0.00    +0.251 A 
ATOM     26  C   UNL     1       4.139  -1.422  24.054  0.00  0.00    +0.007 A 
ATOM     28  C   UNL     1       4.475  -0.625  23.036  0.00  0.00    +0.070 A 
ENDBRANCH  16   6
ENDBRANCH  18  16
ENDBRANCH  14  18
BRANCH  17  23
ATOM     23  C   UNL     1      -2.148   5.420  25.643  0.00  0.00    +0.124 C 
BRANCH  23  29
ATOM      4  O   UNL     1       0.139   5.537  24.807  0.00  0.00    -0.251 OA
ATOM     29  C   UNL     1      -1.046   5.813  24.698  0.00  0.00    +0.305 C 
BRANCH  29   3
ATOM      3  O   UNL     1      -1.559   6.539  23.672  0.00  0.00    -0.481 OA
ATOM     37  H   UNL     1      -2.214   6.025  23.152  0.00  0.00    +0.295 HD
ENDBRANCH  29   3
ENDBRANCH  23  29
ENDBRANCH  17  23
TORSDOF 8
ENDMDL
MODEL 2
REMARK VINA RESULT:       9.6      1.822      6.631
REMARK  Name = 25312695
REMARK  9 active torsions:
REMARK  status: ('A' for Active; 'I' for Inactive)
REMARK    1  A    between atoms: O_3  and  C_29
REMARK    2  A    between atoms: O_5  and  C_35
REMARK    3  A    between atoms: O_5  and  C_36
REMARK    4  A    between atoms: N_6  and  C_16
REMARK    5  A    between atoms: C_14  and  C_18
REMARK    6  A    between atoms: C_16  and  C_18
REMARK    7  A    between atoms: C_17  and  C_23
REMARK    8  A    between atoms: C_23  and  C_29
REMARK    9  A    between atoms: C_27  and  C_30
REMARK                            x       y       z     vdW  Elec       q    Type
REMARK                         _______ _______ _______ _____ _____    ______ ____
ROOT
ATOM      2  O   UNL     1       0.450  -0.326  21.615  0.00  0.00    -0.270 OA
ATOM      8  N   UNL     1       0.301   1.564  22.988  0.00  0.00    -0.297 N 
ATOM     14  C   UNL     1       0.008   2.564  25.243  0.00  0.00    +0.011 C 
ATOM     17  C   UNL     1      -1.450   2.921  24.853  0.00  0.00    +0.006 C 
ATOM     20  C   UNL     1       0.883   2.479  23.980  0.00  0.00    +0.112 C 
ATOM     21  C   UNL     1      -1.997   1.966  23.779  0.00  0.00    +0.023 C 
ATOM     22  C   UNL     1      -1.062   1.892  22.574  0.00  0.00    +0.108 C 
ATOM     27  C   UNL     1       0.935   0.445  22.442  0.00  0.00    +0.247 C 
ENDROOT
BRANCH  27  30
ATOM     30  C   UNL     1       2.304   0.146  22.880  0.00  0.00    +0.037 A 
ATOM     31  C   UNL     1       3.298   1.120  22.773  0.00  0.00    +0.016 A 
ATOM     32  C   UNL     1       2.611  -1.110  23.402  0.00  0.00    +0.016 A 
ATOM     33  C   UNL     1       4.598   0.836  23.188  0.00  0.00    +0.046 A 
ATOM     34  C   UNL     1       3.912  -1.394  23.817  0.00  0.00    +0.046 A 
ATOM     35  C   UNL     1       4.906  -0.420  23.710  0.00  0.00    +0.120 A 
BRANCH  35   5
ATOM      5  O   UNL     1       6.175  -0.697  24.115  0.00  0.00    -0.495 OA
ATOM     36  C   UNL     1       7.214  -0.535  23.151  0.00  0.00    +0.277 C 
ENDBRANCH  35   5
ENDBRANCH  27  30
BRANCH  14  18
ATOM     18  C   UNL     1       0.133   1.277  26.067  0.00  0.00    +0.020 C 
BRANCH  18  16
ATOM     16  C   UNL     1      -0.092   0.039  25.200  0.00  0.00    +0.085 C 
BRANCH  16   6
ATOM      1  O   UNL     1      -5.736   1.504  27.169  0.00  0.00    -0.268 OA
ATOM      6  N   UNL     1      -1.487  -0.387  25.278  0.00  0.00    -0.301 NA
ATOM      7  N   UNL     1      -4.617   0.078  25.685  0.00  0.00    -0.312 N 
ATOM      9  C   UNL     1      -3.136  -1.866  26.451  0.00  0.00    +0.024 C 
ATOM     10  C   UNL     1      -3.409  -1.416  24.059  0.00  0.00    +0.050 C 
ATOM     11  C   UNL     1      -3.539  -2.501  25.126  0.00  0.00    +0.017 C 
ATOM     12  C   UNL     1      -1.684  -1.349  26.369  0.00  0.00    +0.089 C 
ATOM     13  C   UNL     1      -1.944  -0.932  23.991  0.00  0.00    +0.094 C 
ATOM     15  C   UNL     1      -4.139  -0.757  26.795  0.00  0.00    +0.130 C 
ATOM     19  C   UNL     1      -4.340  -0.256  24.356  0.00  0.00    +0.026 A 
ATOM     24  C   UNL     1      -4.879   0.460  23.354  0.00  0.00    +0.022 A 
ATOM     25  C   UNL     1      -5.442   1.168  26.021  0.00  0.00    +0.251 A 
ATOM     26  C   UNL     1      -5.727   1.586  23.628  0.00  0.00    +0.007 A 
ATOM     28  C   UNL     1      -6.001   1.950  24.883  0.00  0.00    +0.070 A 
ENDBRANCH  16   6
ENDBRANCH  18  16
ENDBRANCH  14  18
BRANCH  17  23
ATOM     23  C   UNL     1      -2.395   2.983  26.051  0.00  0.00    +0.124 C 
BRANCH  23  29
ATOM      4  O   UNL     1      -4.283   4.456  26.508  0.00  0.00    -0.251 OA
ATOM     29  C   UNL     1      -3.144   4.286  26.101  0.00  0.00    +0.305 C 
BRANCH  29   3
ATOM      3  O   UNL     1      -2.359   5.284  25.620  0.00  0.00    -0.481 OA
ATOM     37  H   UNL     1      -1.446   5.235  25.976  0.00  0.00    +0.295 HD
ENDBRANCH  29   3
ENDBRANCH  23  29
ENDBRANCH  17  23
TORSDOF 8
ENDMDL
MODEL 3
REMARK VINA RESULT:      10.1      2.240      5.998
REMARK  Name = 25312695
REMARK  9 active torsions:
REMARK  status: ('A' for Active; 'I' for Inactive)
REMARK    1  A    between atoms: O_3  and  C_29
REMARK    2  A    between atoms: O_5  and  C_35
REMARK    3  A    between atoms: O_5  and  C_36
REMARK    4  A    between atoms: N_6  and  C_16
REMARK    5  A    between atoms: C_14  and  C_18
REMARK    6  A    between atoms: C_16  and  C_18
REMARK    7  A    between atoms: C_17  and  C_23
REMARK    8  A    between atoms: C_23  and  C_29
REMARK    9  A    between atoms: C_27  and  C_30
REMARK                            x       y       z     vdW  Elec       q    Type
REMARK                         _______ _______ _______ _____ _____    ______ ____
ROOT
ATOM      2  O   UNL     1      -3.904  -2.131  25.283  0.00  0.00    -0.270 OA
ATOM      8  N   UNL     1      -1.982  -0.806  25.111  0.00  0.00    -0.297 N 
ATOM     14  C   UNL     1      -0.475   0.629  23.753  0.00  0.00    +0.011 C 
ATOM     17  C   UNL     1       0.520  -0.557  23.674  0.00  0.00    +0.006 C 
ATOM     20  C   UNL     1      -1.333   0.510  25.025  0.00  0.00    +0.112 C 
ATOM     21  C   UNL     1      -0.200  -1.909  23.816  0.00  0.00    +0.023 C 
ATOM     22  C   UNL     1      -1.067  -1.946  25.072  0.00  0.00    +0.108 C 
ATOM     27  C   UNL     1      -3.356  -1.031  25.217  0.00  0.00    +0.247 C 
ENDROOT
BRANCH  27  30
ATOM     30  C   UNL     1      -4.245   0.137  25.253  0.00  0.00    +0.037 A 
ATOM     31  C   UNL     1      -3.930   1.227  26.065  0.00  0.00    +0.016 A 
ATOM     32  C   UNL     1      -5.404   0.157  24.477  0.00  0.00    +0.016 A 
ATOM     33  C   UNL     1      -4.774   2.336  26.102  0.00  0.00    +0.046 A 
ATOM     34  C   UNL     1      -6.248   1.266  24.514  0.00  0.00    +0.046 A 
ATOM     35  C   UNL     1      -5.933   2.356  25.326  0.00  0.00    +0.120 A 
BRANCH  35   5
ATOM      5  O   UNL     1      -6.757   3.439  25.361  0.00  0.00    -0.495 OA
ATOM     36  C   UNL     1      -6.147   4.713  25.564  0.00  0.00    +0.277 C 
ENDBRANCH  35   5
ENDBRANCH  27  30
BRANCH  14  18
ATOM     18  C   UNL     1      -1.372   0.771  22.517  0.00  0.00    +0.020 C 
BRANCH  18  16
ATOM     16  C   UNL     1      -2.446   1.835  22.729  0.00  0.00    +0.085 C 
BRANCH  16   6
ATOM      1  O   UNL     1      -2.513   3.424  28.675  0.00  0.00    -0.268 OA
ATOM      6  N   UNL     1      -2.002   2.815  23.718  0.00  0.00    -0.301 NA
ATOM      7  N   UNL     1      -1.365   3.830  26.674  0.00  0.00    -0.312 N 
ATOM      9  C   UNL     1      -2.391   5.091  24.694  0.00  0.00    +0.024 C 
ATOM     10  C   UNL     1      -0.106   4.224  24.530  0.00  0.00    +0.050 C 
ATOM     11  C   UNL     1      -0.952   5.488  24.392  0.00  0.00    +0.017 C 
ATOM     12  C   UNL     1      -2.859   4.006  23.701  0.00  0.00    +0.089 C 
ATOM     13  C   UNL     1      -0.589   3.166  23.512  0.00  0.00    +0.094 C 
ATOM     15  C   UNL     1      -2.482   4.631  26.156  0.00  0.00    +0.130 C 
ATOM     19  C   UNL     1      -0.182   3.677  25.943  0.00  0.00    +0.026 A 
ATOM     24  C   UNL     1       0.867   3.034  26.483  0.00  0.00    +0.022 A 
ATOM     25  C   UNL     1      -1.507   3.311  27.974  0.00  0.00    +0.251 A 
ATOM     26  C   UNL     1       0.787   2.476  27.804  0.00  0.00    +0.007 A 
ATOM     28  C   UNL     1      -0.330   2.584  28.528  0.00  0.00    +0.070 A 
ENDBRANCH  16   6
ENDBRANCH  18  16
ENDBRANCH  14  18
BRANCH  17  23
ATOM     23  C   UNL     1       1.382  -0.536  22.413  0.00  0.00    +0.124 C 
BRANCH  23  29
ATOM      4  O   UNL     1       3.297   0.972  22.370  0.00  0.00    -0.251 OA
ATOM     29  C   UNL     1       2.786  -0.085  22.708  0.00  0.00    +0.305 C 
BRANCH  29   3
ATOM      3  O   UNL     1       3.433  -1.040  23.423  0.00  0.00    -0.481 OA
ATOM     37  H   UNL     1       3.740  -1.779  22.854  0.00  0.00    +0.295 HD
ENDBRANCH  29   3
ENDBRANCH  23  29
ENDBRANCH  17  23
TORSDOF 8
ENDMDL
MODEL 4
REMARK VINA RESULT:      10.3      1.763      5.241
REMARK  Name = 25312695
REMARK  9 active torsions:
REMARK  status: ('A' for Active; 'I' for Inactive)
REMARK    1  A    between atoms: O_3  and  C_29
REMARK    2  A    between atoms: O_5  and  C_35
REMARK    3  A    between atoms: O_5  and  C_36
REMARK    4  A    between atoms: N_6  and  C_16
REMARK    5  A    between atoms: C_14  and  C_18
REMARK    6  A    between atoms: C_16  and  C_18
REMARK    7  A    between atoms: C_17  and  C_23
REMARK    8  A    between atoms: C_23  and  C_29
REMARK    9  A    between atoms: C_27  and  C_30
REMARK                            x       y       z     vdW  Elec       q    Type
REMARK                         _______ _______ _______ _____ _____    ______ ____
ROOT
ATOM      2  O   UNL     1       0.157   4.851  24.496  0.00  0.00    -0.270 OA
ATOM      8  N   UNL     1      -1.538   3.527  25.420  0.00  0.00    -0.297 N 
ATOM     14  C   UNL     1      -3.635   2.223  25.150  0.00  0.00    +0.011 C 
ATOM     17  C   UNL     1      -4.404   3.398  25.808  0.00  0.00    +0.006 C 
ATOM     20  C   UNL     1      -2.173   2.218  25.631  0.00  0.00    +0.112 C 
ATOM     21  C   UNL     1      -3.676   4.737  25.601  0.00  0.00    +0.023 C 
ATOM     22  C   UNL     1      -2.221   4.652  26.056  0.00  0.00    +0.108 C 
ATOM     27  C   UNL     1      -0.376   3.757  24.679  0.00  0.00    +0.247 C 
ENDROOT
BRANCH  27  30
ATOM     30  C   UNL     1       0.284   2.604  24.055  0.00  0.00    +0.037 A 
ATOM     31  C   UNL     1      -0.480   1.538  23.578  0.00  0.00    +0.016 A 
ATOM     32  C   UNL     1       1.673   2.573  23.940  0.00  0.00    +0.016 A 
ATOM     33  C   UNL     1       0.146   0.442  22.986  0.00  0.00    +0.046 A 
ATOM     34  C   UNL     1       2.300   1.476  23.348  0.00  0.00    +0.046 A 
ATOM     35  C   UNL     1       1.536   0.411  22.871  0.00  0.00    +0.120 A 
BRANCH  35   5
ATOM      5  O   UNL     1       2.147  -0.659  22.293  0.00  0.00    -0.495 OA
ATOM     36  C   UNL     1       3.459  -0.983  22.751  0.00  0.00    +0.277 C 
ENDBRANCH  35   5
ENDBRANCH  27  30
BRANCH  14  18
ATOM     18  C   UNL     1      -3.692   2.224  23.618  0.00  0.00    +0.020 C 
BRANCH  18  16
ATOM     16  C   UNL     1      -4.370   0.963  23.086  0.00  0.00    +0.085 C 
BRANCH  16   6
ATOM      1  O   UNL     1       0.733  -2.082  24.686  0.00  0.00    -0.268 OA
ATOM      6  N   UNL     1      -3.836  -0.221  23.755  0.00  0.00    -0.301 NA
ATOM      7  N   UNL     1      -1.552  -1.932  25.180  0.00  0.00    -0.312 N 
ATOM      9  C   UNL     1      -3.393  -2.681  23.564  0.00  0.00    +0.024 C 
ATOM     10  C   UNL     1      -3.998  -1.730  25.739  0.00  0.00    +0.050 C 
ATOM     11  C   UNL     1      -4.194  -2.943  24.832  0.00  0.00    +0.017 C 
ATOM     12  C   UNL     1      -3.898  -1.395  22.876  0.00  0.00    +0.089 C 
ATOM     13  C   UNL     1      -4.528  -0.464  25.028  0.00  0.00    +0.094 C 
ATOM     15  C   UNL     1      -1.903  -2.610  23.925  0.00  0.00    +0.130 C 
ATOM     19  C   UNL     1      -2.535  -1.562  26.103  0.00  0.00    +0.026 A 
ATOM     24  C   UNL     1      -2.183  -1.044  27.293  0.00  0.00    +0.022 A 
ATOM     25  C   UNL     1      -0.180  -1.764  25.448  0.00  0.00    +0.251 A 
ATOM     26  C   UNL     1      -0.802  -0.842  27.627  0.00  0.00    +0.007 A 
ATOM     28  C   UNL     1       0.168  -1.165  26.767  0.00  0.00    +0.070 A 
ENDBRANCH  16   6
ENDBRANCH  18  16
ENDBRANCH  14  18
BRANCH  17  23
ATOM     23  C   UNL     1      -5.857   3.498  25.347  0.00  0.00    +0.124 C 
BRANCH  23  29
ATOM      4  O   UNL     1      -7.149   1.514  24.766  0.00  0.00    -0.251 OA
ATOM     29  C   UNL     1      -6.611   2.222  25.604  0.00  0.00    +0.305 C 
BRANCH  29   3
ATOM      3  O   UNL     1      -6.613   1.951  26.934  0.00  0.00    -0.481 OA
ATOM     37  H   UNL     1      -5.704   1.924  27.303  0.00  0.00    +0.295 HD
ENDBRANCH  29   3
ENDBRANCH  23  29
ENDBRANCH  17  23
TORSDOF 8
ENDMDL
MODEL 5
REMARK VINA RESULT:      11.1      1.771      6.579
REMARK  Name = 25312695
REMARK  9 active torsions:
REMARK  status: ('A' for Active; 'I' for Inactive)
REMARK    1  A    between atoms: O_3  and  C_29
REMARK    2  A    between atoms: O_5  and  C_35
REMARK    3  A    between atoms: O_5  and  C_36
REMARK    4  A    between atoms: N_6  and  C_16
REMARK    5  A    between atoms: C_14  and  C_18
REMARK    6  A    between atoms: C_16  and  C_18
REMARK    7  A    between atoms: C_17  and  C_23
REMARK    8  A    between atoms: C_23  and  C_29
REMARK    9  A    between atoms: C_27  and  C_30
REMARK                            x       y       z     vdW  Elec       q    Type
REMARK                         _______ _______ _______ _____ _____    ______ ____
ROOT
ATOM      2  O   UNL     1      -1.460  -3.345  24.402  0.00  0.00    -0.270 OA
ATOM      8  N   UNL     1      -0.104  -1.478  24.796  0.00  0.00    -0.297 N 
ATOM     14  C   UNL     1       0.937   0.630  23.992  0.00  0.00    +0.011 C 
ATOM     17  C   UNL     1       2.283  -0.129  23.864  0.00  0.00    +0.006 C 
ATOM     20  C   UNL     1       0.056  -0.041  25.061  0.00  0.00    +0.112 C 
ATOM     21  C   UNL     1       2.063  -1.635  23.635  0.00  0.00    +0.023 C 
ATOM     22  C   UNL     1       1.147  -2.229  24.701  0.00  0.00    +0.108 C 
ATOM     27  C   UNL     1      -1.321  -2.144  24.629  0.00  0.00    +0.247 C 
ENDROOT
BRANCH  27  30
ATOM     30  C   UNL     1      -2.557  -1.358  24.731  0.00  0.00    +0.037 A 
ATOM     31  C   UNL     1      -2.985  -0.892  25.974  0.00  0.00    +0.016 A 
ATOM     32  C   UNL     1      -3.302  -1.078  23.586  0.00  0.00    +0.016 A 
ATOM     33  C   UNL     1      -4.159  -0.146  26.073  0.00  0.00    +0.046 A 
ATOM     34  C   UNL     1      -4.477  -0.333  23.685  0.00  0.00    +0.046 A 
ATOM     35  C   UNL     1      -4.905   0.133  24.928  0.00  0.00    +0.120 A 
BRANCH  35   5
ATOM      5  O   UNL     1      -6.051   0.861  25.023  0.00  0.00    -0.495 OA
ATOM     36  C   UNL     1      -6.452   1.274  26.329  0.00  0.00    +0.277 C 
ENDBRANCH  35   5
ENDBRANCH  27  30
BRANCH  14  18
ATOM     18  C   UNL     1       0.168   0.759  22.672  0.00  0.00    +0.020 C 
BRANCH  18  16
ATOM     16  C   UNL     1      -1.323   0.981  22.917  0.00  0.00    +0.085 C 
BRANCH  16   6
ATOM      1  O   UNL     1      -4.349   6.330  23.247  0.00  0.00    -0.268 OA
ATOM      6  N   UNL     1      -1.534   2.197  23.698  0.00  0.00    -0.301 NA
ATOM      7  N   UNL     1      -3.135   4.818  24.561  0.00  0.00    -0.312 N 
ATOM      9  C   UNL     1      -0.613   4.447  24.311  0.00  0.00    +0.024 C 
ATOM     10  C   UNL     1      -1.870   3.164  25.977  0.00  0.00    +0.050 C 
ATOM     11  C   UNL     1      -0.669   4.088  25.790  0.00  0.00    +0.017 C 
ATOM     12  C   UNL     1      -0.457   3.167  23.462  0.00  0.00    +0.089 C 
ATOM     13  C   UNL     1      -1.676   1.888  25.128  0.00  0.00    +0.094 C 
ATOM     15  C   UNL     1      -1.871   5.246  23.947  0.00  0.00    +0.130 C 
ATOM     19  C   UNL     1      -3.156   3.870  25.589  0.00  0.00    +0.026 A 
ATOM     24  C   UNL     1      -4.311   3.575  26.211  0.00  0.00    +0.022 A 
ATOM     25  C   UNL     1      -4.303   5.476  24.133  0.00  0.00    +0.251 A 
ATOM     26  C   UNL     1      -5.539   4.208  25.821  0.00  0.00    +0.007 A 
ATOM     28  C   UNL     1      -5.565   5.105  24.831  0.00  0.00    +0.070 A 
ENDBRANCH  16   6
ENDBRANCH  18  16
ENDBRANCH  14  18
BRANCH  17  23
ATOM     23  C   UNL     1       3.200   0.450  22.789  0.00  0.00    +0.124 C 
BRANCH  23  29
ATOM      4  O   UNL     1       5.564  -0.040  22.448  0.00  0.00    -0.251 OA
ATOM     29  C   UNL     1       4.649   0.328  23.170  0.00  0.00    +0.305 C 
BRANCH  29   3
ATOM      3  O   UNL     1       4.814   0.694  24.467  0.00  0.00    -0.481 OA
ATOM     37  H   UNL     1       5.730   0.996  24.648  0.00  0.00    +0.295 HD
ENDBRANCH  29   3
ENDBRANCH  23  29
ENDBRANCH  17  23
TORSDOF 8
ENDMDL
MODEL 6
REMARK VINA RESULT:      11.6      0.918      1.403
REMARK  Name = 25312695
REMARK  9 active torsions:
REMARK  status: ('A' for Active; 'I' for Inactive)
REMARK    1  A    between atoms: O_3  and  C_29
REMARK    2  A    between atoms: O_5  and  C_35
REMARK    3  A    between atoms: O_5  and  C_36
REMARK    4  A    between atoms: N_6  and  C_16
REMARK    5  A    between atoms: C_14  and  C_18
REMARK    6  A    between atoms: C_16  and  C_18
REMARK    7  A    between atoms: C_17  and  C_23
REMARK    8  A    between atoms: C_23  and  C_29
REMARK    9  A    between atoms: C_27  and  C_30
REMARK                            x       y       z     vdW  Elec       q    Type
REMARK                         _______ _______ _______ _____ _____    ______ ____
ROOT
ATOM      2  O   UNL     1      -5.782   1.045  26.341  0.00  0.00    -0.270 OA
ATOM      8  N   UNL     1      -4.277   2.098  24.889  0.00  0.00    -0.297 N 
ATOM     14  C   UNL     1      -1.972   2.863  24.368  0.00  0.00    +0.011 C 
ATOM     17  C   UNL     1      -2.415   4.308  24.712  0.00  0.00    +0.006 C 
ATOM     20  C   UNL     1      -3.186   2.037  23.907  0.00  0.00    +0.112 C 
ATOM     21  C   UNL     1      -3.590   4.318  25.705  0.00  0.00    +0.023 C 
ATOM     22  C   UNL     1      -4.741   3.446  25.210  0.00  0.00    +0.108 C 
ATOM     27  C   UNL     1      -4.871   0.999  25.514  0.00  0.00    +0.247 C 
ENDROOT
BRANCH  27  30
ATOM     30  C   UNL     1      -4.381  -0.341  25.167  0.00  0.00    +0.037 A 
ATOM     31  C   UNL     1      -3.602  -1.055  26.078  0.00  0.00    +0.016 A 
ATOM     32  C   UNL     1      -4.693  -0.899  23.928  0.00  0.00    +0.016 A 
ATOM     33  C   UNL     1      -3.135  -2.327  25.750  0.00  0.00    +0.046 A 
ATOM     34  C   UNL     1      -4.224  -2.171  23.599  0.00  0.00    +0.046 A 
ATOM     35  C   UNL     1      -3.446  -2.885  24.510  0.00  0.00    +0.120 A 
BRANCH  35   5
ATOM      5  O   UNL     1      -2.990  -4.126  24.189  0.00  0.00    -0.495 OA
ATOM     36  C   UNL     1      -1.908  -4.201  23.261  0.00  0.00    +0.277 C 
ENDBRANCH  35   5
ENDBRANCH  27  30
BRANCH  14  18
ATOM     18  C   UNL     1      -1.245   2.147  25.514  0.00  0.00    +0.020 C 
BRANCH  18  16
ATOM     16  C   UNL     1      -1.204   0.637  25.288  0.00  0.00    +0.085 C 
BRANCH  16   6
ATOM      1  O   UNL     1       4.166   2.105  22.663  0.00  0.00    -0.268 OA
ATOM      6  N   UNL     1      -0.253   0.308  24.229  0.00  0.00    -0.301 NA
ATOM      7  N   UNL     1       2.604   0.365  22.811  0.00  0.00    -0.312 N 
ATOM      9  C   UNL     1       0.262   0.486  21.783  0.00  0.00    +0.024 C 
ATOM     10  C   UNL     1       0.945  -1.517  23.015  0.00  0.00    +0.050 C 
ATOM     11  C   UNL     1       0.390  -1.028  21.680  0.00  0.00    +0.017 C 
ATOM     12  C   UNL     1      -0.689   0.858  22.940  0.00  0.00    +0.089 C 
ATOM     13  C   UNL     1      -0.036  -1.144  24.149  0.00  0.00    +0.094 C 
ATOM     15  C   UNL     1       1.662   1.092  21.951  0.00  0.00    +0.130 C 
ATOM     19  C   UNL     1       2.315  -0.920  23.279  0.00  0.00    +0.026 A 
ATOM     24  C   UNL     1       3.237  -1.610  23.972  0.00  0.00    +0.022 A 
ATOM     25  C   UNL     1       3.844   0.985  23.059  0.00  0.00    +0.251 A 
ATOM     26  C   UNL     1       4.521  -1.035  24.263  0.00  0.00    +0.007 A 
ATOM     28  C   UNL     1       4.830   0.198  23.851  0.00  0.00    +0.070 A 
ENDBRANCH  16   6
ENDBRANCH  18  16
ENDBRANCH  14  18
BRANCH  17  23
ATOM     23  C   UNL     1      -1.272   5.183  25.221  0.00  0.00    +0.124 C 
BRANCH  23  29
ATOM      4  O   UNL     1       0.418   5.074  23.467  0.00  0.00    -0.251 OA
ATOM     29  C   UNL     1       0.042   4.800  24.597  0.00  0.00    +0.305 C 
BRANCH  29   3
ATOM      3  O   UNL     1       0.780   4.085  25.484  0.00  0.00    -0.481 OA
ATOM     37  H   UNL     1       0.683   3.118  25.346  0.00  0.00    +0.295 HD
ENDBRANCH  29   3
ENDBRANCH  23  29
ENDBRANCH  17  23
TORSDOF 8
ENDMDL
MODEL 7
REMARK VINA RESULT:      12.1      2.112      6.631
REMARK  Name = 25312695
REMARK  9 active torsions:
REMARK  status: ('A' for Active; 'I' for Inactive)
REMARK    1  A    between atoms: O_3  and  C_29
REMARK    2  A    between atoms: O_5  and  C_35
REMARK    3  A    between atoms: O_5  and  C_36
REMARK    4  A    between atoms: N_6  and  C_16
REMARK    5  A    between atoms: C_14  and  C_18
REMARK    6  A    between atoms: C_16  and  C_18
REMARK    7  A    between atoms: C_17  and  C_23
REMARK    8  A    between atoms: C_23  and  C_29
REMARK    9  A    between atoms: C_27  and  C_30
REMARK                            x       y       z     vdW  Elec       q    Type
REMARK                         _______ _______ _______ _____ _____    ______ ____
ROOT
ATOM      2  O   UNL     1      -1.549   0.489  20.956  0.00  0.00    -0.270 OA
ATOM      8  N   UNL     1       0.152  -0.461  22.254  0.00  0.00    -0.297 N 
ATOM     14  C   UNL     1       1.887  -0.239  24.019  0.00  0.00    +0.011 C 
ATOM     17  C   UNL     1       2.963  -0.213  22.903  0.00  0.00    +0.006 C 
ATOM     20  C   UNL     1       0.643  -1.001  23.530  0.00  0.00    +0.112 C 
ATOM     21  C   UNL     1       2.389   0.315  21.577  0.00  0.00    +0.023 C 
ATOM     22  C   UNL     1       1.134  -0.453  21.172  0.00  0.00    +0.108 C 
ATOM     27  C   UNL     1      -1.135   0.031  22.021  0.00  0.00    +0.247 C 
ENDROOT
BRANCH  27  30
ATOM     30  C   UNL     1      -2.095   0.007  23.131  0.00  0.00    +0.037 A 
ATOM     31  C   UNL     1      -3.170   0.896  23.141  0.00  0.00    +0.016 A 
ATOM     32  C   UNL     1      -1.933  -0.904  24.174  0.00  0.00    +0.016 A 
ATOM     33  C   UNL     1      -4.082   0.875  24.195  0.00  0.00    +0.046 A 
ATOM     34  C   UNL     1      -2.845  -0.925  25.229  0.00  0.00    +0.046 A 
ATOM     35  C   UNL     1      -3.919  -0.036  25.240  0.00  0.00    +0.120 A 
BRANCH  35   5
ATOM      5  O   UNL     1      -4.810  -0.057  26.269  0.00  0.00    -0.495 OA
ATOM     36  C   UNL     1      -5.891   0.873  26.212  0.00  0.00    +0.277 C 
ENDBRANCH  35   5
ENDBRANCH  27  30
BRANCH  14  18
ATOM     18  C   UNL     1       1.492   1.151  24.534  0.00  0.00    +0.020 C 
BRANCH  18  16
ATOM     16  C   UNL     1       0.152   1.112  25.265  0.00  0.00    +0.085 C 
BRANCH  16   6
ATOM      1  O   UNL     1      -4.689   3.826  22.605  0.00  0.00    -0.268 OA
ATOM      6  N   UNL     1      -0.567   2.369  25.074  0.00  0.00    -0.301 NA
ATOM      7  N   UNL     1      -3.106   4.140  24.303  0.00  0.00    -0.312 N 
ATOM      9  C   UNL     1      -0.620   4.556  23.850  0.00  0.00    +0.024 C 
ATOM     10  C   UNL     1      -1.432   4.447  26.158  0.00  0.00    +0.050 C 
ATOM     11  C   UNL     1      -0.658   5.316  25.170  0.00  0.00    +0.017 C 
ATOM     12  C   UNL     1       0.078   3.194  24.045  0.00  0.00    +0.089 C 
ATOM     13  C   UNL     1      -0.700   3.098  26.343  0.00  0.00    +0.094 C 
ATOM     15  C   UNL     1      -2.053   4.414  23.318  0.00  0.00    +0.130 C 
ATOM     19  C   UNL     1      -2.852   4.218  25.677  0.00  0.00    +0.026 A 
ATOM     24  C   UNL     1      -3.857   4.072  26.558  0.00  0.00    +0.022 A 
ATOM     25  C   UNL     1      -4.397   3.892  23.800  0.00  0.00    +0.251 A 
ATOM     26  C   UNL     1      -5.196   3.813  26.111  0.00  0.00    +0.007 A 
ATOM     28  C   UNL     1      -5.478   3.712  24.809  0.00  0.00    +0.070 A 
ENDBRANCH  16   6
ENDBRANCH  18  16
ENDBRANCH  14  18
BRANCH  17  23
ATOM     23  C   UNL     1       4.217   0.566  23.295  0.00  0.00    +0.124 C 
BRANCH  23  29
ATOM      4  O   UNL     1       6.535  -0.184  23.199  0.00  0.00    -0.251 OA
ATOM     29  C   UNL     1       5.380  -0.351  23.560  0.00  0.00    +0.305 C 
BRANCH  29   3
ATOM      3  O   UNL     1       4.962  -1.424  24.278  0.00  0.00    -0.481 OA
ATOM     37  H   UNL     1       4.527  -1.157  25.116  0.00  0.00    +0.295 HD
ENDBRANCH  29   3
ENDBRANCH  23  29
ENDBRANCH  17  23
TORSDOF 8
ENDMDL
MODEL 8
REMARK VINA RESULT:      13.0      1.465      5.297
REMARK  Name = 25312695
REMARK  9 active torsions:
REMARK  status: ('A' for Active; 'I' for Inactive)
REMARK    1  A    between atoms: O_3  and  C_29
REMARK    2  A    between atoms: O_5  and  C_35
REMARK    3  A    between atoms: O_5  and  C_36
REMARK    4  A    between atoms: N_6  and  C_16
REMARK    5  A    between atoms: C_14  and  C_18
REMARK    6  A    between atoms: C_16  and  C_18
REMARK    7  A    between atoms: C_17  and  C_23
REMARK    8  A    between atoms: C_23  and  C_29
REMARK    9  A    between atoms: C_27  and  C_30
REMARK                            x       y       z     vdW  Elec       q    Type
REMARK                         _______ _______ _______ _____ _____    ______ ____
ROOT
ATOM      2  O   UNL     1      -5.030   2.370  23.269  0.00  0.00    -0.270 OA
ATOM      8  N   UNL     1      -4.277   1.007  25.017  0.00  0.00    -0.297 N 
ATOM     14  C   UNL     1      -2.617  -0.603  25.925  0.00  0.00    +0.011 C 
ATOM     17  C   UNL     1      -3.646  -1.738  25.687  0.00  0.00    +0.006 C 
ATOM     20  C   UNL     1      -3.350   0.735  26.125  0.00  0.00    +0.112 C 
ATOM     21  C   UNL     1      -4.623  -1.387  24.551  0.00  0.00    +0.023 C 
ATOM     22  C   UNL     1      -5.281  -0.030  24.788  0.00  0.00    +0.108 C 
ATOM     27  C   UNL     1      -4.259   2.141  24.201  0.00  0.00    +0.247 C 
ENDROOT
BRANCH  27  30
ATOM     30  C   UNL     1      -3.237   3.162  24.461  0.00  0.00    +0.037 A 
ATOM     31  C   UNL     1      -1.990   3.072  23.843  0.00  0.00    +0.016 A 
ATOM     32  C   UNL     1      -3.513   4.221  25.325  0.00  0.00    +0.016 A 
ATOM     33  C   UNL     1      -1.018   4.041  24.089  0.00  0.00    +0.046 A 
ATOM     34  C   UNL     1      -2.541   5.190  25.573  0.00  0.00    +0.046 A 
ATOM     35  C   UNL     1      -1.294   5.100  24.954  0.00  0.00    +0.120 A 
BRANCH  35   5
ATOM      5  O   UNL     1      -0.346   6.046  25.195  0.00  0.00    -0.495 OA
ATOM     36  C   UNL     1       0.684   6.198  24.219  0.00  0.00    +0.277 C 
ENDBRANCH  35   5
ENDBRANCH  27  30
BRANCH  14  18
ATOM     18  C   UNL     1      -1.566  -0.474  24.816  0.00  0.00    +0.020 C 
BRANCH  18  16
ATOM     16  C   UNL     1      -0.304   0.219  25.325  0.00  0.00    +0.085 C 
BRANCH  16   6
ATOM      1  O   UNL     1       5.520   1.693  23.988  0.00  0.00    -0.268 OA
ATOM      6  N   UNL     1       0.752   0.156  24.317  0.00  0.00    -0.301 NA
ATOM      7  N   UNL     1       3.776   0.284  23.310  0.00  0.00    -0.312 N 
ATOM      9  C   UNL     1       1.637   1.133  22.185  0.00  0.00    +0.024 C 
ATOM     10  C   UNL     1       1.913  -1.262  22.619  0.00  0.00    +0.050 C 
ATOM     11  C   UNL     1       1.616  -0.239  21.525  0.00  0.00    +0.017 C 
ATOM     12  C   UNL     1       0.572   1.199  23.300  0.00  0.00    +0.089 C 
ATOM     13  C   UNL     1       0.821  -1.181  23.710  0.00  0.00    +0.094 C 
ATOM     15  C   UNL     1       3.054   1.411  22.706  0.00  0.00    +0.130 C 
ATOM     19  C   UNL     1       3.285  -1.023  23.221  0.00  0.00    +0.026 A 
ATOM     24  C   UNL     1       4.015  -2.052  23.684  0.00  0.00    +0.022 A 
ATOM     25  C   UNL     1       5.025   0.569  23.893  0.00  0.00    +0.251 A 
ATOM     26  C   UNL     1       5.296  -1.829  24.293  0.00  0.00    +0.007 A 
ATOM     28  C   UNL     1       5.793  -0.595  24.415  0.00  0.00    +0.070 A 
ENDBRANCH  16   6
ENDBRANCH  18  16
ENDBRANCH  14  18
BRANCH  17  23
ATOM     23  C   UNL     1      -2.995  -3.097  25.435  0.00  0.00    +0.124 C 
BRANCH  23  29
ATOM      4  O   UNL     1      -1.763  -3.380  23.350  0.00  0.00    -0.251 OA
ATOM     29  C   UNL     1      -2.818  -3.364  23.965  0.00  0.00    +0.305 C 
BRANCH  29   3
ATOM      3  O   UNL     1      -4.028  -3.595  23.393  0.00  0.00    -0.481 OA
ATOM     37  H   UNL     1      -4.639  -2.836  23.510  0.00  0.00    +0.295 HD
ENDBRANCH  29   3
ENDBRANCH  23  29
ENDBRANCH  17  23
TORSDOF 8
ENDMDL
