MODEL 1
REMARK VINA RESULT:      -3.4      0.000      0.000
REMARK  Name = 45361025
REMARK  9 active torsions:
REMARK  status: ('A' for Active; 'I' for Inactive)
REMARK    1  A    between atoms: N_4  and  C_13
REMARK    2  A    between atoms: N_5  and  C_17
REMARK    3  A    between atoms: N_7  and  C_22
REMARK    4  A    between atoms: C_12  and  C_16
REMARK    5  A    between atoms: C_13  and  C_18
REMARK    6  A    between atoms: C_13  and  C_19
REMARK    7  A    between atoms: C_16  and  C_20
REMARK    8  A    between atoms: C_20  and  C_21
REMARK    9  A    between atoms: C_22  and  C_23
REMARK                            x       y       z     vdW  Elec       q    Type
REMARK                         _______ _______ _______ _____ _____    ______ ____
ROOT
ATOM      2  O   UNL     1      -2.302   3.048  23.042  0.00  0.00    -0.274 OA
ATOM      4  N   UNL     1      -4.420   2.544  24.639  0.00  0.00    -0.288 NA
ATOM      5  N   UNL     1      -2.355  -0.477  24.640  0.00  0.00    -0.296 NA
ATOM      6  N   UNL     1      -0.792   1.931  24.349  0.00  0.00    -0.312 N 
ATOM      8  C   UNL     1      -3.350   0.447  25.229  0.00  0.00    +0.084 C 
ATOM      9  C   UNL     1      -3.126   1.979  25.066  0.00  0.00    +0.161 C 
ATOM     10  C   UNL     1      -4.774   0.269  24.669  0.00  0.00    +0.036 C 
ATOM     11  C   UNL     1      -5.451   1.581  25.007  0.00  0.00    +0.087 C 
ATOM     12  C   UNL     1      -0.992  -0.374  25.234  0.00  0.00    +0.074 C 
ATOM     14  C   UNL     1      -2.066   2.371  24.042  0.00  0.00    +0.232 C 
ATOM     15  C   UNL     1      -0.496   1.065  25.473  0.00  0.00    +0.123 C 
ATOM     17  C   UNL     1      -2.833  -1.869  24.699  0.00  0.00    +0.105 C 
ATOM     27  H   UNL     1      -0.030   2.210  23.740  0.00  0.00    +0.149 HD
ENDROOT
BRANCH   4  13
ATOM     13  C   UNL     1      -4.683   3.866  25.190  0.00  0.00    +0.051 C 
ATOM     18  C   UNL     1      -3.628   4.223  26.235  0.00  0.00    +0.024 C 
ATOM     19  C   UNL     1      -6.084   3.897  25.794  0.00  0.00    +0.024 C 
ENDBRANCH   4  13
BRANCH  12  16
ATOM     16  C   UNL     1       0.044  -1.078  24.332  0.00  0.00    +0.029 C 
BRANCH  16  20
ATOM     20  C   UNL     1      -0.146  -0.676  22.882  0.00  0.00    +0.097 C 
BRANCH  20  21
ATOM      3  O   UNL     1       1.509  -0.558  21.119  0.00  0.00    -0.276 OA
ATOM      7  N   UNL     1       1.891   0.582  23.104  0.00  0.00    -0.311 N 
ATOM     21  C   UNL     1       1.160  -0.230  22.249  0.00  0.00    +0.213 C 
ATOM     28  H   UNL     1       1.515   0.815  24.019  0.00  0.00    +0.149 HD
BRANCH   7  22
ATOM     22  C   UNL     1       3.172   1.134  22.735  0.00  0.00    +0.146 C 
BRANCH  22  23
ATOM      1  S   UNL     1       4.055  -1.316  23.703  0.00  0.00    -0.100 S 
ATOM     23  C   UNL     1       4.312   0.323  23.278  0.00  0.00    +0.007 A 
ATOM     24  C   UNL     1       5.614   0.716  23.503  0.00  0.00    +0.013 A 
ATOM     25  C   UNL     1       6.409  -0.342  24.030  0.00  0.00    +0.008 A 
ATOM     26  C   UNL     1       5.686  -1.503  24.188  0.00  0.00    +0.045 A 
ENDBRANCH  22  23
ENDBRANCH   7  22
ENDBRANCH  20  21
ENDBRANCH  16  20
ENDBRANCH  12  16
TORSDOF 6
ENDMDL
MODEL 2
REMARK VINA RESULT:      -2.3      1.283      1.510
REMARK  Name = 45361025
REMARK  9 active torsions:
REMARK  status: ('A' for Active; 'I' for Inactive)
REMARK    1  A    between atoms: N_4  and  C_13
REMARK    2  A    between atoms: N_5  and  C_17
REMARK    3  A    between atoms: N_7  and  C_22
REMARK    4  A    between atoms: C_12  and  C_16
REMARK    5  A    between atoms: C_13  and  C_18
REMARK    6  A    between atoms: C_13  and  C_19
REMARK    7  A    between atoms: C_16  and  C_20
REMARK    8  A    between atoms: C_20  and  C_21
REMARK    9  A    between atoms: C_22  and  C_23
REMARK                            x       y       z     vdW  Elec       q    Type
REMARK                         _______ _______ _______ _____ _____    ______ ____
ROOT
ATOM      2  O   UNL     1      -0.503   3.074  23.985  0.00  0.00    -0.274 OA
ATOM      4  N   UNL     1      -3.093   3.467  24.638  0.00  0.00    -0.288 NA
ATOM      5  N   UNL     1      -2.506  -0.142  24.779  0.00  0.00    -0.296 NA
ATOM      6  N   UNL     1      -0.167   1.388  25.495  0.00  0.00    -0.312 N 
ATOM      8  C   UNL     1      -3.220   1.099  25.154  0.00  0.00    +0.084 C 
ATOM      9  C   UNL     1      -2.387   2.397  25.367  0.00  0.00    +0.161 C 
ATOM     10  C   UNL     1      -4.265   1.554  24.118  0.00  0.00    +0.036 C 
ATOM     11  C   UNL     1      -4.468   3.020  24.444  0.00  0.00    +0.087 C 
ATOM     12  C   UNL     1      -1.553  -0.641  25.811  0.00  0.00    +0.074 C 
ATOM     14  C   UNL     1      -0.950   2.333  24.860  0.00  0.00    +0.232 C 
ATOM     15  C   UNL     1      -0.684   0.447  26.470  0.00  0.00    +0.123 C 
ATOM     17  C   UNL     1      -3.459  -1.203  24.409  0.00  0.00    +0.105 C 
ATOM     27  H   UNL     1       0.816   1.336  25.247  0.00  0.00    +0.149 HD
ENDROOT
BRANCH   4  13
ATOM     13  C   UNL     1      -3.026   4.761  25.303  0.00  0.00    +0.051 C 
ATOM     18  C   UNL     1      -1.641   5.376  25.125  0.00  0.00    +0.024 C 
ATOM     19  C   UNL     1      -3.365   4.590  26.781  0.00  0.00    +0.024 C 
ENDBRANCH   4  13
BRANCH  12  16
ATOM     16  C   UNL     1      -0.601  -1.691  25.202  0.00  0.00    +0.029 C 
BRANCH  16  20
ATOM     20  C   UNL     1      -0.733  -1.725  23.691  0.00  0.00    +0.097 C 
BRANCH  20  21
ATOM      3  O   UNL     1      -0.560   0.401  22.545  0.00  0.00    -0.276 OA
ATOM      7  N   UNL     1       1.381  -0.757  23.076  0.00  0.00    -0.311 N 
ATOM     21  C   UNL     1       0.006  -0.570  23.039  0.00  0.00    +0.213 C 
ATOM     28  H   UNL     1       1.762  -1.587  23.522  0.00  0.00    +0.149 HD
BRANCH   7  22
ATOM     22  C   UNL     1       2.304   0.201  22.518  0.00  0.00    +0.146 C 
BRANCH  22  23
ATOM      1  S   UNL     1       4.136  -1.433  23.820  0.00  0.00    -0.100 S 
ATOM     23  C   UNL     1       3.685   0.047  23.086  0.00  0.00    +0.007 A 
ATOM     24  C   UNL     1       4.709   0.969  23.111  0.00  0.00    +0.013 A 
ATOM     25  C   UNL     1       5.879   0.452  23.741  0.00  0.00    +0.008 A 
ATOM     26  C   UNL     1       5.704  -0.844  24.173  0.00  0.00    +0.045 A 
ENDBRANCH  22  23
ENDBRANCH   7  22
ENDBRANCH  20  21
ENDBRANCH  16  20
ENDBRANCH  12  16
TORSDOF 6
ENDMDL
MODEL 3
REMARK VINA RESULT:      -1.8      2.871      6.715
REMARK  Name = 45361025
REMARK  9 active torsions:
REMARK  status: ('A' for Active; 'I' for Inactive)
REMARK    1  A    between atoms: N_4  and  C_13
REMARK    2  A    between atoms: N_5  and  C_17
REMARK    3  A    between atoms: N_7  and  C_22
REMARK    4  A    between atoms: C_12  and  C_16
REMARK    5  A    between atoms: C_13  and  C_18
REMARK    6  A    between atoms: C_13  and  C_19
REMARK    7  A    between atoms: C_16  and  C_20
REMARK    8  A    between atoms: C_20  and  C_21
REMARK    9  A    between atoms: C_22  and  C_23
REMARK                            x       y       z     vdW  Elec       q    Type
REMARK                         _______ _______ _______ _____ _____    ______ ____
ROOT
ATOM      2  O   UNL     1      -0.639   0.749  26.085  0.00  0.00    -0.274 OA
ATOM      4  N   UNL     1      -0.362   0.491  23.412  0.00  0.00    -0.288 NA
ATOM      5  N   UNL     1      -2.674   3.272  23.968  0.00  0.00    -0.296 NA
ATOM      6  N   UNL     1      -0.703   3.037  26.061  0.00  0.00    -0.312 N 
ATOM      8  C   UNL     1      -1.673   2.520  23.179  0.00  0.00    +0.084 C 
ATOM      9  C   UNL     1      -0.476   1.867  23.930  0.00  0.00    +0.161 C 
ATOM     10  C   UNL     1      -2.259   1.323  22.407  0.00  0.00    +0.036 C 
ATOM     11  C   UNL     1      -1.047   0.459  22.125  0.00  0.00    +0.087 C 
ATOM     12  C   UNL     1      -2.137   4.482  24.651  0.00  0.00    +0.074 C 
ATOM     14  C   UNL     1      -0.623   1.801  25.447  0.00  0.00    +0.232 C 
ATOM     15  C   UNL     1      -0.768   4.288  25.334  0.00  0.00    +0.123 C 
ATOM     17  C   UNL     1      -3.836   3.629  23.137  0.00  0.00    +0.105 C 
ATOM     27  H   UNL     1      -0.740   3.064  27.076  0.00  0.00    +0.149 HD
ENDROOT
BRANCH   4  13
ATOM     13  C   UNL     1       1.014   0.023  23.311  0.00  0.00    +0.051 C 
ATOM     18  C   UNL     1       1.984   1.178  23.548  0.00  0.00    +0.024 C 
ATOM     19  C   UNL     1       1.238  -0.608  21.941  0.00  0.00    +0.024 C 
ENDBRANCH   4  13
BRANCH  12  16
ATOM     16  C   UNL     1      -3.126   4.978  25.727  0.00  0.00    +0.029 C 
BRANCH  16  20
ATOM     20  C   UNL     1      -3.533   3.842  26.646  0.00  0.00    +0.097 C 
BRANCH  20  21
ATOM      3  O   UNL     1      -5.800   3.414  25.911  0.00  0.00    -0.276 OA
ATOM      7  N   UNL     1      -4.201   1.749  25.670  0.00  0.00    -0.311 N 
ATOM     21  C   UNL     1      -4.649   3.007  26.043  0.00  0.00    +0.213 C 
ATOM     28  H   UNL     1      -3.223   1.504  25.802  0.00  0.00    +0.149 HD
BRANCH   7  22
ATOM     22  C   UNL     1      -5.073   0.766  25.072  0.00  0.00    +0.146 C 
BRANCH  22  23
ATOM      1  S   UNL     1      -3.285  -1.129  26.038  0.00  0.00    -0.100 S 
ATOM     23  C   UNL     1      -4.376  -0.546  24.854  0.00  0.00    +0.007 A 
ATOM     24  C   UNL     1      -4.484  -1.406  23.782  0.00  0.00    +0.013 A 
ATOM     25  C   UNL     1      -3.660  -2.558  23.937  0.00  0.00    +0.008 A 
ATOM     26  C   UNL     1      -2.955  -2.535  25.119  0.00  0.00    +0.045 A 
ENDBRANCH  22  23
ENDBRANCH   7  22
ENDBRANCH  20  21
ENDBRANCH  16  20
ENDBRANCH  12  16
TORSDOF 6
ENDMDL
MODEL 4
REMARK VINA RESULT:      -1.5      2.436      4.400
REMARK  Name = 45361025
REMARK  9 active torsions:
REMARK  status: ('A' for Active; 'I' for Inactive)
REMARK    1  A    between atoms: N_4  and  C_13
REMARK    2  A    between atoms: N_5  and  C_17
REMARK    3  A    between atoms: N_7  and  C_22
REMARK    4  A    between atoms: C_12  and  C_16
REMARK    5  A    between atoms: C_13  and  C_18
REMARK    6  A    between atoms: C_13  and  C_19
REMARK    7  A    between atoms: C_16  and  C_20
REMARK    8  A    between atoms: C_20  and  C_21
REMARK    9  A    between atoms: C_22  and  C_23
REMARK                            x       y       z     vdW  Elec       q    Type
REMARK                         _______ _______ _______ _____ _____    ______ ____
ROOT
ATOM      2  O   UNL     1      -2.300   5.290  25.372  0.00  0.00    -0.274 OA
ATOM      4  N   UNL     1      -4.326   3.581  24.856  0.00  0.00    -0.288 NA
ATOM      5  N   UNL     1      -1.306   2.105  23.410  0.00  0.00    -0.296 NA
ATOM      6  N   UNL     1      -0.754   3.654  25.781  0.00  0.00    -0.312 N 
ATOM      8  C   UNL     1      -2.669   2.038  23.981  0.00  0.00    +0.084 C 
ATOM      9  C   UNL     1      -3.020   2.974  25.175  0.00  0.00    +0.161 C 
ATOM     10  C   UNL     1      -3.785   2.371  22.973  0.00  0.00    +0.036 C 
ATOM     11  C   UNL     1      -4.962   2.730  23.857  0.00  0.00    +0.087 C 
ATOM     12  C   UNL     1      -0.223   1.702  24.351  0.00  0.00    +0.074 C 
ATOM     14  C   UNL     1      -2.016   4.095  25.433  0.00  0.00    +0.232 C 
ATOM     15  C   UNL     1      -0.367   2.257  25.782  0.00  0.00    +0.123 C 
ATOM     17  C   UNL     1      -1.219   1.320  22.167  0.00  0.00    +0.105 C 
ATOM     27  H   UNL     1      -0.056   4.349  26.025  0.00  0.00    +0.149 HD
ENDROOT
BRANCH   4  13
ATOM     13  C   UNL     1      -5.171   3.779  26.025  0.00  0.00    +0.051 C 
ATOM     18  C   UNL     1      -5.926   2.495  26.357  0.00  0.00    +0.024 C 
ATOM     19  C   UNL     1      -6.138   4.931  25.765  0.00  0.00    +0.024 C 
ENDBRANCH   4  13
BRANCH  12  16
ATOM     16  C   UNL     1       1.153   2.152  23.815  0.00  0.00    +0.029 C 
BRANCH  16  20
ATOM     20  C   UNL     1       2.033   0.952  23.522  0.00  0.00    +0.097 C 
BRANCH  20  21
ATOM      3  O   UNL     1       1.218  -0.715  21.966  0.00  0.00    -0.276 OA
ATOM      7  N   UNL     1       0.469  -0.759  24.163  0.00  0.00    -0.311 N 
ATOM     21  C   UNL     1       1.212  -0.256  23.105  0.00  0.00    +0.213 C 
ATOM     28  H   UNL     1       0.539  -0.323  25.078  0.00  0.00    +0.149 HD
BRANCH   7  22
ATOM     22  C   UNL     1      -0.396  -1.906  24.020  0.00  0.00    +0.146 C 
BRANCH  22  23
ATOM      1  S   UNL     1      -2.022  -0.969  26.069  0.00  0.00    -0.100 S 
ATOM     23  C   UNL     1      -1.789  -1.624  24.505  0.00  0.00    +0.007 A 
ATOM     24  C   UNL     1      -2.982  -1.823  23.844  0.00  0.00    +0.013 A 
ATOM     25  C   UNL     1      -4.101  -1.432  24.635  0.00  0.00    +0.008 A 
ATOM     26  C   UNL     1      -3.721  -0.950  25.867  0.00  0.00    +0.045 A 
ENDBRANCH  22  23
ENDBRANCH   7  22
ENDBRANCH  20  21
ENDBRANCH  16  20
ENDBRANCH  12  16
TORSDOF 6
ENDMDL
MODEL 5
REMARK VINA RESULT:      -1.3      3.601      6.911
REMARK  Name = 45361025
REMARK  9 active torsions:
REMARK  status: ('A' for Active; 'I' for Inactive)
REMARK    1  A    between atoms: N_4  and  C_13
REMARK    2  A    between atoms: N_5  and  C_17
REMARK    3  A    between atoms: N_7  and  C_22
REMARK    4  A    between atoms: C_12  and  C_16
REMARK    5  A    between atoms: C_13  and  C_18
REMARK    6  A    between atoms: C_13  and  C_19
REMARK    7  A    between atoms: C_16  and  C_20
REMARK    8  A    between atoms: C_20  and  C_21
REMARK    9  A    between atoms: C_22  and  C_23
REMARK                            x       y       z     vdW  Elec       q    Type
REMARK                         _______ _______ _______ _____ _____    ______ ____
ROOT
ATOM      2  O   UNL     1      -1.419  -0.275  26.709  0.00  0.00    -0.274 OA
ATOM      4  N   UNL     1      -3.070  -1.281  24.824  0.00  0.00    -0.288 NA
ATOM      5  N   UNL     1      -1.908   1.960  23.586  0.00  0.00    -0.296 NA
ATOM      6  N   UNL     1       0.064   0.628  25.218  0.00  0.00    -0.312 N 
ATOM      8  C   UNL     1      -2.438   0.589  23.413  0.00  0.00    +0.084 C 
ATOM      9  C   UNL     1      -1.892  -0.538  24.337  0.00  0.00    +0.161 C 
ATOM     10  C   UNL     1      -3.958   0.476  23.632  0.00  0.00    +0.036 C 
ATOM     11  C   UNL     1      -4.166  -0.999  23.905  0.00  0.00    +0.087 C 
ATOM     12  C   UNL     1      -0.453   2.100  23.294  0.00  0.00    +0.074 C 
ATOM     14  C   UNL     1      -1.093  -0.055  25.544  0.00  0.00    +0.232 C 
ATOM     15  C   UNL     1       0.433   0.973  23.860  0.00  0.00    +0.123 C 
ATOM     17  C   UNL     1      -2.683   2.926  22.789  0.00  0.00    +0.105 C 
ATOM     27  H   UNL     1       0.673   0.924  25.975  0.00  0.00    +0.149 HD
ENDROOT
BRANCH   4  13
ATOM     13  C   UNL     1      -2.831  -2.711  24.970  0.00  0.00    +0.051 C 
ATOM     18  C   UNL     1      -1.465  -3.080  24.397  0.00  0.00    +0.024 C 
ATOM     19  C   UNL     1      -3.945  -3.486  24.274  0.00  0.00    +0.024 C 
ENDBRANCH   4  13
BRANCH  12  16
ATOM     16  C   UNL     1       0.083   3.436  23.850  0.00  0.00    +0.029 C 
BRANCH  16  20
ATOM     20  C   UNL     1      -0.226   3.563  25.330  0.00  0.00    +0.097 C 
BRANCH  20  21
ATOM      3  O   UNL     1      -1.647   5.521  25.225  0.00  0.00    -0.276 OA
ATOM      7  N   UNL     1      -2.461   3.587  26.217  0.00  0.00    -0.311 N 
ATOM     21  C   UNL     1      -1.501   4.352  25.569  0.00  0.00    +0.213 C 
ATOM     28  H   UNL     1      -2.258   2.619  26.451  0.00  0.00    +0.149 HD
BRANCH   7  22
ATOM     22  C   UNL     1      -3.761   4.111  26.560  0.00  0.00    +0.146 C 
BRANCH  22  23
ATOM      1  S   UNL     1      -5.440   3.365  24.476  0.00  0.00    -0.100 S 
ATOM     23  C   UNL     1      -4.870   3.218  26.083  0.00  0.00    +0.007 A 
ATOM     24  C   UNL     1      -5.542   2.238  26.783  0.00  0.00    +0.013 A 
ATOM     25  C   UNL     1      -6.537   1.601  25.987  0.00  0.00    +0.008 A 
ATOM     26  C   UNL     1      -6.588   2.117  24.711  0.00  0.00    +0.045 A 
ENDBRANCH  22  23
ENDBRANCH   7  22
ENDBRANCH  20  21
ENDBRANCH  16  20
ENDBRANCH  12  16
TORSDOF 6
ENDMDL
MODEL 6
REMARK VINA RESULT:      -0.7      3.101      4.954
REMARK  Name = 45361025
REMARK  9 active torsions:
REMARK  status: ('A' for Active; 'I' for Inactive)
REMARK    1  A    between atoms: N_4  and  C_13
REMARK    2  A    between atoms: N_5  and  C_17
REMARK    3  A    between atoms: N_7  and  C_22
REMARK    4  A    between atoms: C_12  and  C_16
REMARK    5  A    between atoms: C_13  and  C_18
REMARK    6  A    between atoms: C_13  and  C_19
REMARK    7  A    between atoms: C_16  and  C_20
REMARK    8  A    between atoms: C_20  and  C_21
REMARK    9  A    between atoms: C_22  and  C_23
REMARK                            x       y       z     vdW  Elec       q    Type
REMARK                         _______ _______ _______ _____ _____    ______ ____
ROOT
ATOM      2  O   UNL     1      -3.654   0.418  25.663  0.00  0.00    -0.274 OA
ATOM      4  N   UNL     1      -4.904   2.777  26.065  0.00  0.00    -0.288 NA
ATOM      5  N   UNL     1      -1.625   3.552  24.637  0.00  0.00    -0.296 NA
ATOM      6  N   UNL     1      -2.680   1.040  23.687  0.00  0.00    -0.312 N 
ATOM      8  C   UNL     1      -3.048   3.843  24.921  0.00  0.00    +0.084 C 
ATOM      9  C   UNL     1      -4.073   2.673  24.851  0.00  0.00    +0.161 C 
ATOM     10  C   UNL     1      -3.300   4.406  26.332  0.00  0.00    +0.036 C 
ATOM     11  C   UNL     1      -4.774   4.143  26.559  0.00  0.00    +0.087 C 
ATOM     12  C   UNL     1      -1.358   3.087  23.246  0.00  0.00    +0.074 C 
ATOM     14  C   UNL     1      -3.458   1.278  24.805  0.00  0.00    +0.232 C 
ATOM     15  C   UNL     1      -2.365   2.055  22.702  0.00  0.00    +0.123 C 
ATOM     17  C   UNL     1      -0.778   4.712  24.958  0.00  0.00    +0.105 C 
ATOM     27  H   UNL     1      -2.292   0.110  23.565  0.00  0.00    +0.149 HD
ENDROOT
BRANCH   4  13
ATOM     13  C   UNL     1      -6.295   2.404  25.847  0.00  0.00    +0.051 C 
ATOM     18  C   UNL     1      -6.776   1.480  26.962  0.00  0.00    +0.024 C 
ATOM     19  C   UNL     1      -6.433   1.735  24.483  0.00  0.00    +0.024 C 
ENDBRANCH   4  13
BRANCH  12  16
ATOM     16  C   UNL     1       0.049   2.459  23.148  0.00  0.00    +0.029 C 
BRANCH  16  20
ATOM     20  C   UNL     1       0.393   1.714  24.423  0.00  0.00    +0.097 C 
BRANCH  20  21
ATOM      3  O   UNL     1       0.627  -0.356  23.189  0.00  0.00    -0.276 OA
ATOM      7  N   UNL     1      -0.162  -0.426  25.371  0.00  0.00    -0.311 N 
ATOM     21  C   UNL     1       0.310   0.209  24.231  0.00  0.00    +0.213 C 
ATOM     28  H   UNL     1      -0.385   0.124  26.196  0.00  0.00    +0.149 HD
BRANCH   7  22
ATOM     22  C   UNL     1      -0.333  -1.857  25.441  0.00  0.00    +0.146 C 
BRANCH  22  23
ATOM      1  S   UNL     1      -3.024  -2.249  26.007  0.00  0.00    -0.100 S 
ATOM     23  C   UNL     1      -1.683  -2.287  24.944  0.00  0.00    +0.007 A 
ATOM     24  C   UNL     1      -2.031  -2.736  23.688  0.00  0.00    +0.013 A 
ATOM     25  C   UNL     1      -3.417  -3.053  23.599  0.00  0.00    +0.008 A 
ATOM     26  C   UNL     1      -4.075  -2.834  24.788  0.00  0.00    +0.045 A 
ENDBRANCH  22  23
ENDBRANCH   7  22
ENDBRANCH  20  21
ENDBRANCH  16  20
ENDBRANCH  12  16
TORSDOF 6
ENDMDL
MODEL 7
REMARK VINA RESULT:      -0.4      1.405      2.405
REMARK  Name = 45361025
REMARK  9 active torsions:
REMARK  status: ('A' for Active; 'I' for Inactive)
REMARK    1  A    between atoms: N_4  and  C_13
REMARK    2  A    between atoms: N_5  and  C_17
REMARK    3  A    between atoms: N_7  and  C_22
REMARK    4  A    between atoms: C_12  and  C_16
REMARK    5  A    between atoms: C_13  and  C_18
REMARK    6  A    between atoms: C_13  and  C_19
REMARK    7  A    between atoms: C_16  and  C_20
REMARK    8  A    between atoms: C_20  and  C_21
REMARK    9  A    between atoms: C_22  and  C_23
REMARK                            x       y       z     vdW  Elec       q    Type
REMARK                         _______ _______ _______ _____ _____    ______ ____
ROOT
ATOM      2  O   UNL     1      -4.631   0.252  26.123  0.00  0.00    -0.274 OA
ATOM      4  N   UNL     1      -4.662   2.952  26.098  0.00  0.00    -0.288 NA
ATOM      5  N   UNL     1      -1.304   1.927  25.069  0.00  0.00    -0.296 NA
ATOM      6  N   UNL     1      -3.334   0.048  24.248  0.00  0.00    -0.312 N 
ATOM      8  C   UNL     1      -2.443   2.870  25.119  0.00  0.00    +0.084 C 
ATOM      9  C   UNL     1      -3.887   2.295  25.030  0.00  0.00    +0.161 C 
ATOM     10  C   UNL     1      -2.509   3.700  26.415  0.00  0.00    +0.036 C 
ATOM     11  C   UNL     1      -3.947   4.170  26.460  0.00  0.00    +0.087 C 
ATOM     12  C   UNL     1      -1.180   1.179  23.785  0.00  0.00    +0.074 C 
ATOM     14  C   UNL     1      -3.993   0.784  25.215  0.00  0.00    +0.232 C 
ATOM     15  C   UNL     1      -2.508   0.642  23.217  0.00  0.00    +0.123 C 
ATOM     17  C   UNL     1      -0.040   2.614  25.383  0.00  0.00    +0.105 C 
ATOM     27  H   UNL     1      -3.417  -0.964  24.279  0.00  0.00    +0.149 HD
ENDROOT
BRANCH   4  13
ATOM     13  C   UNL     1      -6.046   3.218  25.727  0.00  0.00    +0.051 C 
ATOM     18  C   UNL     1      -6.482   2.281  24.604  0.00  0.00    +0.024 C 
ATOM     19  C   UNL     1      -6.189   4.678  25.310  0.00  0.00    +0.024 C 
ENDBRANCH   4  13
BRANCH  12  16
ATOM     16  C   UNL     1      -0.226  -0.023  23.951  0.00  0.00    +0.029 C 
BRANCH  16  20
ATOM     20  C   UNL     1       0.057  -0.672  22.610  0.00  0.00    +0.097 C 
BRANCH  20  21
ATOM      3  O   UNL     1       1.777  -0.518  20.913  0.00  0.00    -0.276 OA
ATOM      7  N   UNL     1       2.098   0.553  22.947  0.00  0.00    -0.311 N 
ATOM     21  C   UNL     1       1.390  -0.222  22.040  0.00  0.00    +0.213 C 
ATOM     28  H   UNL     1       1.690   0.762  23.855  0.00  0.00    +0.149 HD
BRANCH   7  22
ATOM     22  C   UNL     1       3.398   1.102  22.643  0.00  0.00    +0.146 C 
BRANCH  22  23
ATOM      1  S   UNL     1       4.251  -1.337  23.665  0.00  0.00    -0.100 S 
ATOM     23  C   UNL     1       4.504   0.312  23.280  0.00  0.00    +0.007 A 
ATOM     24  C   UNL     1       5.770   0.735  23.625  0.00  0.00    +0.013 A 
ATOM     25  C   UNL     1       6.541  -0.309  24.213  0.00  0.00    +0.008 A 
ATOM     26  C   UNL     1       5.836  -1.489  24.294  0.00  0.00    +0.045 A 
ENDBRANCH  22  23
ENDBRANCH   7  22
ENDBRANCH  20  21
ENDBRANCH  16  20
ENDBRANCH  12  16
TORSDOF 6
ENDMDL
MODEL 8
REMARK VINA RESULT:      -0.3      3.506      6.128
REMARK  Name = 45361025
REMARK  9 active torsions:
REMARK  status: ('A' for Active; 'I' for Inactive)
REMARK    1  A    between atoms: N_4  and  C_13
REMARK    2  A    between atoms: N_5  and  C_17
REMARK    3  A    between atoms: N_7  and  C_22
REMARK    4  A    between atoms: C_12  and  C_16
REMARK    5  A    between atoms: C_13  and  C_18
REMARK    6  A    between atoms: C_13  and  C_19
REMARK    7  A    between atoms: C_16  and  C_20
REMARK    8  A    between atoms: C_20  and  C_21
REMARK    9  A    between atoms: C_22  and  C_23
REMARK                            x       y       z     vdW  Elec       q    Type
REMARK                         _______ _______ _______ _____ _____    ______ ____
ROOT
ATOM      2  O   UNL     1      -2.549   2.101  22.593  0.00  0.00    -0.274 OA
ATOM      4  N   UNL     1      -1.454   3.475  24.643  0.00  0.00    -0.288 NA
ATOM      5  N   UNL     1      -1.132  -0.076  25.464  0.00  0.00    -0.296 NA
ATOM      6  N   UNL     1      -0.996   0.420  22.625  0.00  0.00    -0.312 N 
ATOM      8  C   UNL     1      -0.731   1.346  25.555  0.00  0.00    +0.084 C 
ATOM      9  C   UNL     1      -0.785   2.216  24.266  0.00  0.00    +0.161 C 
ATOM     10  C   UNL     1      -1.585   2.172  26.536  0.00  0.00    +0.036 C 
ATOM     11  C   UNL     1      -1.347   3.600  26.092  0.00  0.00    +0.087 C 
ATOM     12  C   UNL     1      -0.261  -0.906  24.584  0.00  0.00    +0.074 C 
ATOM     14  C   UNL     1      -1.548   1.595  23.099  0.00  0.00    +0.232 C 
ATOM     15  C   UNL     1       0.131  -0.243  23.249  0.00  0.00    +0.123 C 
ATOM     17  C   UNL     1      -1.228  -0.681  26.803  0.00  0.00    +0.105 C 
ATOM     27  H   UNL     1      -1.421  -0.012  21.810  0.00  0.00    +0.149 HD
ENDROOT
BRANCH   4  13
ATOM     13  C   UNL     1      -0.920   4.641  23.951  0.00  0.00    +0.051 C 
ATOM     18  C   UNL     1       0.548   4.421  23.597  0.00  0.00    +0.024 C 
ATOM     19  C   UNL     1      -1.093   5.876  24.830  0.00  0.00    +0.024 C 
ENDBRANCH   4  13
BRANCH  12  16
ATOM     16  C   UNL     1      -0.951  -2.246  24.251  0.00  0.00    +0.029 C 
BRANCH  16  20
ATOM     20  C   UNL     1      -2.189  -2.438  25.106  0.00  0.00    +0.097 C 
BRANCH  20  21
ATOM      3  O   UNL     1      -4.020  -2.640  23.534  0.00  0.00    -0.276 OA
ATOM      7  N   UNL     1      -3.840  -0.714  24.817  0.00  0.00    -0.311 N 
ATOM     21  C   UNL     1      -3.443  -1.972  24.387  0.00  0.00    +0.213 C 
ATOM     28  H   UNL     1      -3.309  -0.240  25.543  0.00  0.00    +0.149 HD
BRANCH   7  22
ATOM     22  C   UNL     1      -5.005  -0.050  24.284  0.00  0.00    +0.146 C 
BRANCH  22  23
ATOM      1  S   UNL     1      -6.093   1.638  26.204  0.00  0.00    -0.100 S 
ATOM     23  C   UNL     1      -5.144   1.350  24.809  0.00  0.00    +0.007 A 
ATOM     24  C   UNL     1      -4.592   2.511  24.311  0.00  0.00    +0.013 A 
ATOM     25  C   UNL     1      -4.954   3.650  25.086  0.00  0.00    +0.008 A 
ATOM     26  C   UNL     1      -5.768   3.317  26.146  0.00  0.00    +0.045 A 
ENDBRANCH  22  23
ENDBRANCH   7  22
ENDBRANCH  20  21
ENDBRANCH  16  20
ENDBRANCH  12  16
TORSDOF 6
ENDMDL
