MODEL 1
REMARK VINA RESULT:       3.4      0.000      0.000
REMARK  Name = 38026473
REMARK  6 active torsions:
REMARK  status: ('A' for Active; 'I' for Inactive)
REMARK    1  A    between atoms: N_3  and  C_14
REMARK    2  A    between atoms: N_4  and  C_9
REMARK    3  A    between atoms: N_6  and  C_18
REMARK    4  A    between atoms: C_10  and  C_13
REMARK    5  A    between atoms: C_16  and  C_17
REMARK    6  A    between atoms: C_24  and  C_28
REMARK                            x       y       z     vdW  Elec       q    Type
REMARK                         _______ _______ _______ _____ _____    ______ ____
ROOT
ATOM      3  N   UNL     1      -4.188  -1.505  23.950  0.00  0.00    -0.293 NA
ATOM      9  C   UNL     1      -2.400  -2.739  24.797  0.00  0.00    +0.090 C 
ATOM     10  C   UNL     1      -3.960  -0.924  25.287  0.00  0.00    +0.147 C 
ATOM     11  C   UNL     1      -2.686  -1.622  25.801  0.00  0.00    +0.052 C 
ATOM     12  C   UNL     1      -3.703  -2.888  24.025  0.00  0.00    +0.107 C 
ATOM     14  C   UNL     1      -5.580  -1.440  23.525  0.00  0.00    +0.105 C 
ENDROOT
BRANCH   9   4
ATOM      2  O   UNL     1       0.045  -1.443  25.534  0.00  0.00    -0.253 OA
ATOM      4  N   UNL     1      -1.306  -2.398  23.919  0.00  0.00    -0.295 N 
ATOM      6  N   UNL     1       0.738  -1.560  23.294  0.00  0.00    -0.269 N 
ATOM     15  C   UNL     1      -0.141  -1.762  24.362  0.00  0.00    +0.304 C 
ATOM     29  H   UNL     1      -1.417  -2.562  22.923  0.00  0.00    +0.151 HD
ATOM     30  H   UNL     1       0.429  -1.885  22.381  0.00  0.00    +0.156 HD
BRANCH   6  18
ATOM     18  C   UNL     1       2.015  -0.952  23.323  0.00  0.00    +0.035 A 
ATOM     19  C   UNL     1       2.174   0.358  22.874  0.00  0.00    +0.023 A 
ATOM     20  C   UNL     1       3.115  -1.665  23.801  0.00  0.00    +0.023 A 
ATOM     22  C   UNL     1       3.434   0.956  22.901  0.00  0.00    +0.005 A 
ATOM     23  C   UNL     1       4.374  -1.066  23.829  0.00  0.00    +0.005 A 
ATOM     24  C   UNL     1       4.534   0.245  23.380  0.00  0.00    -0.050 A 
ATOM     28  C   UNL     1       5.881   0.885  23.411  0.00  0.00    +0.044 C 
ENDBRANCH   6  18
ENDBRANCH   9   4
BRANCH  10  13
ATOM      1  O   UNL     1      -4.974   1.291  25.481  0.00  0.00    -0.336 OA
ATOM      5  N   UNL     1      -2.768   1.326  25.092  0.00  0.00    -0.189 NA
ATOM      7  N   UNL     1      -4.609   2.642  25.426  0.00  0.00    -0.054 NA
ATOM     13  C   UNL     1      -3.832   0.584  25.275  0.00  0.00    +0.245 A 
ATOM     16  C   UNL     1      -3.295   2.580  25.194  0.00  0.00    +0.220 A 
BRANCH  16  17
ATOM      8  N   UNL     1      -1.196   3.534  24.692  0.00  0.00    -0.252 NA
ATOM     17  C   UNL     1      -2.480   3.752  25.059  0.00  0.00    +0.111 A 
ATOM     21  C   UNL     1      -3.014   5.007  25.300  0.00  0.00    +0.031 A 
ATOM     25  C   UNL     1      -2.179   6.110  25.155  0.00  0.00    +0.004 A 
ATOM     26  C   UNL     1      -0.415   4.630  24.562  0.00  0.00    +0.111 A 
ATOM     27  C   UNL     1      -0.853   5.926  24.779  0.00  0.00    +0.020 A 
ENDBRANCH  16  17
ENDBRANCH  10  13
TORSDOF 4
ENDMDL
MODEL 2
REMARK VINA RESULT:       5.2      2.041      6.175
REMARK  Name = 38026473
REMARK  6 active torsions:
REMARK  status: ('A' for Active; 'I' for Inactive)
REMARK    1  A    between atoms: N_3  and  C_14
REMARK    2  A    between atoms: N_4  and  C_9
REMARK    3  A    between atoms: N_6  and  C_18
REMARK    4  A    between atoms: C_10  and  C_13
REMARK    5  A    between atoms: C_16  and  C_17
REMARK    6  A    between atoms: C_24  and  C_28
REMARK                            x       y       z     vdW  Elec       q    Type
REMARK                         _______ _______ _______ _____ _____    ______ ____
ROOT
ATOM      3  N   UNL     1      -4.109   4.471  24.312  0.00  0.00    -0.293 NA
ATOM      9  C   UNL     1      -5.188   3.512  26.142  0.00  0.00    +0.090 C 
ATOM     10  C   UNL     1      -3.098   4.525  25.386  0.00  0.00    +0.147 C 
ATOM     11  C   UNL     1      -3.738   3.759  26.559  0.00  0.00    +0.052 C 
ATOM     12  C   UNL     1      -5.411   4.476  24.986  0.00  0.00    +0.107 C 
ATOM     14  C   UNL     1      -3.988   5.563  23.354  0.00  0.00    +0.105 C 
ENDROOT
BRANCH   9   4
ATOM      2  O   UNL     1      -3.176   1.632  25.355  0.00  0.00    -0.253 OA
ATOM      4  N   UNL     1      -5.398   2.143  25.734  0.00  0.00    -0.295 N 
ATOM      6  N   UNL     1      -4.859   0.030  25.018  0.00  0.00    -0.269 N 
ATOM     15  C   UNL     1      -4.356   1.288  25.363  0.00  0.00    +0.304 C 
ATOM     29  H   UNL     1      -6.354   1.808  25.643  0.00  0.00    +0.151 HD
ATOM     30  H   UNL     1      -5.867  -0.090  25.078  0.00  0.00    +0.156 HD
BRANCH   6  18
ATOM     18  C   UNL     1      -4.136  -1.107  24.589  0.00  0.00    +0.035 A 
ATOM     19  C   UNL     1      -4.735  -2.035  23.738  0.00  0.00    +0.023 A 
ATOM     20  C   UNL     1      -2.822  -1.300  25.017  0.00  0.00    +0.023 A 
ATOM     22  C   UNL     1      -4.022  -3.157  23.316  0.00  0.00    +0.005 A 
ATOM     23  C   UNL     1      -2.109  -2.422  24.595  0.00  0.00    +0.005 A 
ATOM     24  C   UNL     1      -2.709  -3.350  23.744  0.00  0.00    -0.050 A 
ATOM     28  C   UNL     1      -1.945  -4.549  23.291  0.00  0.00    +0.044 C 
ENDBRANCH   6  18
ENDBRANCH   9   4
BRANCH  10  13
ATOM      1  O   UNL     1      -0.675   4.755  25.167  0.00  0.00    -0.336 OA
ATOM      5  N   UNL     1      -1.473   2.783  24.466  0.00  0.00    -0.189 NA
ATOM      7  N   UNL     1       0.433   4.021  24.725  0.00  0.00    -0.054 NA
ATOM     13  C   UNL     1      -1.756   3.954  24.980  0.00  0.00    +0.245 A 
ATOM     16  C   UNL     1      -0.119   2.871  24.327  0.00  0.00    +0.220 A 
BRANCH  16  17
ATOM      8  N   UNL     1       1.970   2.044  23.609  0.00  0.00    -0.252 NA
ATOM     17  C   UNL     1       0.654   1.790  23.788  0.00  0.00    +0.111 A 
ATOM     21  C   UNL     1       0.050   0.582  23.483  0.00  0.00    +0.031 A 
ATOM     25  C   UNL     1       0.846  -0.433  22.963  0.00  0.00    +0.004 A 
ATOM     26  C   UNL     1       2.712   1.035  23.100  0.00  0.00    +0.111 A 
ATOM     27  C   UNL     1       2.205  -0.209  22.764  0.00  0.00    +0.020 A 
ENDBRANCH  16  17
ENDBRANCH  10  13
TORSDOF 4
ENDMDL
MODEL 3
REMARK VINA RESULT:       6.2      1.749      5.434
REMARK  Name = 38026473
REMARK  6 active torsions:
REMARK  status: ('A' for Active; 'I' for Inactive)
REMARK    1  A    between atoms: N_3  and  C_14
REMARK    2  A    between atoms: N_4  and  C_9
REMARK    3  A    between atoms: N_6  and  C_18
REMARK    4  A    between atoms: C_10  and  C_13
REMARK    5  A    between atoms: C_16  and  C_17
REMARK    6  A    between atoms: C_24  and  C_28
REMARK                            x       y       z     vdW  Elec       q    Type
REMARK                         _______ _______ _______ _____ _____    ______ ____
ROOT
ATOM      3  N   UNL     1      -3.208   4.169  26.364  0.00  0.00    -0.293 NA
ATOM      9  C   UNL     1      -2.075   5.302  24.671  0.00  0.00    +0.090 C 
ATOM     10  C   UNL     1      -3.971   3.837  25.146  0.00  0.00    +0.147 C 
ATOM     11  C   UNL     1      -3.151   4.451  23.995  0.00  0.00    +0.052 C 
ATOM     12  C   UNL     1      -2.571   5.464  26.100  0.00  0.00    +0.107 C 
ATOM     14  C   UNL     1      -4.030   4.202  27.567  0.00  0.00    +0.105 C 
ENDROOT
BRANCH   9   4
ATOM      2  O   UNL     1      -1.470   2.755  23.510  0.00  0.00    -0.253 OA
ATOM      4  N   UNL     1      -0.785   4.655  24.633  0.00  0.00    -0.295 N 
ATOM      6  N   UNL     1       0.769   3.033  24.159  0.00  0.00    -0.269 N 
ATOM     15  C   UNL     1      -0.574   3.404  24.043  0.00  0.00    +0.304 C 
ATOM     29  H   UNL     1      -0.009   5.096  25.120  0.00  0.00    +0.151 HD
ATOM     30  H   UNL     1       1.384   3.690  24.633  0.00  0.00    +0.156 HD
BRANCH   6  18
ATOM     18  C   UNL     1       1.385   1.848  23.695  0.00  0.00    +0.035 A 
ATOM     19  C   UNL     1       0.669   0.651  23.675  0.00  0.00    +0.023 A 
ATOM     20  C   UNL     1       2.710   1.875  23.257  0.00  0.00    +0.023 A 
ATOM     22  C   UNL     1       1.277  -0.518  23.219  0.00  0.00    +0.005 A 
ATOM     23  C   UNL     1       3.317   0.706  22.800  0.00  0.00    +0.005 A 
ATOM     24  C   UNL     1       2.601  -0.491  22.780  0.00  0.00    -0.050 A 
ATOM     28  C   UNL     1       3.251  -1.741  22.291  0.00  0.00    +0.044 C 
ENDBRANCH   6  18
ENDBRANCH   9   4
BRANCH  10  13
ATOM      1  O   UNL     1      -5.499   1.937  24.977  0.00  0.00    -0.336 OA
ATOM      5  N   UNL     1      -3.334   1.389  24.798  0.00  0.00    -0.189 NA
ATOM      7  N   UNL     1      -5.462   0.549  24.797  0.00  0.00    -0.054 NA
ATOM     13  C   UNL     1      -4.205   2.353  24.966  0.00  0.00    +0.245 A 
ATOM     16  C   UNL     1      -4.152   0.302  24.699  0.00  0.00    +0.220 A 
BRANCH  16  17
ATOM      8  N   UNL     1      -2.331  -1.191  24.841  0.00  0.00    -0.252 NA
ATOM     17  C   UNL     1      -3.629  -1.019  24.501  0.00  0.00    +0.111 A 
ATOM     21  C   UNL     1      -4.437  -2.022  23.992  0.00  0.00    +0.031 A 
ATOM     25  C   UNL     1      -3.879  -3.284  23.820  0.00  0.00    +0.004 A 
ATOM     26  C   UNL     1      -1.823  -2.431  24.659  0.00  0.00    +0.111 A 
ATOM     27  C   UNL     1      -2.547  -3.500  24.157  0.00  0.00    +0.020 A 
ENDBRANCH  16  17
ENDBRANCH  10  13
TORSDOF 4
ENDMDL
MODEL 4
REMARK VINA RESULT:       7.1      1.671      5.324
REMARK  Name = 38026473
REMARK  6 active torsions:
REMARK  status: ('A' for Active; 'I' for Inactive)
REMARK    1  A    between atoms: N_3  and  C_14
REMARK    2  A    between atoms: N_4  and  C_9
REMARK    3  A    between atoms: N_6  and  C_18
REMARK    4  A    between atoms: C_10  and  C_13
REMARK    5  A    between atoms: C_16  and  C_17
REMARK    6  A    between atoms: C_24  and  C_28
REMARK                            x       y       z     vdW  Elec       q    Type
REMARK                         _______ _______ _______ _____ _____    ______ ____
ROOT
ATOM      3  N   UNL     1      -1.601   3.550  25.959  0.00  0.00    -0.293 NA
ATOM      9  C   UNL     1      -1.157   4.772  24.024  0.00  0.00    +0.090 C 
ATOM     10  C   UNL     1      -2.906   3.612  25.274  0.00  0.00    +0.147 C 
ATOM     11  C   UNL     1      -2.602   4.283  23.920  0.00  0.00    +0.052 C 
ATOM     12  C   UNL     1      -0.858   4.735  25.516  0.00  0.00    +0.107 C 
ATOM     14  C   UNL     1      -1.717   3.493  27.411  0.00  0.00    +0.105 C 
ENDROOT
BRANCH   9   4
ATOM      2  O   UNL     1       0.519   2.713  25.097  0.00  0.00    -0.253 OA
ATOM      4  N   UNL     1      -0.254   3.923  23.285  0.00  0.00    -0.295 N 
ATOM      6  N   UNL     1       1.305   2.276  22.929  0.00  0.00    -0.269 N 
ATOM     15  C   UNL     1       0.533   2.937  23.889  0.00  0.00    +0.304 C 
ATOM     29  H   UNL     1      -0.131   4.097  22.292  0.00  0.00    +0.151 HD
ATOM     30  H   UNL     1       1.198   2.585  21.966  0.00  0.00    +0.156 HD
BRANCH   6  18
ATOM     18  C   UNL     1       2.226   1.222  23.131  0.00  0.00    +0.035 A 
ATOM     19  C   UNL     1       3.597   1.477  23.094  0.00  0.00    +0.023 A 
ATOM     20  C   UNL     1       1.764  -0.073  23.366  0.00  0.00    +0.023 A 
ATOM     22  C   UNL     1       4.505   0.438  23.292  0.00  0.00    +0.005 A 
ATOM     23  C   UNL     1       2.673  -1.112  23.564  0.00  0.00    +0.005 A 
ATOM     24  C   UNL     1       4.043  -0.857  23.528  0.00  0.00    -0.050 A 
ATOM     28  C   UNL     1       5.015  -1.969  23.741  0.00  0.00    +0.044 C 
ENDBRANCH   6  18
ENDBRANCH   9   4
BRANCH  10  13
ATOM      1  O   UNL     1      -4.927   2.240  25.182  0.00  0.00    -0.336 OA
ATOM      5  N   UNL     1      -3.025   1.085  24.924  0.00  0.00    -0.189 NA
ATOM      7  N   UNL     1      -5.303   0.902  25.013  0.00  0.00    -0.054 NA
ATOM     13  C   UNL     1      -3.570   2.261  25.116  0.00  0.00    +0.245 A 
ATOM     16  C   UNL     1      -4.127   0.284  24.867  0.00  0.00    +0.220 A 
BRANCH  16  17
ATOM      8  N   UNL     1      -3.351  -1.813  25.619  0.00  0.00    -0.252 NA
ATOM     17  C   UNL     1      -4.020  -1.131  24.661  0.00  0.00    +0.111 A 
ATOM     21  C   UNL     1      -4.579  -1.719  23.539  0.00  0.00    +0.031 A 
ATOM     25  C   UNL     1      -4.446  -3.095  23.388  0.00  0.00    +0.004 A 
ATOM     26  C   UNL     1      -3.241  -3.148  25.438  0.00  0.00    +0.111 A 
ATOM     27  C   UNL     1      -3.765  -3.831  24.352  0.00  0.00    +0.020 A 
ENDBRANCH  16  17
ENDBRANCH  10  13
TORSDOF 4
ENDMDL
