MODEL 1
REMARK VINA RESULT:      -3.2      0.000      0.000
REMARK  Name = 45784172
REMARK  3 active torsions:
REMARK  status: ('A' for Active; 'I' for Inactive)
REMARK    1  A    between atoms: N_5  and  C_11
REMARK    2  A    between atoms: C_7  and  C_12
REMARK    3  A    between atoms: C_11  and  C_13
REMARK                            x       y       z     vdW  Elec       q    Type
REMARK                         _______ _______ _______ _____ _____    ______ ____
ROOT
ATOM      5  N   UNL     1       0.543  -0.633  23.747  0.00  0.00    -0.297 NA
ATOM      7  C   UNL     1      -1.123   0.190  25.178  0.00  0.00    +0.090 C 
ATOM      8  C   UNL     1      -1.463  -1.254  24.770  0.00  0.00    +0.029 C 
ATOM      9  C   UNL     1      -0.051   0.636  24.174  0.00  0.00    +0.097 C 
ATOM     10  C   UNL     1      -0.593  -1.533  23.551  0.00  0.00    +0.085 C 
ENDROOT
BRANCH   7  12
ATOM      1 CL   UNL     1      -6.548   5.492  25.518  0.00  0.00    -0.083 Cl
ATOM      4  O   UNL     1      -3.535   0.544  25.171  0.00  0.00    -0.439 OA
ATOM      6  N   UNL     1      -2.305   2.440  25.337  0.00  0.00    -0.213 NA
ATOM     12  C   UNL     1      -2.306   1.130  25.233  0.00  0.00    +0.201 A 
ATOM     14  C   UNL     1      -3.641   2.758  25.343  0.00  0.00    +0.111 A 
ATOM     15  C   UNL     1      -4.397   1.600  25.241  0.00  0.00    +0.155 A 
ATOM     18  C   UNL     1      -4.301   3.992  25.431  0.00  0.00    +0.051 A 
ATOM     19  C   UNL     1      -5.786   1.560  25.218  0.00  0.00    +0.050 A 
ATOM     22  C   UNL     1      -5.703   3.993  25.411  0.00  0.00    +0.043 A 
ATOM     23  C   UNL     1      -6.428   2.800  25.306  0.00  0.00    +0.024 A 
ENDBRANCH   7  12
BRANCH   5  11
ATOM     11  C   UNL     1       1.351  -0.490  22.545  0.00  0.00    +0.119 C 
BRANCH  11  13
ATOM      2  F   UNL     1       5.591  -2.121  24.330  0.00  0.00    -0.202 F 
ATOM      3  F   UNL     1       6.801   0.264  23.763  0.00  0.00    -0.202 F 
ATOM     13  C   UNL     1       2.807  -0.288  22.871  0.00  0.00    -0.030 A 
ATOM     16  C   UNL     1       3.539  -1.319  23.461  0.00  0.00    +0.046 A 
ATOM     17  C   UNL     1       3.425   0.928  22.581  0.00  0.00    +0.008 A 
ATOM     20  C   UNL     1       4.888  -1.132  23.762  0.00  0.00    +0.159 A 
ATOM     21  C   UNL     1       4.774   1.115  22.882  0.00  0.00    +0.041 A 
ATOM     24  C   UNL     1       5.506   0.085  23.473  0.00  0.00    +0.158 A 
ENDBRANCH  11  13
ENDBRANCH   5  11
TORSDOF 3
ENDMDL
MODEL 2
REMARK VINA RESULT:      -2.2      4.355      7.738
REMARK  Name = 45784172
REMARK  3 active torsions:
REMARK  status: ('A' for Active; 'I' for Inactive)
REMARK    1  A    between atoms: N_5  and  C_11
REMARK    2  A    between atoms: C_7  and  C_12
REMARK    3  A    between atoms: C_11  and  C_13
REMARK                            x       y       z     vdW  Elec       q    Type
REMARK                         _______ _______ _______ _____ _____    ______ ____
ROOT
ATOM      5  N   UNL     1      -3.848   2.327  25.055  0.00  0.00    -0.297 NA
ATOM      7  C   UNL     1      -1.584   2.766  24.629  0.00  0.00    +0.090 C 
ATOM      8  C   UNL     1      -2.448   3.418  23.536  0.00  0.00    +0.029 C 
ATOM      9  C   UNL     1      -2.521   1.767  25.323  0.00  0.00    +0.097 C 
ATOM     10  C   UNL     1      -3.807   2.737  23.652  0.00  0.00    +0.085 C 
ENDROOT
BRANCH   7  12
ATOM      1 CL   UNL     1       5.214   0.145  22.488  0.00  0.00    -0.083 Cl
ATOM      4  O   UNL     1      -0.456   0.996  23.389  0.00  0.00    -0.439 OA
ATOM      6  N   UNL     1       0.933   2.524  24.322  0.00  0.00    -0.213 NA
ATOM     12  C   UNL     1      -0.306   2.128  24.132  0.00  0.00    +0.201 A 
ATOM     14  C   UNL     1       1.673   1.581  23.651  0.00  0.00    +0.111 A 
ATOM     15  C   UNL     1       0.826   0.644  23.079  0.00  0.00    +0.155 A 
ATOM     18  C   UNL     1       3.057   1.440  23.476  0.00  0.00    +0.051 A 
ATOM     19  C   UNL     1       1.245  -0.449  22.330  0.00  0.00    +0.050 A 
ATOM     22  C   UNL     1       3.519   0.350  22.725  0.00  0.00    +0.043 A 
ATOM     23  C   UNL     1       2.628  -0.575  22.165  0.00  0.00    +0.024 A 
ENDBRANCH   7  12
BRANCH   5  11
ATOM     11  C   UNL     1      -4.915   1.374  25.322  0.00  0.00    +0.119 C 
BRANCH  11  13
ATOM      2  F   UNL     1      -4.566  -2.704  22.664  0.00  0.00    -0.202 F 
ATOM      3  F   UNL     1      -3.184  -3.948  24.668  0.00  0.00    -0.202 F 
ATOM     13  C   UNL     1      -4.453  -0.048  25.149  0.00  0.00    -0.030 A 
ATOM     16  C   UNL     1      -4.729  -0.730  23.963  0.00  0.00    +0.046 A 
ATOM     17  C   UNL     1      -3.747  -0.682  26.170  0.00  0.00    +0.008 A 
ATOM     20  C   UNL     1      -4.301  -2.048  23.802  0.00  0.00    +0.159 A 
ATOM     21  C   UNL     1      -3.318  -2.000  26.008  0.00  0.00    +0.041 A 
ATOM     24  C   UNL     1      -3.595  -2.683  24.824  0.00  0.00    +0.158 A 
ENDBRANCH  11  13
ENDBRANCH   5  11
TORSDOF 3
ENDMDL
MODEL 3
REMARK VINA RESULT:      -1.5      4.164      7.563
REMARK  Name = 45784172
REMARK  3 active torsions:
REMARK  status: ('A' for Active; 'I' for Inactive)
REMARK    1  A    between atoms: N_5  and  C_11
REMARK    2  A    between atoms: C_7  and  C_12
REMARK    3  A    between atoms: C_11  and  C_13
REMARK                            x       y       z     vdW  Elec       q    Type
REMARK                         _______ _______ _______ _____ _____    ______ ____
ROOT
ATOM      5  N   UNL     1      -3.372  -0.174  24.617  0.00  0.00    -0.297 NA
ATOM      7  C   UNL     1      -1.360  -1.058  23.799  0.00  0.00    +0.090 C 
ATOM      8  C   UNL     1      -1.736  -1.766  25.112  0.00  0.00    +0.029 C 
ATOM      9  C   UNL     1      -2.237   0.201  23.770  0.00  0.00    +0.097 C 
ATOM     10  C   UNL     1      -2.776  -0.861  25.762  0.00  0.00    +0.085 C 
ENDROOT
BRANCH   7  12
ATOM      1 CL   UNL     1       6.171  -0.270  23.229  0.00  0.00    -0.083 Cl
ATOM      4  O   UNL     1       0.419   0.511  23.241  0.00  0.00    -0.439 OA
ATOM      6  N   UNL     1       1.138  -1.553  23.839  0.00  0.00    -0.213 NA
ATOM     12  C   UNL     1       0.112  -0.755  23.640  0.00  0.00    +0.201 A 
ATOM     14  C   UNL     1       2.219  -0.758  23.550  0.00  0.00    +0.111 A 
ATOM     15  C   UNL     1       1.783   0.507  23.182  0.00  0.00    +0.155 A 
ATOM     18  C   UNL     1       3.596  -1.020  23.570  0.00  0.00    +0.051 A 
ATOM     19  C   UNL     1       2.618   1.559  22.824  0.00  0.00    +0.050 A 
ATOM     22  C   UNL     1       4.471   0.017  23.215  0.00  0.00    +0.043 A 
ATOM     23  C   UNL     1       3.988   1.279  22.849  0.00  0.00    +0.024 A 
ENDBRANCH   7  12
BRANCH   5  11
ATOM     11  C   UNL     1      -4.170   0.976  25.015  0.00  0.00    +0.119 C 
BRANCH  11  13
ATOM      2  F   UNL     1      -0.018   3.325  26.050  0.00  0.00    -0.202 F 
ATOM      3  F   UNL     1      -1.092   5.693  25.204  0.00  0.00    -0.202 F 
ATOM     13  C   UNL     1      -3.348   2.237  25.066  0.00  0.00    -0.030 A 
ATOM     16  C   UNL     1      -2.038   2.196  25.544  0.00  0.00    +0.046 A 
ATOM     17  C   UNL     1      -3.895   3.445  24.634  0.00  0.00    +0.008 A 
ATOM     20  C   UNL     1      -1.276   3.364  25.591  0.00  0.00    +0.159 A 
ATOM     21  C   UNL     1      -3.133   4.612  24.681  0.00  0.00    +0.041 A 
ATOM     24  C   UNL     1      -1.823   4.572  25.159  0.00  0.00    +0.158 A 
ENDBRANCH  11  13
ENDBRANCH   5  11
TORSDOF 3
ENDMDL
MODEL 4
REMARK VINA RESULT:      -0.8      4.536      7.834
REMARK  Name = 45784172
REMARK  3 active torsions:
REMARK  status: ('A' for Active; 'I' for Inactive)
REMARK    1  A    between atoms: N_5  and  C_11
REMARK    2  A    between atoms: C_7  and  C_12
REMARK    3  A    between atoms: C_11  and  C_13
REMARK                            x       y       z     vdW  Elec       q    Type
REMARK                         _______ _______ _______ _____ _____    ______ ____
ROOT
ATOM      5  N   UNL     1      -3.463  -0.279  24.672  0.00  0.00    -0.297 NA
ATOM      7  C   UNL     1      -1.447  -1.120  23.816  0.00  0.00    +0.090 C 
ATOM      8  C   UNL     1      -1.812  -1.874  25.106  0.00  0.00    +0.029 C 
ATOM      9  C   UNL     1      -2.335   0.133  23.833  0.00  0.00    +0.097 C 
ATOM     10  C   UNL     1      -2.855  -1.000  25.791  0.00  0.00    +0.085 C 
ENDROOT
BRANCH   7  12
ATOM      1 CL   UNL     1       6.075  -0.240  23.274  0.00  0.00    -0.083 Cl
ATOM      4  O   UNL     1       0.315   0.468  23.251  0.00  0.00    -0.439 OA
ATOM      6  N   UNL     1       1.056  -1.582  23.873  0.00  0.00    -0.213 NA
ATOM     12  C   UNL     1       0.022  -0.799  23.661  0.00  0.00    +0.201 A 
ATOM     14  C   UNL     1       2.129  -0.775  23.581  0.00  0.00    +0.111 A 
ATOM     15  C   UNL     1       1.679   0.480  23.200  0.00  0.00    +0.155 A 
ATOM     18  C   UNL     1       3.509  -1.020  23.610  0.00  0.00    +0.051 A 
ATOM     19  C   UNL     1       2.501   1.539  22.835  0.00  0.00    +0.050 A 
ATOM     22  C   UNL     1       4.372   0.025  23.249  0.00  0.00    +0.043 A 
ATOM     23  C   UNL     1       3.875   1.278  22.870  0.00  0.00    +0.024 A 
ENDBRANCH   7  12
BRANCH   5  11
ATOM     11  C   UNL     1      -4.268   0.850  25.112  0.00  0.00    +0.119 C 
BRANCH  11  13
ATOM      2  F   UNL     1      -3.776   5.481  23.652  0.00  0.00    -0.202 F 
ATOM      3  F   UNL     1      -1.375   5.682  24.943  0.00  0.00    -0.202 F 
ATOM     13  C   UNL     1      -3.494   2.140  25.067  0.00  0.00    -0.030 A 
ATOM     16  C   UNL     1      -4.004   3.234  24.367  0.00  0.00    +0.046 A 
ATOM     17  C   UNL     1      -2.269   2.244  25.726  0.00  0.00    +0.008 A 
ATOM     20  C   UNL     1      -3.287   4.431  24.325  0.00  0.00    +0.159 A 
ATOM     21  C   UNL     1      -1.553   3.440  25.683  0.00  0.00    +0.041 A 
ATOM     24  C   UNL     1      -2.063   4.534  24.984  0.00  0.00    +0.158 A 
ENDBRANCH  11  13
ENDBRANCH   5  11
TORSDOF 3
ENDMDL
MODEL 5
REMARK VINA RESULT:       0.1      5.370      9.350
REMARK  Name = 45784172
REMARK  3 active torsions:
REMARK  status: ('A' for Active; 'I' for Inactive)
REMARK    1  A    between atoms: N_5  and  C_11
REMARK    2  A    between atoms: C_7  and  C_12
REMARK    3  A    between atoms: C_11  and  C_13
REMARK                            x       y       z     vdW  Elec       q    Type
REMARK                         _______ _______ _______ _____ _____    ______ ____
ROOT
ATOM      5  N   UNL     1      -1.179   1.434  24.042  0.00  0.00    -0.297 NA
ATOM      7  C   UNL     1       0.678   0.472  22.980  0.00  0.00    +0.090 C 
ATOM      8  C   UNL     1      -0.190  -0.636  23.600  0.00  0.00    +0.029 C 
ATOM      9  C   UNL     1       0.192   1.767  23.646  0.00  0.00    +0.097 C 
ATOM     10  C   UNL     1      -1.093   0.083  24.595  0.00  0.00    +0.085 C 
ENDROOT
BRANCH   7  12
ATOM      1 CL   UNL     1       8.252   0.159  23.430  0.00  0.00    -0.083 Cl
ATOM      4  O   UNL     1       2.560  -0.975  23.531  0.00  0.00    -0.439 OA
ATOM      6  N   UNL     1       3.139   1.119  22.888  0.00  0.00    -0.213 NA
ATOM     12  C   UNL     1       2.169   0.263  23.117  0.00  0.00    +0.201 A 
ATOM     14  C   UNL     1       4.272   0.397  23.171  0.00  0.00    +0.111 A 
ATOM     15  C   UNL     1       3.922  -0.885  23.565  0.00  0.00    +0.155 A 
ATOM     18  C   UNL     1       5.631   0.743  23.123  0.00  0.00    +0.051 A 
ATOM     19  C   UNL     1       4.826  -1.878  23.925  0.00  0.00    +0.050 A 
ATOM     22  C   UNL     1       6.573  -0.232  23.478  0.00  0.00    +0.043 A 
ATOM     23  C   UNL     1       6.176  -1.515  23.872  0.00  0.00    +0.024 A 
ENDBRANCH   7  12
BRANCH   5  11
ATOM     11  C   UNL     1      -1.729   2.388  24.993  0.00  0.00    +0.119 C 
BRANCH  11  13
ATOM      2  F   UNL     1      -6.084   4.485  25.668  0.00  0.00    -0.202 F 
ATOM      3  F   UNL     1      -7.351   2.101  25.237  0.00  0.00    -0.202 F 
ATOM     13  C   UNL     1      -3.231   2.311  25.059  0.00  0.00    -0.030 A 
ATOM     16  C   UNL     1      -3.976   3.457  25.338  0.00  0.00    +0.046 A 
ATOM     17  C   UNL     1      -3.877   1.095  24.838  0.00  0.00    +0.008 A 
ATOM     20  C   UNL     1      -5.368   3.385  25.399  0.00  0.00    +0.159 A 
ATOM     21  C   UNL     1      -5.270   1.024  24.898  0.00  0.00    +0.041 A 
ATOM     24  C   UNL     1      -6.015   2.169  25.178  0.00  0.00    +0.158 A 
ENDBRANCH  11  13
ENDBRANCH   5  11
TORSDOF 3
ENDMDL
