MODEL 1
REMARK VINA RESULT:       1.9      0.000      0.000
REMARK  Name = 45361464
REMARK  10 active torsions:
REMARK  status: ('A' for Active; 'I' for Inactive)
REMARK    1  A    between atoms: O_1  and  C_10
REMARK    2  A    between atoms: N_4  and  C_14
REMARK    3  A    between atoms: N_5  and  C_29
REMARK    4  A    between atoms: C_7  and  C_17
REMARK    5  A    between atoms: C_9  and  C_19
REMARK    6  A    between atoms: C_13  and  C_18
REMARK    7  A    between atoms: C_18  and  C_20
REMARK    8  A    between atoms: C_18  and  C_21
REMARK    9  A    between atoms: C_22  and  C_23
REMARK   10  A    between atoms: C_29  and  C_30
REMARK                            x       y       z     vdW  Elec       q    Type
REMARK                         _______ _______ _______ _____ _____    ______ ____
ROOT
ATOM      7  C   UNL     1      -2.121  -0.916  25.255  0.00  0.00    -0.027 C 
ATOM      8  C   UNL     1      -2.387   0.013  24.024  0.00  0.00    +0.028 C 
ATOM      9  C   UNL     1      -1.035   0.494  23.385  0.00  0.00    +0.012 C 
ATOM     10  C   UNL     1      -3.398   1.141  24.377  0.00  0.00    +0.122 C 
ATOM     11  C   UNL     1      -3.467  -1.461  25.790  0.00  0.00    +0.007 C 
ATOM     12  C   UNL     1      -1.272  -2.125  24.801  0.00  0.00    +0.009 C 
ATOM     13  C   UNL     1      -4.701   0.597  25.007  0.00  0.00    +0.029 C 
ATOM     14  C   UNL     1      -0.156  -0.730  23.000  0.00  0.00    +0.076 C 
ATOM     15  C   UNL     1      -4.445  -0.358  26.173  0.00  0.00    +0.007 C 
ATOM     16  C   UNL     1       0.043  -1.720  24.148  0.00  0.00    +0.023 C 
ATOM     17  C   UNL     1      -1.389  -0.182  26.407  0.00  0.00    +0.011 C 
ATOM     19  C   UNL     1      -1.222   1.389  22.148  0.00  0.00    +0.010 C 
ENDROOT
BRANCH  14   4
ATOM      3  O   UNL     1       1.677   1.154  24.234  0.00  0.00    -0.276 OA
ATOM      4  N   UNL     1       1.147  -0.324  22.515  0.00  0.00    -0.312 N 
ATOM     22  C   UNL     1       1.949   0.586  23.179  0.00  0.00    +0.216 C 
ATOM     35  H   UNL     1       1.450  -0.694  21.619  0.00  0.00    +0.149 HD
BRANCH  22  23
ATOM     23  C   UNL     1       3.255   0.809  22.474  0.00  0.00    +0.075 C 
ATOM     24  C   UNL     1       4.217   1.624  23.342  0.00  0.00    +0.013 C 
ATOM     25  C   UNL     1       3.849  -0.529  22.029  0.00  0.00    +0.013 C 
ATOM     26  C   UNL     1       4.855   0.813  24.468  0.00  0.00    +0.001 C 
ATOM     27  C   UNL     1       4.475  -1.318  23.178  0.00  0.00    +0.001 C 
ATOM     28  C   UNL     1       5.483  -0.478  23.954  0.00  0.00    +0.000 C 
ENDBRANCH  22  23
ENDBRANCH  14   4
BRANCH  10   1
ATOM      1  O   UNL     1      -3.779   1.830  23.184  0.00  0.00    -0.391 OA
ATOM     36  H   UNL     1      -4.549   2.388  23.389  0.00  0.00    +0.210 HD
ENDBRANCH  10   1
BRANCH  13  18
ATOM     18  C   UNL     1      -5.627   1.729  25.467  0.00  0.00    +0.077 C 
ATOM     20  C   UNL     1      -6.871   1.780  24.589  0.00  0.00    +0.017 C 
BRANCH  18  21
ATOM      2  O   UNL     1      -4.975   3.861  24.520  0.00  0.00    -0.276 OA
ATOM      5  N   UNL     1      -4.081   3.239  26.568  0.00  0.00    -0.309 N 
ATOM     21  C   UNL     1      -4.874   3.057  25.444  0.00  0.00    +0.217 C 
ATOM     37  H   UNL     1      -4.094   2.550  27.313  0.00  0.00    +0.149 HD
BRANCH   5  29
ATOM     29  C   UNL     1      -3.273   4.418  26.771  0.00  0.00    +0.159 C 
BRANCH  29  30
ATOM      6  N   UNL     1      -1.273   3.297  25.968  0.00  0.00    -0.258 NA
ATOM     30  C   UNL     1      -2.040   4.409  25.914  0.00  0.00    +0.058 A 
ATOM     31  C   UNL     1      -1.752   5.511  25.127  0.00  0.00    +0.025 A 
ATOM     32  C   UNL     1      -0.604   5.471  24.344  0.00  0.00    +0.003 A 
ATOM     33  C   UNL     1      -0.166   3.293  25.193  0.00  0.00    +0.111 A 
ATOM     34  C   UNL     1       0.210   4.343  24.372  0.00  0.00    +0.020 A 
ENDBRANCH  29  30
ENDBRANCH   5  29
ENDBRANCH  18  21
ENDBRANCH  13  18
TORSDOF 7
ENDMDL
MODEL 2
REMARK VINA RESULT:       5.4      1.733      4.235
REMARK  Name = 45361464
REMARK  10 active torsions:
REMARK  status: ('A' for Active; 'I' for Inactive)
REMARK    1  A    between atoms: O_1  and  C_10
REMARK    2  A    between atoms: N_4  and  C_14
REMARK    3  A    between atoms: N_5  and  C_29
REMARK    4  A    between atoms: C_7  and  C_17
REMARK    5  A    between atoms: C_9  and  C_19
REMARK    6  A    between atoms: C_13  and  C_18
REMARK    7  A    between atoms: C_18  and  C_20
REMARK    8  A    between atoms: C_18  and  C_21
REMARK    9  A    between atoms: C_22  and  C_23
REMARK   10  A    between atoms: C_29  and  C_30
REMARK                            x       y       z     vdW  Elec       q    Type
REMARK                         _______ _______ _______ _____ _____    ______ ____
ROOT
ATOM      7  C   UNL     1      -1.275   3.789  25.726  0.00  0.00    -0.027 C 
ATOM      8  C   UNL     1      -1.745   2.461  25.043  0.00  0.00    +0.028 C 
ATOM      9  C   UNL     1      -0.668   1.946  24.023  0.00  0.00    +0.012 C 
ATOM     10  C   UNL     1      -3.188   2.598  24.478  0.00  0.00    +0.122 C 
ATOM     11  C   UNL     1      -2.305   4.208  26.803  0.00  0.00    +0.007 C 
ATOM     12  C   UNL     1       0.074   3.540  26.437  0.00  0.00    +0.009 C 
ATOM     13  C   UNL     1      -4.194   3.117  25.533  0.00  0.00    +0.029 C 
ATOM     14  C   UNL     1       0.705   1.770  24.733  0.00  0.00    +0.076 C 
ATOM     15  C   UNL     1      -3.711   4.381  26.245  0.00  0.00    +0.007 C 
ATOM     16  C   UNL     1       1.154   3.013  25.502  0.00  0.00    +0.023 C 
ATOM     17  C   UNL     1      -1.112   4.952  24.714  0.00  0.00    +0.011 C 
ATOM     19  C   UNL     1      -1.052   0.625  23.336  0.00  0.00    +0.010 C 
ENDROOT
BRANCH  14   4
ATOM      3  O   UNL     1       1.320  -0.879  23.716  0.00  0.00    -0.276 OA
ATOM      4  N   UNL     1       1.750   1.407  23.799  0.00  0.00    -0.312 N 
ATOM     22  C   UNL     1       1.963   0.109  23.373  0.00  0.00    +0.216 C 
ATOM     35  H   UNL     1       2.378   2.143  23.488  0.00  0.00    +0.149 HD
BRANCH  22  23
ATOM     23  C   UNL     1       3.091   0.016  22.386  0.00  0.00    +0.075 C 
ATOM     24  C   UNL     1       4.043   1.205  22.526  0.00  0.00    +0.013 C 
ATOM     25  C   UNL     1       3.803  -1.331  22.525  0.00  0.00    +0.013 C 
ATOM     26  C   UNL     1       4.968   1.105  23.738  0.00  0.00    +0.001 C 
ATOM     27  C   UNL     1       4.716  -1.402  23.748  0.00  0.00    +0.001 C 
ATOM     28  C   UNL     1       5.696  -0.235  23.788  0.00  0.00    +0.000 C 
ENDBRANCH  22  23
ENDBRANCH  14   4
BRANCH  10   1
ATOM      1  O   UNL     1      -3.660   1.316  24.061  0.00  0.00    -0.391 OA
ATOM     36  H   UNL     1      -4.587   1.410  23.783  0.00  0.00    +0.210 HD
ENDBRANCH  10   1
BRANCH  13  18
ATOM     18  C   UNL     1      -5.578   3.369  24.924  0.00  0.00    +0.077 C 
ATOM     20  C   UNL     1      -6.421   4.217  25.868  0.00  0.00    +0.017 C 
BRANCH  18  21
ATOM      2  O   UNL     1      -7.436   1.960  24.271  0.00  0.00    -0.276 OA
ATOM      5  N   UNL     1      -5.403   0.957  24.757  0.00  0.00    -0.309 N 
ATOM     21  C   UNL     1      -6.258   2.039  24.611  0.00  0.00    +0.217 C 
ATOM     37  H   UNL     1      -4.428   1.110  24.990  0.00  0.00    +0.149 HD
BRANCH   5  29
ATOM     29  C   UNL     1      -5.819  -0.406  24.518  0.00  0.00    +0.159 C 
BRANCH  29  30
ATOM      6  N   UNL     1      -3.711  -1.143  25.475  0.00  0.00    -0.258 NA
ATOM     30  C   UNL     1      -4.659  -1.359  24.535  0.00  0.00    +0.058 A 
ATOM     31  C   UNL     1      -4.615  -2.390  23.612  0.00  0.00    +0.025 A 
ATOM     32  C   UNL     1      -3.528  -3.256  23.654  0.00  0.00    +0.003 A 
ATOM     33  C   UNL     1      -2.671  -2.005  25.487  0.00  0.00    +0.111 A 
ATOM     34  C   UNL     1      -2.533  -3.067  24.608  0.00  0.00    +0.020 A 
ENDBRANCH  29  30
ENDBRANCH   5  29
ENDBRANCH  18  21
ENDBRANCH  13  18
TORSDOF 7
ENDMDL
