MODEL 1
REMARK VINA RESULT:      -5.4      0.000      0.000
REMARK  Name = 75536663
REMARK  10 active torsions:
REMARK  status: ('A' for Active; 'I' for Inactive)
REMARK    1  A    between atoms: S_1  and  N_8
REMARK    2  A    between atoms: S_1  and  C_19
REMARK    3  A    between atoms: O_3  and  C_11
REMARK    4  A    between atoms: N_7  and  C_10
REMARK    5  A    between atoms: N_7  and  C_15
REMARK    6  A    between atoms: N_8  and  C_14
REMARK    7  A    between atoms: N_9  and  C_22
REMARK    8  A    between atoms: C_12  and  C_14
REMARK    9  A    between atoms: C_15  and  C_16
REMARK   10  A    between atoms: C_23  and  C_24
REMARK                            x       y       z     vdW  Elec       q    Type
REMARK                         _______ _______ _______ _____ _____    ______ ____
ROOT
ATOM      7  N   UNL     1      -3.730   4.604  25.278  0.00  0.00    -0.305 NA
ATOM     25  H   UNL     1      -4.230   5.398  25.678  0.00  0.00    +0.123 HD
ENDROOT
BRANCH   7  10
ATOM      2  O   UNL     1      -5.818   1.659  25.731  0.00  0.00    -0.371 OA
ATOM     10  C   UNL     1      -4.690   3.578  24.902  0.00  0.00    +0.111 C 
ATOM     11  C   UNL     1      -4.052   2.336  24.309  0.00  0.00    +0.164 C 
ATOM     12  C   UNL     1      -5.168   1.317  24.494  0.00  0.00    +0.164 C 
ATOM     13  C   UNL     1      -5.433   2.996  26.094  0.00  0.00    +0.181 C 
BRANCH  11   3
ATOM      3  O   UNL     1      -3.706   2.496  22.946  0.00  0.00    -0.388 OA
ATOM     26  H   UNL     1      -2.792   2.824  22.899  0.00  0.00    +0.210 HD
ENDBRANCH  11   3
BRANCH  12  14
ATOM     14  C   UNL     1      -4.670  -0.116  24.557  0.00  0.00    +0.139 C 
BRANCH  14   8
ATOM      8  N   UNL     1      -3.209  -0.143  24.346  0.00  0.00    -0.192 NA
ATOM     27  H   UNL     1      -2.779   0.791  24.351  0.00  0.00    +0.148 HD
BRANCH   8   1
ATOM      1  S   UNL     1      -2.292  -1.400  25.045  0.00  0.00    +0.027 S 
ATOM      4  O   UNL     1      -2.087  -1.134  26.455  0.00  0.00    -0.158 OA
ATOM      5  O   UNL     1      -1.169  -1.688  24.174  0.00  0.00    -0.158 OA
ATOM     19  C   UNL     1      -3.434  -2.755  24.905  0.00  0.00    +0.214 C 
ENDBRANCH   8   1
ENDBRANCH  14   8
ENDBRANCH  12  14
ENDBRANCH   7  10
BRANCH   7  15
ATOM     15  C   UNL     1      -2.780   4.099  26.261  0.00  0.00    +0.116 C 
BRANCH  15  16
ATOM     16  C   UNL     1      -1.594   3.441  25.607  0.00  0.00    -0.033 A 
ATOM     17  C   UNL     1      -0.953   4.064  24.536  0.00  0.00    +0.007 A 
ATOM     18  C   UNL     1      -1.135   2.208  26.071  0.00  0.00    +0.007 A 
ATOM     20  C   UNL     1       0.145   3.456  23.929  0.00  0.00    +0.023 A 
ATOM     21  C   UNL     1      -0.036   1.599  25.465  0.00  0.00    +0.023 A 
ATOM     22  C   UNL     1       0.604   2.223  24.394  0.00  0.00    +0.033 A 
BRANCH  22   9
ATOM      6  O   UNL     1       0.755  -0.188  22.598  0.00  0.00    -0.276 OA
ATOM      9  N   UNL     1       1.702   1.613  23.787  0.00  0.00    -0.286 N 
ATOM     23  C   UNL     1       1.716   0.485  22.957  0.00  0.00    +0.214 C 
ATOM     24  C   UNL     1       3.113   0.142  22.503  0.00  0.00    +0.109 C 
ATOM     28  H   UNL     1       2.602   2.050  23.978  0.00  0.00    +0.155 HD
ENDBRANCH  22   9
ENDBRANCH  15  16
ENDBRANCH   7  15
TORSDOF 8
ENDMDL
MODEL 2
REMARK VINA RESULT:      -3.6      2.178      5.257
REMARK  Name = 75536663
REMARK  10 active torsions:
REMARK  status: ('A' for Active; 'I' for Inactive)
REMARK    1  A    between atoms: S_1  and  N_8
REMARK    2  A    between atoms: S_1  and  C_19
REMARK    3  A    between atoms: O_3  and  C_11
REMARK    4  A    between atoms: N_7  and  C_10
REMARK    5  A    between atoms: N_7  and  C_15
REMARK    6  A    between atoms: N_8  and  C_14
REMARK    7  A    between atoms: N_9  and  C_22
REMARK    8  A    between atoms: C_12  and  C_14
REMARK    9  A    between atoms: C_15  and  C_16
REMARK   10  A    between atoms: C_23  and  C_24
REMARK                            x       y       z     vdW  Elec       q    Type
REMARK                         _______ _______ _______ _____ _____    ______ ____
ROOT
ATOM      7  N   UNL     1      -2.674   4.369  25.883  0.00  0.00    -0.305 NA
ATOM     25  H   UNL     1      -2.800   5.337  26.177  0.00  0.00    +0.123 HD
ENDROOT
BRANCH   7  10
ATOM      2  O   UNL     1       0.139   3.748  23.661  0.00  0.00    -0.371 OA
ATOM     10  C   UNL     1      -1.281   4.160  25.520  0.00  0.00    +0.111 C 
ATOM     11  C   UNL     1      -0.860   2.703  25.533  0.00  0.00    +0.164 C 
ATOM     12  C   UNL     1       0.391   2.751  24.667  0.00  0.00    +0.164 C 
ATOM     13  C   UNL     1      -0.980   4.547  24.081  0.00  0.00    +0.181 C 
BRANCH  11   3
ATOM      3  O   UNL     1      -0.580   2.227  26.836  0.00  0.00    -0.388 OA
ATOM     26  H   UNL     1      -0.526   1.257  26.803  0.00  0.00    +0.210 HD
ENDBRANCH  11   3
BRANCH  12  14
ATOM     14  C   UNL     1       0.714   1.424  24.003  0.00  0.00    +0.139 C 
BRANCH  14   8
ATOM      8  N   UNL     1       2.068   1.479  23.419  0.00  0.00    -0.192 NA
ATOM     27  H   UNL     1       2.718   2.074  23.949  0.00  0.00    +0.148 HD
BRANCH   8   1
ATOM      1  S   UNL     1       2.731   0.067  22.728  0.00  0.00    +0.027 S 
ATOM      4  O   UNL     1       2.306  -0.052  21.347  0.00  0.00    -0.158 OA
ATOM      5  O   UNL     1       2.545  -1.031  23.658  0.00  0.00    -0.158 OA
ATOM     19  C   UNL     1       4.460   0.480  22.734  0.00  0.00    +0.214 C 
ENDBRANCH   8   1
ENDBRANCH  14   8
ENDBRANCH  12  14
ENDBRANCH   7  10
BRANCH   7  15
ATOM     15  C   UNL     1      -3.557   4.097  24.756  0.00  0.00    +0.116 C 
BRANCH  15  16
ATOM     16  C   UNL     1      -3.756   2.620  24.543  0.00  0.00    -0.033 A 
ATOM     17  C   UNL     1      -3.160   1.986  23.452  0.00  0.00    +0.007 A 
ATOM     18  C   UNL     1      -4.536   1.884  25.435  0.00  0.00    +0.007 A 
ATOM     20  C   UNL     1      -3.344   0.618  23.253  0.00  0.00    +0.023 A 
ATOM     21  C   UNL     1      -4.719   0.515  25.237  0.00  0.00    +0.023 A 
ATOM     22  C   UNL     1      -4.123  -0.117  24.146  0.00  0.00    +0.033 A 
BRANCH  22   9
ATOM      6  O   UNL     1      -2.329  -2.446  24.792  0.00  0.00    -0.276 OA
ATOM      9  N   UNL     1      -4.308  -1.485  23.947  0.00  0.00    -0.286 N 
ATOM     23  C   UNL     1      -3.434  -2.533  24.268  0.00  0.00    +0.214 C 
ATOM     24  C   UNL     1      -4.007  -3.876  23.890  0.00  0.00    +0.109 C 
ATOM     28  H   UNL     1      -5.192  -1.746  23.515  0.00  0.00    +0.155 HD
ENDBRANCH  22   9
ENDBRANCH  15  16
ENDBRANCH   7  15
TORSDOF 8
ENDMDL
MODEL 3
REMARK VINA RESULT:      -3.5      2.275      4.101
REMARK  Name = 75536663
REMARK  10 active torsions:
REMARK  status: ('A' for Active; 'I' for Inactive)
REMARK    1  A    between atoms: S_1  and  N_8
REMARK    2  A    between atoms: S_1  and  C_19
REMARK    3  A    between atoms: O_3  and  C_11
REMARK    4  A    between atoms: N_7  and  C_10
REMARK    5  A    between atoms: N_7  and  C_15
REMARK    6  A    between atoms: N_8  and  C_14
REMARK    7  A    between atoms: N_9  and  C_22
REMARK    8  A    between atoms: C_12  and  C_14
REMARK    9  A    between atoms: C_15  and  C_16
REMARK   10  A    between atoms: C_23  and  C_24
REMARK                            x       y       z     vdW  Elec       q    Type
REMARK                         _______ _______ _______ _____ _____    ______ ____
ROOT
ATOM      7  N   UNL     1      -3.911  -1.262  24.860  0.00  0.00    -0.305 NA
ATOM     25  H   UNL     1      -3.527  -1.831  24.106  0.00  0.00    +0.123 HD
ENDROOT
BRANCH   7  10
ATOM      2  O   UNL     1      -3.850   2.031  23.316  0.00  0.00    -0.371 OA
ATOM     10  C   UNL     1      -4.467  -0.041  24.298  0.00  0.00    +0.111 C 
ATOM     11  C   UNL     1      -4.659   1.065  25.317  0.00  0.00    +0.164 C 
ATOM     12  C   UNL     1      -4.745   2.286  24.412  0.00  0.00    +0.164 C 
ATOM     13  C   UNL     1      -3.537   0.628  23.299  0.00  0.00    +0.181 C 
BRANCH  11   3
ATOM      3  O   UNL     1      -5.834   0.899  26.089  0.00  0.00    -0.388 OA
ATOM     26  H   UNL     1      -6.068   1.758  26.480  0.00  0.00    +0.210 HD
ENDBRANCH  11   3
BRANCH  12  14
ATOM     14  C   UNL     1      -4.350   3.578  25.105  0.00  0.00    +0.139 C 
BRANCH  14   8
ATOM      8  N   UNL     1      -3.241   4.217  24.371  0.00  0.00    -0.192 NA
ATOM     27  H   UNL     1      -3.553   4.938  23.707  0.00  0.00    +0.148 HD
BRANCH   8   1
ATOM      1  S   UNL     1      -1.775   4.526  25.186  0.00  0.00    +0.027 S 
ATOM      4  O   UNL     1      -1.683   3.692  26.369  0.00  0.00    -0.158 OA
ATOM      5  O   UNL     1      -1.594   5.963  25.277  0.00  0.00    -0.158 OA
ATOM     19  C   UNL     1      -0.604   3.917  23.996  0.00  0.00    +0.214 C 
ENDBRANCH   8   1
ENDBRANCH  14   8
ENDBRANCH  12  14
ENDBRANCH   7  10
BRANCH   7  15
ATOM     15  C   UNL     1      -2.852  -0.965  25.816  0.00  0.00    +0.116 C 
BRANCH  15  16
ATOM     16  C   UNL     1      -1.595  -0.498  25.132  0.00  0.00    -0.033 A 
ATOM     17  C   UNL     1      -1.016   0.719  25.493  0.00  0.00    +0.007 A 
ATOM     18  C   UNL     1      -1.007  -1.281  24.137  0.00  0.00    +0.007 A 
ATOM     20  C   UNL     1       0.149   1.154  24.860  0.00  0.00    +0.023 A 
ATOM     21  C   UNL     1       0.158  -0.847  23.505  0.00  0.00    +0.023 A 
ATOM     22  C   UNL     1       0.735   0.371  23.866  0.00  0.00    +0.033 A 
BRANCH  22   9
ATOM      6  O   UNL     1       3.359  -1.036  23.422  0.00  0.00    -0.276 OA
ATOM      9  N   UNL     1       1.900   0.805  23.232  0.00  0.00    -0.286 N 
ATOM     23  C   UNL     1       3.101   0.105  23.054  0.00  0.00    +0.214 C 
ATOM     24  C   UNL     1       4.124   0.929  22.313  0.00  0.00    +0.109 C 
ATOM     28  H   UNL     1       1.862   1.750  22.855  0.00  0.00    +0.155 HD
ENDBRANCH  22   9
ENDBRANCH  15  16
ENDBRANCH   7  15
TORSDOF 8
ENDMDL
MODEL 4
REMARK VINA RESULT:      -3.0      2.573      5.595
REMARK  Name = 75536663
REMARK  10 active torsions:
REMARK  status: ('A' for Active; 'I' for Inactive)
REMARK    1  A    between atoms: S_1  and  N_8
REMARK    2  A    between atoms: S_1  and  C_19
REMARK    3  A    between atoms: O_3  and  C_11
REMARK    4  A    between atoms: N_7  and  C_10
REMARK    5  A    between atoms: N_7  and  C_15
REMARK    6  A    between atoms: N_8  and  C_14
REMARK    7  A    between atoms: N_9  and  C_22
REMARK    8  A    between atoms: C_12  and  C_14
REMARK    9  A    between atoms: C_15  and  C_16
REMARK   10  A    between atoms: C_23  and  C_24
REMARK                            x       y       z     vdW  Elec       q    Type
REMARK                         _______ _______ _______ _____ _____    ______ ____
ROOT
ATOM      7  N   UNL     1      -3.669  -2.150  25.294  0.00  0.00    -0.305 NA
ATOM     25  H   UNL     1      -4.059  -1.812  26.174  0.00  0.00    +0.123 HD
ENDROOT
BRANCH   7  10
ATOM      2  O   UNL     1      -0.519  -0.331  25.347  0.00  0.00    -0.371 OA
ATOM     10  C   UNL     1      -2.224  -1.984  25.319  0.00  0.00    +0.111 C 
ATOM     11  C   UNL     1      -1.598  -1.896  23.940  0.00  0.00    +0.164 C 
ATOM     12  C   UNL     1      -0.262  -1.243  24.266  0.00  0.00    +0.164 C 
ATOM     13  C   UNL     1      -1.791  -0.662  25.931  0.00  0.00    +0.181 C 
BRANCH  11   3
ATOM      3  O   UNL     1      -1.431  -3.164  23.334  0.00  0.00    -0.388 OA
ATOM     26  H   UNL     1      -2.292  -3.455  22.990  0.00  0.00    +0.210 HD
ENDBRANCH  11   3
BRANCH  12  14
ATOM     14  C   UNL     1       0.342  -0.491  23.094  0.00  0.00    +0.139 C 
BRANCH  14   8
ATOM      8  N   UNL     1       1.455   0.354  23.567  0.00  0.00    -0.192 NA
ATOM     27  H   UNL     1       1.506   0.426  24.591  0.00  0.00    +0.148 HD
BRANCH   8   1
ATOM      1  S   UNL     1       2.946   0.303  22.739  0.00  0.00    +0.027 S 
ATOM      4  O   UNL     1       3.724   1.486  23.052  0.00  0.00    -0.158 OA
ATOM      5  O   UNL     1       2.695  -0.076  21.362  0.00  0.00    -0.158 OA
ATOM     19  C   UNL     1       3.717  -1.085  23.539  0.00  0.00    +0.214 C 
ENDBRANCH   8   1
ENDBRANCH  14   8
ENDBRANCH  12  14
ENDBRANCH   7  10
BRANCH   7  15
ATOM     15  C   UNL     1      -4.265  -1.402  24.193  0.00  0.00    +0.116 C 
BRANCH  15  16
ATOM     16  C   UNL     1      -3.960   0.069  24.286  0.00  0.00    -0.033 A 
ATOM     17  C   UNL     1      -3.150   0.675  23.324  0.00  0.00    +0.007 A 
ATOM     18  C   UNL     1      -4.485   0.828  25.332  0.00  0.00    +0.007 A 
ATOM     20  C   UNL     1      -2.866   2.038  23.408  0.00  0.00    +0.023 A 
ATOM     21  C   UNL     1      -4.202   2.191  25.416  0.00  0.00    +0.023 A 
ATOM     22  C   UNL     1      -3.392   2.796  24.454  0.00  0.00    +0.033 A 
BRANCH  22   9
ATOM      6  O   UNL     1      -0.918   4.220  25.410  0.00  0.00    -0.276 OA
ATOM      9  N   UNL     1      -3.108   4.159  24.540  0.00  0.00    -0.286 N 
ATOM     23  C   UNL     1      -1.933   4.771  24.997  0.00  0.00    +0.214 C 
ATOM     24  C   UNL     1      -2.024   6.275  24.930  0.00  0.00    +0.109 C 
ATOM     28  H   UNL     1      -3.854   4.778  24.229  0.00  0.00    +0.155 HD
ENDBRANCH  22   9
ENDBRANCH  15  16
ENDBRANCH   7  15
TORSDOF 8
ENDMDL
MODEL 5
REMARK VINA RESULT:      -2.8      2.254      4.817
REMARK  Name = 75536663
REMARK  10 active torsions:
REMARK  status: ('A' for Active; 'I' for Inactive)
REMARK    1  A    between atoms: S_1  and  N_8
REMARK    2  A    between atoms: S_1  and  C_19
REMARK    3  A    between atoms: O_3  and  C_11
REMARK    4  A    between atoms: N_7  and  C_10
REMARK    5  A    between atoms: N_7  and  C_15
REMARK    6  A    between atoms: N_8  and  C_14
REMARK    7  A    between atoms: N_9  and  C_22
REMARK    8  A    between atoms: C_12  and  C_14
REMARK    9  A    between atoms: C_15  and  C_16
REMARK   10  A    between atoms: C_23  and  C_24
REMARK                            x       y       z     vdW  Elec       q    Type
REMARK                         _______ _______ _______ _____ _____    ______ ____
ROOT
ATOM      7  N   UNL     1       0.419   3.083  23.772  0.00  0.00    -0.305 NA
ATOM     25  H   UNL     1       1.253   3.655  23.636  0.00  0.00    +0.123 HD
ENDROOT
BRANCH   7  10
ATOM      2  O   UNL     1      -1.947   5.212  25.533  0.00  0.00    -0.371 OA
ATOM     10  C   UNL     1      -0.735   3.954  23.924  0.00  0.00    +0.111 C 
ATOM     11  C   UNL     1      -2.014   3.214  24.269  0.00  0.00    +0.164 C 
ATOM     12  C   UNL     1      -2.860   4.343  24.842  0.00  0.00    +0.164 C 
ATOM     13  C   UNL     1      -0.610   4.904  25.104  0.00  0.00    +0.181 C 
BRANCH  11   3
ATOM      3  O   UNL     1      -2.624   2.621  23.139  0.00  0.00    -0.388 OA
ATOM     26  H   UNL     1      -2.914   3.329  22.539  0.00  0.00    +0.210 HD
ENDBRANCH  11   3
BRANCH  12  14
ATOM     14  C   UNL     1      -3.935   3.862  25.800  0.00  0.00    +0.139 C 
BRANCH  14   8
ATOM      8  N   UNL     1      -5.137   3.467  25.041  0.00  0.00    -0.192 NA
ATOM     27  H   UNL     1      -5.064   3.658  24.033  0.00  0.00    +0.148 HD
BRANCH   8   1
ATOM      1  S   UNL     1      -5.965   2.041  25.480  0.00  0.00    +0.027 S 
ATOM      4  O   UNL     1      -7.008   1.760  24.513  0.00  0.00    -0.158 OA
ATOM      5  O   UNL     1      -6.267   2.103  26.897  0.00  0.00    -0.158 OA
ATOM     19  C   UNL     1      -4.678   0.835  25.262  0.00  0.00    +0.214 C 
ENDBRANCH   8   1
ENDBRANCH  14   8
ENDBRANCH  12  14
ENDBRANCH   7  10
BRANCH   7  15
ATOM     15  C   UNL     1       0.607   2.249  24.953  0.00  0.00    +0.116 C 
BRANCH  15  16
ATOM     16  C   UNL     1      -0.166   0.961  24.858  0.00  0.00    -0.033 A 
ATOM     17  C   UNL     1      -1.002   0.570  25.905  0.00  0.00    +0.007 A 
ATOM     18  C   UNL     1      -0.048   0.157  23.724  0.00  0.00    +0.007 A 
ATOM     20  C   UNL     1      -1.718  -0.624  25.818  0.00  0.00    +0.023 A 
ATOM     21  C   UNL     1      -0.764  -1.037  23.637  0.00  0.00    +0.023 A 
ATOM     22  C   UNL     1      -1.599  -1.427  24.684  0.00  0.00    +0.033 A 
BRANCH  22   9
ATOM      6  O   UNL     1      -4.391  -1.965  23.696  0.00  0.00    -0.276 OA
ATOM      9  N   UNL     1      -2.315  -2.621  24.597  0.00  0.00    -0.286 N 
ATOM     23  C   UNL     1      -3.621  -2.816  24.127  0.00  0.00    +0.214 C 
ATOM     24  C   UNL     1      -4.030  -4.266  24.197  0.00  0.00    +0.109 C 
ATOM     28  H   UNL     1      -1.817  -3.450  24.917  0.00  0.00    +0.155 HD
ENDBRANCH  22   9
ENDBRANCH  15  16
ENDBRANCH   7  15
TORSDOF 8
ENDMDL
MODEL 6
REMARK VINA RESULT:      -2.5      2.326      6.334
REMARK  Name = 75536663
REMARK  10 active torsions:
REMARK  status: ('A' for Active; 'I' for Inactive)
REMARK    1  A    between atoms: S_1  and  N_8
REMARK    2  A    between atoms: S_1  and  C_19
REMARK    3  A    between atoms: O_3  and  C_11
REMARK    4  A    between atoms: N_7  and  C_10
REMARK    5  A    between atoms: N_7  and  C_15
REMARK    6  A    between atoms: N_8  and  C_14
REMARK    7  A    between atoms: N_9  and  C_22
REMARK    8  A    between atoms: C_12  and  C_14
REMARK    9  A    between atoms: C_15  and  C_16
REMARK   10  A    between atoms: C_23  and  C_24
REMARK                            x       y       z     vdW  Elec       q    Type
REMARK                         _______ _______ _______ _____ _____    ______ ____
ROOT
ATOM      7  N   UNL     1      -1.287  -2.476  23.944  0.00  0.00    -0.305 NA
ATOM     25  H   UNL     1      -0.832  -3.383  24.043  0.00  0.00    +0.123 HD
ENDROOT
BRANCH   7  10
ATOM      2  O   UNL     1      -0.644   0.380  26.103  0.00  0.00    -0.371 OA
ATOM     10  C   UNL     1      -0.486  -1.466  24.618  0.00  0.00    +0.111 C 
ATOM     11  C   UNL     1      -0.335  -0.181  23.826  0.00  0.00    +0.164 C 
ATOM     12  C   UNL     1       0.068   0.794  24.924  0.00  0.00    +0.164 C 
ATOM     13  C   UNL     1      -1.129  -0.958  25.898  0.00  0.00    +0.181 C 
BRANCH  11   3
ATOM      3  O   UNL     1       0.652  -0.274  22.817  0.00  0.00    -0.388 OA
ATOM     26  H   UNL     1       0.359   0.251  22.053  0.00  0.00    +0.210 HD
ENDBRANCH  11   3
BRANCH  12  14
ATOM     14  C   UNL     1      -0.272   2.237  24.601  0.00  0.00    +0.139 C 
BRANCH  14   8
ATOM      8  N   UNL     1      -1.198   2.770  25.619  0.00  0.00    -0.192 NA
ATOM     27  H   UNL     1      -0.825   2.720  26.576  0.00  0.00    +0.148 HD
BRANCH   8   1
ATOM      1  S   UNL     1      -2.141   4.142  25.247  0.00  0.00    +0.027 S 
ATOM      4  O   UNL     1      -2.883   4.562  26.420  0.00  0.00    -0.158 OA
ATOM      5  O   UNL     1      -2.820   3.906  23.987  0.00  0.00    -0.158 OA
ATOM     19  C   UNL     1      -0.866   5.343  24.947  0.00  0.00    +0.214 C 
ENDBRANCH   8   1
ENDBRANCH  14   8
ENDBRANCH  12  14
ENDBRANCH   7  10
BRANCH   7  15
ATOM     15  C   UNL     1      -2.626  -2.553  24.516  0.00  0.00    +0.116 C 
BRANCH  15  16
ATOM     16  C   UNL     1      -3.301  -1.208  24.545  0.00  0.00    -0.033 A 
ATOM     17  C   UNL     1      -3.962  -0.785  25.699  0.00  0.00    +0.007 A 
ATOM     18  C   UNL     1      -3.266  -0.383  23.420  0.00  0.00    +0.007 A 
ATOM     20  C   UNL     1      -4.588   0.461  25.728  0.00  0.00    +0.023 A 
ATOM     21  C   UNL     1      -3.891   0.863  23.449  0.00  0.00    +0.023 A 
ATOM     22  C   UNL     1      -4.553   1.285  24.603  0.00  0.00    +0.033 A 
BRANCH  22   9
ATOM      6  O   UNL     1      -5.915   2.738  26.860  0.00  0.00    -0.276 OA
ATOM      9  N   UNL     1      -5.180   2.531  24.631  0.00  0.00    -0.286 N 
ATOM     23  C   UNL     1      -5.803   3.162  25.715  0.00  0.00    +0.214 C 
ATOM     24  C   UNL     1      -6.363   4.510  25.332  0.00  0.00    +0.109 C 
ATOM     28  H   UNL     1      -5.179   3.037  23.747  0.00  0.00    +0.155 HD
ENDBRANCH  22   9
ENDBRANCH  15  16
ENDBRANCH   7  15
TORSDOF 8
ENDMDL
MODEL 7
REMARK VINA RESULT:      -2.3      2.370      5.052
REMARK  Name = 75536663
REMARK  10 active torsions:
REMARK  status: ('A' for Active; 'I' for Inactive)
REMARK    1  A    between atoms: S_1  and  N_8
REMARK    2  A    between atoms: S_1  and  C_19
REMARK    3  A    between atoms: O_3  and  C_11
REMARK    4  A    between atoms: N_7  and  C_10
REMARK    5  A    between atoms: N_7  and  C_15
REMARK    6  A    between atoms: N_8  and  C_14
REMARK    7  A    between atoms: N_9  and  C_22
REMARK    8  A    between atoms: C_12  and  C_14
REMARK    9  A    between atoms: C_15  and  C_16
REMARK   10  A    between atoms: C_23  and  C_24
REMARK                            x       y       z     vdW  Elec       q    Type
REMARK                         _______ _______ _______ _____ _____    ______ ____
ROOT
ATOM      7  N   UNL     1      -0.028  -1.809  25.109  0.00  0.00    -0.305 NA
ATOM     25  H   UNL     1       0.543  -2.654  25.108  0.00  0.00    +0.123 HD
ENDROOT
BRANCH   7  10
ATOM      2  O   UNL     1      -3.428  -2.458  23.991  0.00  0.00    -0.371 OA
ATOM     10  C   UNL     1      -1.428  -2.181  25.240  0.00  0.00    +0.111 C 
ATOM     11  C   UNL     1      -2.347  -1.004  25.512  0.00  0.00    +0.164 C 
ATOM     12  C   UNL     1      -3.694  -1.585  25.103  0.00  0.00    +0.164 C 
ATOM     13  C   UNL     1      -2.018  -2.733  23.953  0.00  0.00    +0.181 C 
BRANCH  11   3
ATOM      3  O   UNL     1      -2.336  -0.605  26.870  0.00  0.00    -0.388 OA
ATOM     26  H   UNL     1      -3.070   0.017  27.011  0.00  0.00    +0.210 HD
ENDBRANCH  11   3
BRANCH  12  14
ATOM     14  C   UNL     1      -4.704  -0.528  24.694  0.00  0.00    +0.139 C 
BRANCH  14   8
ATOM      8  N   UNL     1      -4.326   0.773  25.280  0.00  0.00    -0.192 NA
ATOM     27  H   UNL     1      -3.328   0.996  25.169  0.00  0.00    +0.148 HD
BRANCH   8   1
ATOM      1  S   UNL     1      -5.410   2.085  25.157  0.00  0.00    +0.027 S 
ATOM      4  O   UNL     1      -5.405   2.844  26.393  0.00  0.00    -0.158 OA
ATOM      5  O   UNL     1      -6.654   1.602  24.590  0.00  0.00    -0.158 OA
ATOM     19  C   UNL     1      -4.601   3.062  23.912  0.00  0.00    +0.214 C 
ENDBRANCH   8   1
ENDBRANCH  14   8
ENDBRANCH  12  14
ENDBRANCH   7  10
BRANCH   7  15
ATOM     15  C   UNL     1       0.207  -1.078  23.869  0.00  0.00    +0.116 C 
BRANCH  15  16
ATOM     16  C   UNL     1      -0.142   0.380  24.004  0.00  0.00    -0.033 A 
ATOM     17  C   UNL     1      -1.125   0.940  23.187  0.00  0.00    +0.007 A 
ATOM     18  C   UNL     1       0.518   1.173  24.943  0.00  0.00    +0.007 A 
ATOM     20  C   UNL     1      -1.448   2.291  23.310  0.00  0.00    +0.023 A 
ATOM     21  C   UNL     1       0.194   2.524  25.067  0.00  0.00    +0.023 A 
ATOM     22  C   UNL     1      -0.789   3.083  24.250  0.00  0.00    +0.033 A 
BRANCH  22   9
ATOM      6  O   UNL     1      -2.576   4.494  26.219  0.00  0.00    -0.276 OA
ATOM      9  N   UNL     1      -1.112   4.435  24.373  0.00  0.00    -0.286 N 
ATOM     23  C   UNL     1      -1.956   5.041  25.313  0.00  0.00    +0.214 C 
ATOM     24  C   UNL     1      -2.042   6.533  25.107  0.00  0.00    +0.109 C 
ATOM     28  H   UNL     1      -0.674   5.050  23.689  0.00  0.00    +0.155 HD
ENDBRANCH  22   9
ENDBRANCH  15  16
ENDBRANCH   7  15
TORSDOF 8
ENDMDL
MODEL 8
REMARK VINA RESULT:      -2.1      2.264      3.141
REMARK  Name = 75536663
REMARK  10 active torsions:
REMARK  status: ('A' for Active; 'I' for Inactive)
REMARK    1  A    between atoms: S_1  and  N_8
REMARK    2  A    between atoms: S_1  and  C_19
REMARK    3  A    between atoms: O_3  and  C_11
REMARK    4  A    between atoms: N_7  and  C_10
REMARK    5  A    between atoms: N_7  and  C_15
REMARK    6  A    between atoms: N_8  and  C_14
REMARK    7  A    between atoms: N_9  and  C_22
REMARK    8  A    between atoms: C_12  and  C_14
REMARK    9  A    between atoms: C_15  and  C_16
REMARK   10  A    between atoms: C_23  and  C_24
REMARK                            x       y       z     vdW  Elec       q    Type
REMARK                         _______ _______ _______ _____ _____    ______ ____
ROOT
ATOM      7  N   UNL     1      -3.838   3.143  23.282  0.00  0.00    -0.305 NA
ATOM     25  H   UNL     1      -4.454   3.601  22.610  0.00  0.00    +0.123 HD
ENDROOT
BRANCH   7  10
ATOM      2  O   UNL     1      -5.093   0.820  25.784  0.00  0.00    -0.371 OA
ATOM     10  C   UNL     1      -4.486   1.941  23.780  0.00  0.00    +0.111 C 
ATOM     11  C   UNL     1      -3.531   0.784  24.008  0.00  0.00    +0.164 C 
ATOM     12  C   UNL     1      -4.346  -0.086  24.954  0.00  0.00    +0.164 C 
ATOM     13  C   UNL     1      -5.080   2.119  25.167  0.00  0.00    +0.181 C 
BRANCH  11   3
ATOM      3  O   UNL     1      -3.206   0.101  22.812  0.00  0.00    -0.388 OA
ATOM     26  H   UNL     1      -3.904   0.276  22.159  0.00  0.00    +0.210 HD
ENDBRANCH  11   3
BRANCH  12  14
ATOM     14  C   UNL     1      -3.492  -0.991  25.824  0.00  0.00    +0.139 C 
BRANCH  14   8
ATOM      8  N   UNL     1      -2.080  -0.572  25.740  0.00  0.00    -0.192 NA
ATOM     27  H   UNL     1      -1.733  -0.132  26.603  0.00  0.00    +0.148 HD
BRANCH   8   1
ATOM      1  S   UNL     1      -0.970  -1.555  24.896  0.00  0.00    +0.027 S 
ATOM      4  O   UNL     1      -1.679  -2.410  23.965  0.00  0.00    -0.158 OA
ATOM      5  O   UNL     1      -0.034  -2.116  25.852  0.00  0.00    -0.158 OA
ATOM     19  C   UNL     1      -0.095  -0.327  23.955  0.00  0.00    +0.214 C 
ENDBRANCH   8   1
ENDBRANCH  14   8
ENDBRANCH  12  14
ENDBRANCH   7  10
BRANCH   7  15
ATOM     15  C   UNL     1      -3.549   4.072  24.368  0.00  0.00    +0.116 C 
BRANCH  15  16
ATOM     16  C   UNL     1      -2.303   3.686  25.119  0.00  0.00    -0.033 A 
ATOM     17  C   UNL     1      -1.099   3.522  24.434  0.00  0.00    +0.007 A 
ATOM     18  C   UNL     1      -2.351   3.493  26.500  0.00  0.00    +0.007 A 
ATOM     20  C   UNL     1       0.056   3.164  25.129  0.00  0.00    +0.023 A 
ATOM     21  C   UNL     1      -1.196   3.136  27.195  0.00  0.00    +0.023 A 
ATOM     22  C   UNL     1       0.008   2.971  26.509  0.00  0.00    +0.033 A 
BRANCH  22   9
ATOM      6  O   UNL     1       0.528   2.784  29.468  0.00  0.00    -0.276 OA
ATOM      9  N   UNL     1       1.163   2.613  27.205  0.00  0.00    -0.286 N 
ATOM     23  C   UNL     1       1.352   2.544  28.592  0.00  0.00    +0.214 C 
ATOM     24  C   UNL     1       2.753   2.112  28.944  0.00  0.00    +0.109 C 
ATOM     28  H   UNL     1       1.963   2.373  26.623  0.00  0.00    +0.155 HD
ENDBRANCH  22   9
ENDBRANCH  15  16
ENDBRANCH   7  15
TORSDOF 8
ENDMDL
MODEL 9
REMARK VINA RESULT:      -1.5      1.841      5.327
REMARK  Name = 75536663
REMARK  10 active torsions:
REMARK  status: ('A' for Active; 'I' for Inactive)
REMARK    1  A    between atoms: S_1  and  N_8
REMARK    2  A    between atoms: S_1  and  C_19
REMARK    3  A    between atoms: O_3  and  C_11
REMARK    4  A    between atoms: N_7  and  C_10
REMARK    5  A    between atoms: N_7  and  C_15
REMARK    6  A    between atoms: N_8  and  C_14
REMARK    7  A    between atoms: N_9  and  C_22
REMARK    8  A    between atoms: C_12  and  C_14
REMARK    9  A    between atoms: C_15  and  C_16
REMARK   10  A    between atoms: C_23  and  C_24
REMARK                            x       y       z     vdW  Elec       q    Type
REMARK                         _______ _______ _______ _____ _____    ______ ____
ROOT
ATOM      7  N   UNL     1       0.540   0.508  23.466  0.00  0.00    -0.305 NA
ATOM     25  H   UNL     1      -0.190   0.717  22.785  0.00  0.00    +0.123 HD
ENDROOT
BRANCH   7  10
ATOM      2  O   UNL     1      -1.306  -2.553  24.142  0.00  0.00    -0.371 OA
ATOM     10  C   UNL     1       0.185  -0.705  24.186  0.00  0.00    +0.111 C 
ATOM     11  C   UNL     1      -0.892  -0.496  25.234  0.00  0.00    +0.164 C 
ATOM     12  C   UNL     1      -1.389  -1.921  25.432  0.00  0.00    +0.164 C 
ATOM     13  C   UNL     1      -0.461  -1.754  23.296  0.00  0.00    +0.181 C 
BRANCH  11   3
ATOM      3  O   UNL     1      -0.385   0.056  26.435  0.00  0.00    -0.388 OA
ATOM     26  H   UNL     1      -1.120   0.141  27.066  0.00  0.00    +0.210 HD
ENDBRANCH  11   3
BRANCH  12  14
ATOM     14  C   UNL     1      -2.815  -1.995  25.947  0.00  0.00    +0.139 C 
BRANCH  14   8
ATOM      8  N   UNL     1      -3.503  -0.715  25.689  0.00  0.00    -0.192 NA
ATOM     27  H   UNL     1      -2.988   0.103  26.040  0.00  0.00    +0.148 HD
BRANCH   8   1
ATOM      1  S   UNL     1      -4.339  -0.504  24.217  0.00  0.00    +0.027 S 
ATOM      4  O   UNL     1      -3.447   0.051  23.219  0.00  0.00    -0.158 OA
ATOM      5  O   UNL     1      -5.616   0.123  24.500  0.00  0.00    -0.158 OA
ATOM     19  C   UNL     1      -4.663  -2.196  23.780  0.00  0.00    +0.214 C 
ENDBRANCH   8   1
ENDBRANCH  14   8
ENDBRANCH  12  14
ENDBRANCH   7  10
BRANCH   7  15
ATOM     15  C   UNL     1       0.676   1.638  24.376  0.00  0.00    +0.116 C 
BRANCH  15  16
ATOM     16  C   UNL     1      -0.620   2.387  24.537  0.00  0.00    -0.033 A 
ATOM     17  C   UNL     1      -0.847   3.150  25.683  0.00  0.00    +0.007 A 
ATOM     18  C   UNL     1      -1.595   2.320  23.541  0.00  0.00    +0.007 A 
ATOM     20  C   UNL     1      -2.047   3.844  25.834  0.00  0.00    +0.023 A 
ATOM     21  C   UNL     1      -2.795   3.014  23.691  0.00  0.00    +0.023 A 
ATOM     22  C   UNL     1      -3.021   3.776  24.838  0.00  0.00    +0.033 A 
BRANCH  22   9
ATOM      6  O   UNL     1      -5.623   2.929  26.092  0.00  0.00    -0.276 OA
ATOM      9  N   UNL     1      -4.222   4.469  24.988  0.00  0.00    -0.286 N 
ATOM     23  C   UNL     1      -5.411   4.024  25.582  0.00  0.00    +0.214 C 
ATOM     24  C   UNL     1      -6.486   5.081  25.545  0.00  0.00    +0.109 C 
ATOM     28  H   UNL     1      -4.226   5.417  24.616  0.00  0.00    +0.155 HD
ENDBRANCH  22   9
ENDBRANCH  15  16
ENDBRANCH   7  15
TORSDOF 8
ENDMDL
