MODEL 1
REMARK VINA RESULT:      -3.1      0.000      0.000
REMARK  Name = 38026421
REMARK  13 active torsions:
REMARK  status: ('A' for Active; 'I' for Inactive)
REMARK    1  A    between atoms: O_2  and  C_16
REMARK    2  A    between atoms: O_4  and  C_26
REMARK    3  A    between atoms: O_4  and  C_27
REMARK    4  A    between atoms: N_6  and  C_14
REMARK    5  A    between atoms: N_6  and  C_17
REMARK    6  A    between atoms: N_6  and  C_18
REMARK    7  A    between atoms: C_7  and  C_11
REMARK    8  A    between atoms: C_8  and  C_13
REMARK    9  A    between atoms: C_11  and  C_14
REMARK   10  A    between atoms: C_13  and  C_16
REMARK   11  A    between atoms: C_15  and  C_19
REMARK   12  A    between atoms: C_17  and  C_20
REMARK   13  A    between atoms: C_18  and  C_21
REMARK                            x       y       z     vdW  Elec       q    Type
REMARK                         _______ _______ _______ _____ _____    ______ ____
ROOT
ATOM      1  O   UNL     1      -1.415  -1.768  25.423  0.00  0.00    -0.270 OA
ATOM      5  N   UNL     1      -2.729  -0.388  24.065  0.00  0.00    -0.297 N 
ATOM      7  C   UNL     1      -3.648   1.860  23.533  0.00  0.00    +0.011 C 
ATOM      8  C   UNL     1      -5.007   1.399  24.119  0.00  0.00    +0.006 C 
ATOM      9  C   UNL     1      -4.824   0.292  25.170  0.00  0.00    +0.023 C 
ATOM     10  C   UNL     1      -2.857   0.641  23.023  0.00  0.00    +0.112 C 
ATOM     12  C   UNL     1      -3.996  -0.865  24.616  0.00  0.00    +0.108 C 
ATOM     15  C   UNL     1      -1.527  -0.911  24.547  0.00  0.00    +0.247 C 
ENDROOT
BRANCH  15  19
ATOM     19  C   UNL     1      -0.275  -0.408  23.970  0.00  0.00    +0.037 A 
ATOM     22  C   UNL     1       0.334   0.726  24.508  0.00  0.00    +0.016 A 
ATOM     23  C   UNL     1       0.304  -1.061  22.882  0.00  0.00    +0.016 A 
ATOM     24  C   UNL     1       1.523   1.205  23.959  0.00  0.00    +0.046 A 
ATOM     25  C   UNL     1       1.493  -0.581  22.333  0.00  0.00    +0.046 A 
ATOM     26  C   UNL     1       2.102   0.552  22.871  0.00  0.00    +0.120 A 
BRANCH  26   4
ATOM      4  O   UNL     1       3.263   1.021  22.336  0.00  0.00    -0.495 OA
ATOM     27  C   UNL     1       4.479   0.584  22.939  0.00  0.00    +0.277 C 
ENDBRANCH  26   4
ENDBRANCH  15  19
BRANCH   7  11
ATOM     11  C   UNL     1      -2.793   2.677  24.509  0.00  0.00    +0.020 C 
BRANCH  11  14
ATOM     14  C   UNL     1      -1.558   3.235  23.815  0.00  0.00    +0.084 C 
BRANCH  14   6
ATOM      6  N   UNL     1      -0.654   3.814  24.801  0.00  0.00    -0.303 NA
BRANCH   6  17
ATOM     17  C   UNL     1      -1.019   3.381  26.152  0.00  0.00    +0.081 C 
ATOM     20  C   UNL     1       0.150   2.701  26.844  0.00  0.00    +0.020 C 
ENDBRANCH   6  17
BRANCH   6  18
ATOM     18  C   UNL     1      -0.666   5.275  24.716  0.00  0.00    +0.081 C 
ATOM     21  C   UNL     1      -2.004   5.840  25.165  0.00  0.00    +0.020 C 
ENDBRANCH   6  18
ENDBRANCH  14   6
ENDBRANCH  11  14
ENDBRANCH   7  11
BRANCH   8  13
ATOM     13  C   UNL     1      -5.835   2.551  24.690  0.00  0.00    +0.124 C 
BRANCH  13  16
ATOM      3  O   UNL     1      -4.691   3.394  26.670  0.00  0.00    -0.251 OA
ATOM     16  C   UNL     1      -5.586   2.737  26.161  0.00  0.00    +0.305 C 
BRANCH  16   2
ATOM      2  O   UNL     1      -6.519   2.054  26.874  0.00  0.00    -0.481 OA
ATOM     28  H   UNL     1      -6.293   1.103  26.954  0.00  0.00    +0.295 HD
ENDBRANCH  16   2
ENDBRANCH  13  16
ENDBRANCH   8  13
TORSDOF 10
ENDMDL
MODEL 2
REMARK VINA RESULT:      -2.9      1.300      6.067
REMARK  Name = 38026421
REMARK  13 active torsions:
REMARK  status: ('A' for Active; 'I' for Inactive)
REMARK    1  A    between atoms: O_2  and  C_16
REMARK    2  A    between atoms: O_4  and  C_26
REMARK    3  A    between atoms: O_4  and  C_27
REMARK    4  A    between atoms: N_6  and  C_14
REMARK    5  A    between atoms: N_6  and  C_17
REMARK    6  A    between atoms: N_6  and  C_18
REMARK    7  A    between atoms: C_7  and  C_11
REMARK    8  A    between atoms: C_8  and  C_13
REMARK    9  A    between atoms: C_11  and  C_14
REMARK   10  A    between atoms: C_13  and  C_16
REMARK   11  A    between atoms: C_15  and  C_19
REMARK   12  A    between atoms: C_17  and  C_20
REMARK   13  A    between atoms: C_18  and  C_21
REMARK                            x       y       z     vdW  Elec       q    Type
REMARK                         _______ _______ _______ _____ _____    ______ ____
ROOT
ATOM      1  O   UNL     1      -4.429  -1.607  23.867  0.00  0.00    -0.270 OA
ATOM      5  N   UNL     1      -2.314  -0.827  24.493  0.00  0.00    -0.297 N 
ATOM      7  C   UNL     1      -0.353   0.641  24.073  0.00  0.00    +0.011 C 
ATOM      8  C   UNL     1       0.422  -0.605  23.573  0.00  0.00    +0.006 C 
ATOM      9  C   UNL     1      -0.529  -1.682  23.025  0.00  0.00    +0.023 C 
ATOM     10  C   UNL     1      -1.448   0.212  25.067  0.00  0.00    +0.112 C 
ATOM     12  C   UNL     1      -1.615  -2.028  24.040  0.00  0.00    +0.108 C 
ATOM     15  C   UNL     1      -3.701  -0.743  24.352  0.00  0.00    +0.247 C 
ENDROOT
BRANCH  15  19
ATOM     19  C   UNL     1      -4.369   0.479  24.817  0.00  0.00    +0.037 A 
ATOM     22  C   UNL     1      -4.123   1.694  24.178  0.00  0.00    +0.016 A 
ATOM     23  C   UNL     1      -5.246   0.425  25.900  0.00  0.00    +0.016 A 
ATOM     24  C   UNL     1      -4.756   2.855  24.621  0.00  0.00    +0.046 A 
ATOM     25  C   UNL     1      -5.879   1.586  26.343  0.00  0.00    +0.046 A 
ATOM     26  C   UNL     1      -5.634   2.801  25.704  0.00  0.00    +0.120 A 
BRANCH  26   4
ATOM      4  O   UNL     1      -6.251   3.935  26.136  0.00  0.00    -0.495 OA
ATOM     27  C   UNL     1      -6.010   5.129  25.395  0.00  0.00    +0.277 C 
ENDBRANCH  26   4
ENDBRANCH  15  19
BRANCH   7  11
ATOM     11  C   UNL     1      -0.958   1.491  22.948  0.00  0.00    +0.020 C 
BRANCH  11  14
ATOM     14  C   UNL     1      -1.526   2.792  23.497  0.00  0.00    +0.084 C 
BRANCH  14   6
ATOM      6  N   UNL     1      -0.589   3.378  24.449  0.00  0.00    -0.303 NA
BRANCH   6  17
ATOM     17  C   UNL     1      -0.995   3.075  25.824  0.00  0.00    +0.081 C 
ATOM     20  C   UNL     1       0.203   2.692  26.677  0.00  0.00    +0.020 C 
ENDBRANCH   6  17
BRANCH   6  18
ATOM     18  C   UNL     1      -0.495   4.826  24.255  0.00  0.00    +0.081 C 
ATOM     21  C   UNL     1      -1.551   5.558  25.067  0.00  0.00    +0.020 C 
ENDBRANCH   6  18
ENDBRANCH  14   6
ENDBRANCH  11  14
ENDBRANCH   7  11
BRANCH   8  13
ATOM     13  C   UNL     1       1.502  -0.267  22.544  0.00  0.00    +0.124 C 
BRANCH  13  16
ATOM      3  O   UNL     1       3.587  -1.008  23.566  0.00  0.00    -0.251 OA
ATOM     16  C   UNL     1       2.852  -0.109  23.189  0.00  0.00    +0.305 C 
BRANCH  16   2
ATOM      2  O   UNL     1       3.154   1.210  23.301  0.00  0.00    -0.481 OA
ATOM     28  H   UNL     1       2.456   1.706  23.779  0.00  0.00    +0.295 HD
ENDBRANCH  16   2
ENDBRANCH  13  16
ENDBRANCH   8  13
TORSDOF 10
ENDMDL
MODEL 3
REMARK VINA RESULT:      -2.3      1.803      7.299
REMARK  Name = 38026421
REMARK  13 active torsions:
REMARK  status: ('A' for Active; 'I' for Inactive)
REMARK    1  A    between atoms: O_2  and  C_16
REMARK    2  A    between atoms: O_4  and  C_26
REMARK    3  A    between atoms: O_4  and  C_27
REMARK    4  A    between atoms: N_6  and  C_14
REMARK    5  A    between atoms: N_6  and  C_17
REMARK    6  A    between atoms: N_6  and  C_18
REMARK    7  A    between atoms: C_7  and  C_11
REMARK    8  A    between atoms: C_8  and  C_13
REMARK    9  A    between atoms: C_11  and  C_14
REMARK   10  A    between atoms: C_13  and  C_16
REMARK   11  A    between atoms: C_15  and  C_19
REMARK   12  A    between atoms: C_17  and  C_20
REMARK   13  A    between atoms: C_18  and  C_21
REMARK                            x       y       z     vdW  Elec       q    Type
REMARK                         _______ _______ _______ _____ _____    ______ ____
ROOT
ATOM      1  O   UNL     1      -0.612   4.914  25.019  0.00  0.00    -0.270 OA
ATOM      5  N   UNL     1      -0.589   2.952  23.744  0.00  0.00    -0.297 N 
ATOM      7  C   UNL     1      -0.458   0.473  23.614  0.00  0.00    +0.011 C 
ATOM      8  C   UNL     1       1.012   0.616  23.143  0.00  0.00    +0.006 C 
ATOM      9  C   UNL     1       1.646   1.920  23.653  0.00  0.00    +0.023 C 
ATOM     10  C   UNL     1      -1.252   1.739  23.243  0.00  0.00    +0.112 C 
ATOM     12  C   UNL     1       0.789   3.130  23.291  0.00  0.00    +0.108 C 
ATOM     15  C   UNL     1      -1.165   3.901  24.593  0.00  0.00    +0.247 C 
ENDROOT
BRANCH  15  19
ATOM     19  C   UNL     1      -2.550   3.688  25.027  0.00  0.00    +0.037 A 
ATOM     22  C   UNL     1      -3.518   3.298  24.102  0.00  0.00    +0.016 A 
ATOM     23  C   UNL     1      -2.899   3.879  26.364  0.00  0.00    +0.016 A 
ATOM     24  C   UNL     1      -4.835   3.098  24.514  0.00  0.00    +0.046 A 
ATOM     25  C   UNL     1      -4.217   3.679  26.776  0.00  0.00    +0.046 A 
ATOM     26  C   UNL     1      -5.185   3.289  25.851  0.00  0.00    +0.120 A 
BRANCH  26   4
ATOM      4  O   UNL     1      -6.470   3.093  26.253  0.00  0.00    -0.495 OA
ATOM     27  C   UNL     1      -6.788   1.823  26.820  0.00  0.00    +0.277 C 
ENDBRANCH  26   4
ENDBRANCH  15  19
BRANCH   7  11
ATOM     11  C   UNL     1      -0.606   0.172  25.111  0.00  0.00    +0.020 C 
BRANCH  11  14
ATOM     14  C   UNL     1      -1.028  -1.273  25.335  0.00  0.00    +0.084 C 
BRANCH  14   6
ATOM      6  N   UNL     1      -2.365  -1.488  24.794  0.00  0.00    -0.303 NA
BRANCH   6  17
ATOM     17  C   UNL     1      -3.385  -1.139  25.785  0.00  0.00    +0.081 C 
ATOM     20  C   UNL     1      -4.330  -0.077  25.250  0.00  0.00    +0.020 C 
ENDBRANCH   6  17
BRANCH   6  18
ATOM     18  C   UNL     1      -2.530  -2.878  24.364  0.00  0.00    +0.081 C 
ATOM     21  C   UNL     1      -3.953  -3.145  23.905  0.00  0.00    +0.020 C 
ENDBRANCH   6  18
ENDBRANCH  14   6
ENDBRANCH  11  14
ENDBRANCH   7  11
BRANCH   8  13
ATOM     13  C   UNL     1       1.880  -0.587  23.515  0.00  0.00    +0.124 C 
BRANCH  13  16
ATOM      3  O   UNL     1       3.740   0.447  22.326  0.00  0.00    -0.251 OA
ATOM     16  C   UNL     1       3.317  -0.375  23.124  0.00  0.00    +0.305 C 
BRANCH  16   2
ATOM      2  O   UNL     1       4.109  -1.249  23.797  0.00  0.00    -0.481 OA
ATOM     28  H   UNL     1       3.585  -1.852  24.366  0.00  0.00    +0.295 HD
ENDBRANCH  16   2
ENDBRANCH  13  16
ENDBRANCH   8  13
TORSDOF 10
ENDMDL
MODEL 4
REMARK VINA RESULT:      -2.0     18.425     20.429
REMARK  Name = 38026421
REMARK  13 active torsions:
REMARK  status: ('A' for Active; 'I' for Inactive)
REMARK    1  A    between atoms: O_2  and  C_16
REMARK    2  A    between atoms: O_4  and  C_26
REMARK    3  A    between atoms: O_4  and  C_27
REMARK    4  A    between atoms: N_6  and  C_14
REMARK    5  A    between atoms: N_6  and  C_17
REMARK    6  A    between atoms: N_6  and  C_18
REMARK    7  A    between atoms: C_7  and  C_11
REMARK    8  A    between atoms: C_8  and  C_13
REMARK    9  A    between atoms: C_11  and  C_14
REMARK   10  A    between atoms: C_13  and  C_16
REMARK   11  A    between atoms: C_15  and  C_19
REMARK   12  A    between atoms: C_17  and  C_20
REMARK   13  A    between atoms: C_18  and  C_21
REMARK                            x       y       z     vdW  Elec       q    Type
REMARK                         _______ _______ _______ _____ _____    ______ ____
ROOT
ATOM      1  O   UNL     1      14.751  -8.537  25.809  0.00  0.00    -0.270 OA
ATOM      5  N   UNL     1      16.482  -7.158  26.570  0.00  0.00    -0.297 N 
ATOM      7  C   UNL     1      17.246  -5.201  27.900  0.00  0.00    +0.011 C 
ATOM      8  C   UNL     1      17.405  -4.414  26.575  0.00  0.00    +0.006 C 
ATOM      9  C   UNL     1      16.465  -4.947  25.481  0.00  0.00    +0.023 C 
ATOM     10  C   UNL     1      17.394  -6.711  27.633  0.00  0.00    +0.112 C 
ATOM     12  C   UNL     1      16.630  -6.454  25.298  0.00  0.00    +0.108 C 
ATOM     15  C   UNL     1      15.520  -8.164  26.694  0.00  0.00    +0.247 C 
ENDROOT
BRANCH  15  19
ATOM     19  C   UNL     1      15.400  -8.848  27.986  0.00  0.00    +0.037 A 
ATOM     22  C   UNL     1      14.733  -8.229  29.044  0.00  0.00    +0.016 A 
ATOM     23  C   UNL     1      15.956 -10.116  28.159  0.00  0.00    +0.016 A 
ATOM     24  C   UNL     1      14.620  -8.879  30.272  0.00  0.00    +0.046 A 
ATOM     25  C   UNL     1      15.843 -10.765  29.388  0.00  0.00    +0.046 A 
ATOM     26  C   UNL     1      15.176 -10.147  30.445  0.00  0.00    +0.120 A 
BRANCH  26   4
ATOM      4  O   UNL     1      15.065 -10.780  31.645  0.00  0.00    -0.495 OA
ATOM     27  C   UNL     1      14.012 -10.357  32.508  0.00  0.00    +0.277 C 
ENDBRANCH  26   4
ENDBRANCH  15  19
BRANCH   7  11
ATOM     11  C   UNL     1      15.932  -4.918  28.639  0.00  0.00    +0.020 C 
BRANCH  11  14
ATOM     14  C   UNL     1      16.197  -4.264  29.987  0.00  0.00    +0.084 C 
BRANCH  14   6
ATOM      6  N   UNL     1      15.785  -5.159  31.062  0.00  0.00    -0.303 NA
BRANCH   6  17
ATOM     17  C   UNL     1      14.745  -4.536  31.882  0.00  0.00    +0.081 C 
ATOM     20  C   UNL     1      13.360  -4.980  31.442  0.00  0.00    +0.020 C 
ENDBRANCH   6  17
BRANCH   6  18
ATOM     18  C   UNL     1      16.933  -5.529  31.892  0.00  0.00    +0.081 C 
ATOM     21  C   UNL     1      16.914  -7.011  32.226  0.00  0.00    +0.020 C 
ENDBRANCH   6  18
ENDBRANCH  14   6
ENDBRANCH  11  14
ENDBRANCH   7  11
BRANCH   8  13
ATOM     13  C   UNL     1      17.227  -2.905  26.749  0.00  0.00    +0.124 C 
BRANCH  13  16
ATOM      3  O   UNL     1      17.050  -2.734  24.324  0.00  0.00    -0.251 OA
ATOM     16  C   UNL     1      17.007  -2.217  25.429  0.00  0.00    +0.305 C 
BRANCH  16   2
ATOM      2  O   UNL     1      16.748  -0.900  25.637  0.00  0.00    -0.481 OA
ATOM     28  H   UNL     1      15.804  -0.685  25.483  0.00  0.00    +0.295 HD
ENDBRANCH  16   2
ENDBRANCH  13  16
ENDBRANCH   8  13
TORSDOF 10
ENDMDL
MODEL 5
REMARK VINA RESULT:      -1.4      1.745      4.064
REMARK  Name = 38026421
REMARK  13 active torsions:
REMARK  status: ('A' for Active; 'I' for Inactive)
REMARK    1  A    between atoms: O_2  and  C_16
REMARK    2  A    between atoms: O_4  and  C_26
REMARK    3  A    between atoms: O_4  and  C_27
REMARK    4  A    between atoms: N_6  and  C_14
REMARK    5  A    between atoms: N_6  and  C_17
REMARK    6  A    between atoms: N_6  and  C_18
REMARK    7  A    between atoms: C_7  and  C_11
REMARK    8  A    between atoms: C_8  and  C_13
REMARK    9  A    between atoms: C_11  and  C_14
REMARK   10  A    between atoms: C_13  and  C_16
REMARK   11  A    between atoms: C_15  and  C_19
REMARK   12  A    between atoms: C_17  and  C_20
REMARK   13  A    between atoms: C_18  and  C_21
REMARK                            x       y       z     vdW  Elec       q    Type
REMARK                         _______ _______ _______ _____ _____    ______ ____
ROOT
ATOM      1  O   UNL     1       0.192   4.238  23.379  0.00  0.00    -0.270 OA
ATOM      5  N   UNL     1      -1.158   2.912  24.755  0.00  0.00    -0.297 N 
ATOM      7  C   UNL     1      -2.905   1.162  25.010  0.00  0.00    +0.011 C 
ATOM      8  C   UNL     1      -3.920   2.282  25.351  0.00  0.00    +0.006 C 
ATOM      9  C   UNL     1      -3.516   3.624  24.719  0.00  0.00    +0.023 C 
ATOM     10  C   UNL     1      -1.480   1.618  25.375  0.00  0.00    +0.112 C 
ATOM     12  C   UNL     1      -2.081   3.996  25.083  0.00  0.00    +0.108 C 
ATOM     15  C   UNL     1      -0.077   3.159  23.904  0.00  0.00    +0.247 C 
ENDROOT
BRANCH  15  19
ATOM     19  C   UNL     1       0.828   2.046  23.597  0.00  0.00    +0.037 A 
ATOM     22  C   UNL     1       2.204   2.263  23.536  0.00  0.00    +0.016 A 
ATOM     23  C   UNL     1       0.312   0.771  23.364  0.00  0.00    +0.016 A 
ATOM     24  C   UNL     1       3.065   1.206  23.242  0.00  0.00    +0.046 A 
ATOM     25  C   UNL     1       1.173  -0.287  23.071  0.00  0.00    +0.046 A 
ATOM     26  C   UNL     1       2.549  -0.069  23.009  0.00  0.00    +0.120 A 
BRANCH  26   4
ATOM      4  O   UNL     1       3.389  -1.101  22.723  0.00  0.00    -0.495 OA
ATOM     27  C   UNL     1       4.381  -1.420  23.697  0.00  0.00    +0.277 C 
ENDBRANCH  26   4
ENDBRANCH  15  19
BRANCH   7  11
ATOM     11  C   UNL     1      -2.957   0.696  23.550  0.00  0.00    +0.020 C 
BRANCH  11  14
ATOM     14  C   UNL     1      -3.290  -0.787  23.464  0.00  0.00    +0.084 C 
BRANCH  14   6
ATOM      6  N   UNL     1      -2.773  -1.479  24.639  0.00  0.00    -0.303 NA
BRANCH   6  17
ATOM     17  C   UNL     1      -1.431  -2.004  24.380  0.00  0.00    +0.081 C 
ATOM     20  C   UNL     1      -0.552  -1.895  25.614  0.00  0.00    +0.020 C 
ENDBRANCH   6  17
BRANCH   6  18
ATOM     18  C   UNL     1      -3.675  -2.561  25.037  0.00  0.00    +0.081 C 
ATOM     21  C   UNL     1      -4.451  -3.095  23.845  0.00  0.00    +0.020 C 
ENDBRANCH   6  18
ENDBRANCH  14   6
ENDBRANCH  11  14
ENDBRANCH   7  11
BRANCH   8  13
ATOM     13  C   UNL     1      -5.358   1.921  24.977  0.00  0.00    +0.124 C 
BRANCH  13  16
ATOM      3  O   UNL     1      -6.940   1.649  26.812  0.00  0.00    -0.251 OA
ATOM     16  C   UNL     1      -6.334   2.367  26.031  0.00  0.00    +0.305 C 
BRANCH  16   2
ATOM      2  O   UNL     1      -6.457   3.719  26.000  0.00  0.00    -0.481 OA
ATOM     28  H   UNL     1      -5.909   4.119  25.292  0.00  0.00    +0.295 HD
ENDBRANCH  16   2
ENDBRANCH  13  16
ENDBRANCH   8  13
TORSDOF 10
ENDMDL
MODEL 6
REMARK VINA RESULT:       0.4      2.747      5.298
REMARK  Name = 38026421
REMARK  13 active torsions:
REMARK  status: ('A' for Active; 'I' for Inactive)
REMARK    1  A    between atoms: O_2  and  C_16
REMARK    2  A    between atoms: O_4  and  C_26
REMARK    3  A    between atoms: O_4  and  C_27
REMARK    4  A    between atoms: N_6  and  C_14
REMARK    5  A    between atoms: N_6  and  C_17
REMARK    6  A    between atoms: N_6  and  C_18
REMARK    7  A    between atoms: C_7  and  C_11
REMARK    8  A    between atoms: C_8  and  C_13
REMARK    9  A    between atoms: C_11  and  C_14
REMARK   10  A    between atoms: C_13  and  C_16
REMARK   11  A    between atoms: C_15  and  C_19
REMARK   12  A    between atoms: C_17  and  C_20
REMARK   13  A    between atoms: C_18  and  C_21
REMARK                            x       y       z     vdW  Elec       q    Type
REMARK                         _______ _______ _______ _____ _____    ______ ____
ROOT
ATOM      1  O   UNL     1       0.725   1.828  26.775  0.00  0.00    -0.270 OA
ATOM      5  N   UNL     1      -0.500   0.689  25.139  0.00  0.00    -0.297 N 
ATOM      7  C   UNL     1      -2.648  -0.278  24.345  0.00  0.00    +0.011 C 
ATOM      8  C   UNL     1      -2.099  -1.684  24.696  0.00  0.00    +0.006 C 
ATOM      9  C   UNL     1      -1.045  -1.617  25.814  0.00  0.00    +0.023 C 
ATOM     10  C   UNL     1      -1.480   0.680  24.043  0.00  0.00    +0.112 C 
ATOM     12  C   UNL     1       0.059  -0.619  25.473  0.00  0.00    +0.108 C 
ATOM     15  C   UNL     1      -0.091   1.817  25.854  0.00  0.00    +0.247 C 
ENDROOT
BRANCH  15  19
ATOM     19  C   UNL     1      -0.674   3.113  25.491  0.00  0.00    +0.037 A 
ATOM     22  C   UNL     1      -1.806   3.581  26.159  0.00  0.00    +0.016 A 
ATOM     23  C   UNL     1      -0.098   3.877  24.475  0.00  0.00    +0.016 A 
ATOM     24  C   UNL     1      -2.361   4.812  25.812  0.00  0.00    +0.046 A 
ATOM     25  C   UNL     1      -0.654   5.108  24.129  0.00  0.00    +0.046 A 
ATOM     26  C   UNL     1      -1.785   5.576  24.797  0.00  0.00    +0.120 A 
BRANCH  26   4
ATOM      4  O   UNL     1      -2.328   6.778  24.459  0.00  0.00    -0.495 OA
ATOM     27  C   UNL     1      -3.148   6.816  23.293  0.00  0.00    +0.277 C 
ENDBRANCH  26   4
ENDBRANCH  15  19
BRANCH   7  11
ATOM     11  C   UNL     1      -3.563   0.321  25.420  0.00  0.00    +0.020 C 
BRANCH  11  14
ATOM     14  C   UNL     1      -4.735   1.057  24.787  0.00  0.00    +0.084 C 
BRANCH  14   6
ATOM      6  N   UNL     1      -4.552   2.497  24.931  0.00  0.00    -0.303 NA
BRANCH   6  17
ATOM     17  C   UNL     1      -5.582   3.063  25.805  0.00  0.00    +0.081 C 
ATOM     20  C   UNL     1      -6.414   1.969  26.452  0.00  0.00    +0.020 C 
ENDBRANCH   6  17
BRANCH   6  18
ATOM     18  C   UNL     1      -4.579   3.153  23.623  0.00  0.00    +0.081 C 
ATOM     21  C   UNL     1      -3.341   2.810  22.812  0.00  0.00    +0.020 C 
ENDBRANCH   6  18
ENDBRANCH  14   6
ENDBRANCH  11  14
ENDBRANCH   7  11
BRANCH   8  13
ATOM     13  C   UNL     1      -3.199  -2.685  25.053  0.00  0.00    +0.124 C 
BRANCH  13  16
ATOM      3  O   UNL     1      -5.050  -2.284  23.518  0.00  0.00    -0.251 OA
ATOM     16  C   UNL     1      -4.099  -2.960  23.880  0.00  0.00    +0.305 C 
BRANCH  16   2
ATOM      2  O   UNL     1      -3.702  -4.099  23.255  0.00  0.00    -0.481 OA
ATOM     28  H   UNL     1      -4.426  -4.499  22.729  0.00  0.00    +0.295 HD
ENDBRANCH  16   2
ENDBRANCH  13  16
ENDBRANCH   8  13
TORSDOF 10
ENDMDL
