MODEL 1
REMARK VINA RESULT:       4.1      0.000      0.000
REMARK  Name = 25389730
REMARK  8 active torsions:
REMARK  status: ('A' for Active; 'I' for Inactive)
REMARK    1  A    between atoms: O_2  and  C_20
REMARK    2  A    between atoms: O_2  and  C_32
REMARK    3  A    between atoms: O_4  and  C_26
REMARK    4  A    between atoms: N_7  and  C_11
REMARK    5  A    between atoms: N_7  and  C_21
REMARK    6  A    between atoms: C_9  and  C_17
REMARK    7  A    between atoms: C_13  and  C_20
REMARK    8  A    between atoms: C_21  and  C_26
REMARK                            x       y       z     vdW  Elec       q    Type
REMARK                         _______ _______ _______ _____ _____    ______ ____
ROOT
ATOM      5  N   UNL     1      -1.976   1.104  24.382  0.00  0.00    -0.274 NA
ATOM      6  N   UNL     1       1.056  -0.938  23.519  0.00  0.00    -0.356 N 
ATOM      8  C   UNL     1      -1.356  -0.171  23.909  0.00  0.00    +0.106 C 
ATOM      9  C   UNL     1      -3.440   0.966  24.592  0.00  0.00    +0.093 C 
ATOM     10  C   UNL     1      -1.616  -1.307  24.911  0.00  0.00    +0.044 C 
ATOM     11  C   UNL     1      -3.118  -1.508  25.112  0.00  0.00    +0.057 C 
ATOM     12  C   UNL     1      -3.756  -0.195  25.565  0.00  0.00    +0.042 C 
ATOM     13  C   UNL     1      -1.570   2.283  23.568  0.00  0.00    +0.172 C 
ATOM     14  C   UNL     1       0.111   0.037  23.679  0.00  0.00    +0.038 A 
ATOM     15  C   UNL     1      -0.041   2.533  23.605  0.00  0.00    +0.068 C 
ATOM     16  C   UNL     1       0.726   1.260  23.519  0.00  0.00    -0.016 A 
ATOM     18  C   UNL     1       2.109   1.024  23.288  0.00  0.00    +0.003 A 
ATOM     19  C   UNL     1       2.289  -0.362  23.295  0.00  0.00    +0.047 A 
ATOM     24  C   UNL     1       3.229   1.852  23.070  0.00  0.00    +0.010 A 
ATOM     25  C   UNL     1       3.538  -0.962  23.094  0.00  0.00    +0.026 A 
ATOM     27  C   UNL     1       4.483   1.265  22.870  0.00  0.00    +0.001 A 
ATOM     30  C   UNL     1       4.633  -0.121  22.882  0.00  0.00    +0.002 A 
ATOM     33  H   UNL     1       0.886  -1.933  23.562  0.00  0.00    +0.166 HD
ENDROOT
BRANCH   9  17
ATOM      1  F   UNL     1      -6.256   1.369  24.575  0.00  0.00    -0.205 F 
ATOM     17  C   UNL     1      -4.113   2.222  25.138  0.00  0.00    +0.005 A 
ATOM     22  C   UNL     1      -5.502   2.348  25.095  0.00  0.00    +0.128 A 
ATOM     23  C   UNL     1      -3.337   3.246  25.681  0.00  0.00    +0.008 A 
ATOM     28  C   UNL     1      -6.114   3.496  25.595  0.00  0.00    +0.038 A 
ATOM     29  C   UNL     1      -3.950   4.395  26.181  0.00  0.00    +0.000 A 
ATOM     31  C   UNL     1      -5.339   4.520  26.139  0.00  0.00    +0.003 A 
ENDBRANCH   9  17
BRANCH  13  20
ATOM      3  O   UNL     1      -1.922   1.124  21.483  0.00  0.00    -0.249 OA
ATOM     20  C   UNL     1      -2.056   2.139  22.154  0.00  0.00    +0.325 C 
BRANCH  20   2
ATOM      2  O   UNL     1      -2.655   3.298  21.757  0.00  0.00    -0.467 OA
ATOM     32  C   UNL     1      -4.035   3.430  22.112  0.00  0.00    +0.280 C 
ENDBRANCH  20   2
ENDBRANCH  13  20
BRANCH  11   7
ATOM      7  N   UNL     1      -3.357  -2.568  26.091  0.00  0.00    -0.311 NA
ATOM     34  H   UNL     1      -2.544  -2.667  26.699  0.00  0.00    +0.122 HD
BRANCH   7  21
ATOM     21  C   UNL     1      -3.602  -3.838  25.426  0.00  0.00    +0.109 C 
BRANCH  21  26
ATOM     26  C   UNL     1      -3.652  -3.655  23.918  0.00  0.00    +0.171 C 
BRANCH  26   4
ATOM      4  O   UNL     1      -4.801  -2.887  23.588  0.00  0.00    -0.394 OA
ATOM     35  H   UNL     1      -5.509  -3.158  24.195  0.00  0.00    +0.209 HD
ENDBRANCH  26   4
ENDBRANCH  21  26
ENDBRANCH   7  21
ENDBRANCH  11   7
TORSDOF 7
ENDMDL
MODEL 2
REMARK VINA RESULT:       5.0      2.459      6.475
REMARK  Name = 25389730
REMARK  8 active torsions:
REMARK  status: ('A' for Active; 'I' for Inactive)
REMARK    1  A    between atoms: O_2  and  C_20
REMARK    2  A    between atoms: O_2  and  C_32
REMARK    3  A    between atoms: O_4  and  C_26
REMARK    4  A    between atoms: N_7  and  C_11
REMARK    5  A    between atoms: N_7  and  C_21
REMARK    6  A    between atoms: C_9  and  C_17
REMARK    7  A    between atoms: C_13  and  C_20
REMARK    8  A    between atoms: C_21  and  C_26
REMARK                            x       y       z     vdW  Elec       q    Type
REMARK                         _______ _______ _______ _____ _____    ______ ____
ROOT
ATOM      5  N   UNL     1      -0.724   0.983  24.327  0.00  0.00    -0.274 NA
ATOM      6  N   UNL     1      -4.149   1.724  25.678  0.00  0.00    -0.356 N 
ATOM      8  C   UNL     1      -1.841   0.691  25.276  0.00  0.00    +0.106 C 
ATOM      9  C   UNL     1       0.350  -0.040  24.400  0.00  0.00    +0.093 C 
ATOM     10  C   UNL     1      -2.445  -0.693  24.997  0.00  0.00    +0.044 C 
ATOM     11  C   UNL     1      -1.374  -1.777  25.113  0.00  0.00    +0.057 C 
ATOM     12  C   UNL     1      -0.218  -1.461  24.165  0.00  0.00    +0.042 C 
ATOM     13  C   UNL     1      -0.250   2.392  24.405  0.00  0.00    +0.172 C 
ATOM     14  C   UNL     1      -2.875   1.774  25.187  0.00  0.00    +0.038 A 
ATOM     15  C   UNL     1      -1.362   3.414  24.056  0.00  0.00    +0.068 C 
ATOM     16  C   UNL     1      -2.670   3.027  24.651  0.00  0.00    -0.016 A 
ATOM     18  C   UNL     1      -3.880   3.760  24.788  0.00  0.00    +0.003 A 
ATOM     19  C   UNL     1      -4.792   2.920  25.434  0.00  0.00    +0.047 A 
ATOM     24  C   UNL     1      -4.293   5.060  24.431  0.00  0.00    +0.010 A 
ATOM     25  C   UNL     1      -6.099   3.317  25.739  0.00  0.00    +0.026 A 
ATOM     27  C   UNL     1      -5.598   5.468  24.730  0.00  0.00    +0.001 A 
ATOM     30  C   UNL     1      -6.485   4.609  25.374  0.00  0.00    +0.002 A 
ATOM     33  H   UNL     1      -4.567   0.932  26.147  0.00  0.00    +0.166 HD
ENDROOT
BRANCH   9  17
ATOM      1  F   UNL     1       0.269  -0.960  21.708  0.00  0.00    -0.205 F 
ATOM     17  C   UNL     1       1.486   0.174  23.403  0.00  0.00    +0.005 A 
ATOM     22  C   UNL     1       1.373  -0.306  22.098  0.00  0.00    +0.128 A 
ATOM     23  C   UNL     1       2.638   0.852  23.799  0.00  0.00    +0.008 A 
ATOM     28  C   UNL     1       2.412  -0.109  21.190  0.00  0.00    +0.038 A 
ATOM     29  C   UNL     1       3.677   1.051  22.890  0.00  0.00    +0.000 A 
ATOM     31  C   UNL     1       3.564   0.570  21.586  0.00  0.00    +0.003 A 
ENDBRANCH   9  17
BRANCH  13  20
ATOM      3  O   UNL     1       1.028   3.652  26.015  0.00  0.00    -0.249 OA
ATOM     20  C   UNL     1       0.334   2.677  25.759  0.00  0.00    +0.325 C 
BRANCH  20   2
ATOM      2  O   UNL     1      -0.028   1.690  26.628  0.00  0.00    -0.467 OA
ATOM     32  C   UNL     1       0.279   1.939  28.004  0.00  0.00    +0.280 C 
ENDBRANCH  20   2
ENDBRANCH  13  20
BRANCH  11   7
ATOM      7  N   UNL     1      -1.949  -3.088  24.813  0.00  0.00    -0.311 NA
ATOM     34  H   UNL     1      -1.759  -3.336  23.842  0.00  0.00    +0.122 HD
BRANCH   7  21
ATOM     21  C   UNL     1      -3.388  -3.080  25.021  0.00  0.00    +0.109 C 
BRANCH  21  26
ATOM     26  C   UNL     1      -4.119  -2.847  23.708  0.00  0.00    +0.171 C 
BRANCH  26   4
ATOM      4  O   UNL     1      -4.775  -1.588  23.767  0.00  0.00    -0.394 OA
ATOM     35  H   UNL     1      -5.139  -1.497  24.664  0.00  0.00    +0.209 HD
ENDBRANCH  26   4
ENDBRANCH  21  26
ENDBRANCH   7  21
ENDBRANCH  11   7
TORSDOF 7
ENDMDL
MODEL 3
REMARK VINA RESULT:       6.7      3.170      6.225
REMARK  Name = 25389730
REMARK  8 active torsions:
REMARK  status: ('A' for Active; 'I' for Inactive)
REMARK    1  A    between atoms: O_2  and  C_20
REMARK    2  A    between atoms: O_2  and  C_32
REMARK    3  A    between atoms: O_4  and  C_26
REMARK    4  A    between atoms: N_7  and  C_11
REMARK    5  A    between atoms: N_7  and  C_21
REMARK    6  A    between atoms: C_9  and  C_17
REMARK    7  A    between atoms: C_13  and  C_20
REMARK    8  A    between atoms: C_21  and  C_26
REMARK                            x       y       z     vdW  Elec       q    Type
REMARK                         _______ _______ _______ _____ _____    ______ ____
ROOT
ATOM      5  N   UNL     1      -1.171   1.520  25.933  0.00  0.00    -0.274 NA
ATOM      6  N   UNL     1      -3.877  -0.090  23.886  0.00  0.00    -0.356 N 
ATOM      8  C   UNL     1      -2.222   1.595  24.873  0.00  0.00    +0.106 C 
ATOM      9  C   UNL     1      -0.595   2.853  26.242  0.00  0.00    +0.093 C 
ATOM     10  C   UNL     1      -3.353   2.546  25.295  0.00  0.00    +0.044 C 
ATOM     11  C   UNL     1      -2.800   3.944  25.575  0.00  0.00    +0.057 C 
ATOM     12  C   UNL     1      -1.703   3.860  26.635  0.00  0.00    +0.042 C 
ATOM     13  C   UNL     1      -0.167   0.450  25.678  0.00  0.00    +0.172 C 
ATOM     14  C   UNL     1      -2.739   0.220  24.575  0.00  0.00    +0.038 A 
ATOM     15  C   UNL     1      -0.802  -0.963  25.628  0.00  0.00    +0.068 C 
ATOM     16  C   UNL     1      -2.097  -0.957  24.895  0.00  0.00    -0.016 A 
ATOM     18  C   UNL     1      -2.894  -2.031  24.412  0.00  0.00    +0.003 A 
ATOM     19  C   UNL     1      -4.005  -1.459  23.785  0.00  0.00    +0.047 A 
ATOM     24  C   UNL     1      -2.781  -3.436  24.442  0.00  0.00    +0.010 A 
ATOM     25  C   UNL     1      -5.011  -2.227  23.185  0.00  0.00    +0.026 A 
ATOM     27  C   UNL     1      -3.781  -4.214  23.848  0.00  0.00    +0.001 A 
ATOM     30  C   UNL     1      -4.878  -3.617  23.230  0.00  0.00    +0.002 A 
ATOM     33  H   UNL     1      -4.534   0.578  23.506  0.00  0.00    +0.166 HD
ENDROOT
BRANCH   9  17
ATOM      1  F   UNL     1      -1.281   2.777  29.003  0.00  0.00    -0.205 F 
ATOM     17  C   UNL     1       0.438   2.842  27.366  0.00  0.00    +0.005 A 
ATOM     22  C   UNL     1       0.025   2.804  28.697  0.00  0.00    +0.128 A 
ATOM     23  C   UNL     1       1.798   2.870  27.058  0.00  0.00    +0.008 A 
ATOM     28  C   UNL     1       0.971   2.794  29.721  0.00  0.00    +0.038 A 
ATOM     29  C   UNL     1       2.745   2.859  28.083  0.00  0.00    +0.000 A 
ATOM     31  C   UNL     1       2.331   2.821  29.414  0.00  0.00    +0.003 A 
ENDBRANCH   9  17
BRANCH  13  20
ATOM      3  O   UNL     1       1.070   1.833  24.138  0.00  0.00    -0.249 OA
ATOM     20  C   UNL     1       0.600   0.738  24.418  0.00  0.00    +0.325 C 
BRANCH  20   2
ATOM      2  O   UNL     1       0.680  -0.395  23.663  0.00  0.00    -0.467 OA
ATOM     32  C   UNL     1       1.421  -0.271  22.446  0.00  0.00    +0.280 C 
ENDBRANCH  20   2
ENDBRANCH  13  20
BRANCH  11   7
ATOM      7  N   UNL     1      -3.876   4.834  26.007  0.00  0.00    -0.311 NA
ATOM     34  H   UNL     1      -3.932   4.839  27.026  0.00  0.00    +0.122 HD
BRANCH   7  21
ATOM     21  C   UNL     1      -5.155   4.396  25.471  0.00  0.00    +0.109 C 
BRANCH  21  26
ATOM     26  C   UNL     1      -5.647   3.155  26.197  0.00  0.00    +0.171 C 
BRANCH  26   4
ATOM      4  O   UNL     1      -6.485   2.414  25.321  0.00  0.00    -0.394 OA
ATOM     35  H   UNL     1      -6.310   1.472  25.487  0.00  0.00    +0.209 HD
ENDBRANCH  26   4
ENDBRANCH  21  26
ENDBRANCH   7  21
ENDBRANCH  11   7
TORSDOF 7
ENDMDL
