MODEL 1
REMARK VINA RESULT:       0.1      0.000      0.000
REMARK  Name = 7049517
REMARK  9 active torsions:
REMARK  status: ('A' for Active; 'I' for Inactive)
REMARK    1  A    between atoms: S_1  and  C_20
REMARK    2  A    between atoms: S_1  and  C_25
REMARK    3  A    between atoms: N_9  and  C_13
REMARK    4  A    between atoms: N_10  and  C_21
REMARK    5  A    between atoms: N_10  and  C_22
REMARK    6  A    between atoms: N_11  and  C_24
REMARK    7  A    between atoms: C_14  and  C_17
REMARK    8  A    between atoms: C_18  and  C_20
REMARK    9  A    between atoms: C_21  and  C_23
REMARK                            x       y       z     vdW  Elec       q    Type
REMARK                         _______ _______ _______ _____ _____    ______ ____
ROOT
ATOM      5  O   UNL     1      -2.509  -0.777  26.619  0.00  0.00    -0.275 OA
ATOM      8  N   UNL     1      -2.869  -0.200  24.406  0.00  0.00    -0.287 N 
ATOM     13  C   UNL     1      -1.963   1.467  22.984  0.00  0.00    +0.105 C 
ATOM     14  C   UNL     1      -2.159   1.073  24.449  0.00  0.00    +0.182 C 
ATOM     15  C   UNL     1      -3.138   0.791  22.274  0.00  0.00    +0.043 C 
ATOM     16  C   UNL     1      -3.346  -0.498  23.059  0.00  0.00    +0.110 C 
ATOM     18  C   UNL     1      -2.921  -1.061  25.492  0.00  0.00    +0.226 C 
ENDROOT
BRANCH  13   9
ATOM      6  O   UNL     1       0.436   1.076  24.497  0.00  0.00    -0.252 OA
ATOM      9  N   UNL     1      -0.698   0.984  22.485  0.00  0.00    -0.294 N 
ATOM     11  N   UNL     1       1.504   0.341  22.540  0.00  0.00    -0.267 N 
ATOM     19  C   UNL     1       0.431   0.821  23.295  0.00  0.00    +0.304 C 
ATOM     31  H   UNL     1      -0.602   0.821  21.487  0.00  0.00    +0.151 HD
ATOM     32  H   UNL     1       1.333   0.179  21.550  0.00  0.00    +0.156 HD
BRANCH  11  24
ATOM      2  F   UNL     1       3.484   2.287  22.576  0.00  0.00    -0.203 F 
ATOM      3  F   UNL     1       6.620  -0.822  24.272  0.00  0.00    -0.205 F 
ATOM     24  C   UNL     1       2.815   0.045  22.984  0.00  0.00    +0.070 A 
ATOM     26  C   UNL     1       3.775   1.044  22.985  0.00  0.00    +0.147 A 
ATOM     27  C   UNL     1       3.111  -1.240  23.406  0.00  0.00    +0.029 A 
ATOM     28  C   UNL     1       5.066   0.750  23.423  0.00  0.00    +0.078 A 
ATOM     29  C   UNL     1       4.403  -1.535  23.843  0.00  0.00    +0.040 A 
ATOM     30  C   UNL     1       5.380  -0.539  23.851  0.00  0.00    +0.126 A 
ENDBRANCH  11  24
ENDBRANCH  13   9
BRANCH  14  17
ATOM      4  O   UNL     1      -4.230   1.722  25.380  0.00  0.00    -0.273 OA
ATOM     10  N   UNL     1      -2.495   3.260  25.536  0.00  0.00    -0.294 N 
ATOM     17  C   UNL     1      -3.058   2.040  25.161  0.00  0.00    +0.238 C 
ATOM     22  C   UNL     1      -1.104   3.594  25.257  0.00  0.00    +0.132 C 
BRANCH  10  21
ATOM     21  C   UNL     1      -3.256   4.291  26.235  0.00  0.00    +0.202 C 
BRANCH  21  23
ATOM      7  O   UNL     1      -5.661   4.538  26.090  0.00  0.00    -0.274 OA
ATOM     12  N   UNL     1      -4.411   4.668  24.164  0.00  0.00    -0.328 N 
ATOM     23  C   UNL     1      -4.570   4.524  25.526  0.00  0.00    +0.228 C 
ATOM     33  H   UNL     1      -3.503   4.634  23.714  0.00  0.00    +0.145 HD
ATOM     34  H   UNL     1      -5.213   4.818  23.559  0.00  0.00    +0.145 HD
ENDBRANCH  21  23
ENDBRANCH  10  21
ENDBRANCH  14  17
BRANCH  18  20
ATOM     20  C   UNL     1      -3.538  -2.410  25.226  0.00  0.00    +0.164 C 
BRANCH  20   1
ATOM      1  S   UNL     1      -2.424  -3.317  24.144  0.00  0.00    -0.155 S 
ATOM     25  C   UNL     1      -0.857  -2.593  24.686  0.00  0.00    +0.085 C 
ENDBRANCH  20   1
ENDBRANCH  18  20
TORSDOF 7
ENDMDL
MODEL 2
REMARK VINA RESULT:       2.5      2.453      3.291
REMARK  Name = 7049517
REMARK  9 active torsions:
REMARK  status: ('A' for Active; 'I' for Inactive)
REMARK    1  A    between atoms: S_1  and  C_20
REMARK    2  A    between atoms: S_1  and  C_25
REMARK    3  A    between atoms: N_9  and  C_13
REMARK    4  A    between atoms: N_10  and  C_21
REMARK    5  A    between atoms: N_10  and  C_22
REMARK    6  A    between atoms: N_11  and  C_24
REMARK    7  A    between atoms: C_14  and  C_17
REMARK    8  A    between atoms: C_18  and  C_20
REMARK    9  A    between atoms: C_21  and  C_23
REMARK                            x       y       z     vdW  Elec       q    Type
REMARK                         _______ _______ _______ _____ _____    ______ ____
ROOT
ATOM      5  O   UNL     1      -0.859   3.247  25.961  0.00  0.00    -0.275 OA
ATOM      8  N   UNL     1      -1.294   0.975  25.853  0.00  0.00    -0.287 N 
ATOM     13  C   UNL     1      -1.745  -0.518  24.067  0.00  0.00    +0.105 C 
ATOM     14  C   UNL     1      -1.742   0.958  24.464  0.00  0.00    +0.182 C 
ATOM     15  C   UNL     1      -1.978  -1.244  25.394  0.00  0.00    +0.043 C 
ATOM     16  C   UNL     1      -1.262  -0.371  26.418  0.00  0.00    +0.110 C 
ATOM     18  C   UNL     1      -0.816   2.123  26.467  0.00  0.00    +0.226 C 
ENDROOT
BRANCH  13   9
ATOM      6  O   UNL     1       0.819   0.624  24.635  0.00  0.00    -0.252 OA
ATOM      9  N   UNL     1      -0.483  -0.895  23.476  0.00  0.00    -0.294 N 
ATOM     11  N   UNL     1       1.778  -0.852  23.082  0.00  0.00    -0.267 N 
ATOM     19  C   UNL     1       0.731  -0.282  23.810  0.00  0.00    +0.304 C 
ATOM     31  H   UNL     1      -0.484  -1.587  22.733  0.00  0.00    +0.151 HD
ATOM     32  H   UNL     1       1.535  -1.600  22.437  0.00  0.00    +0.156 HD
BRANCH  11  24
ATOM      2  F   UNL     1       3.613  -2.481  24.382  0.00  0.00    -0.203 F 
ATOM      3  F   UNL     1       7.139   0.470  23.269  0.00  0.00    -0.205 F 
ATOM     24  C   UNL     1       3.152  -0.516  23.130  0.00  0.00    +0.070 A 
ATOM     26  C   UNL     1       4.035  -1.355  23.790  0.00  0.00    +0.147 A 
ATOM     27  C   UNL     1       3.584   0.649  22.517  0.00  0.00    +0.029 A 
ATOM     28  C   UNL     1       5.388  -1.020  23.837  0.00  0.00    +0.078 A 
ATOM     29  C   UNL     1       4.938   0.984  22.564  0.00  0.00    +0.040 A 
ATOM     30  C   UNL     1       5.839   0.149  23.224  0.00  0.00    +0.126 A 
ENDBRANCH  11  24
ENDBRANCH  13   9
BRANCH  14  17
ATOM      4  O   UNL     1      -4.061   0.855  24.899  0.00  0.00    -0.273 OA
ATOM     10  N   UNL     1      -3.272   2.818  23.937  0.00  0.00    -0.294 N 
ATOM     17  C   UNL     1      -3.128   1.531  24.457  0.00  0.00    +0.238 C 
ATOM     22  C   UNL     1      -2.141   3.581  23.424  0.00  0.00    +0.132 C 
BRANCH  10  21
ATOM     21  C   UNL     1      -4.564   3.495  23.870  0.00  0.00    +0.202 C 
BRANCH  21  23
ATOM      7  O   UNL     1      -4.595   4.376  26.126  0.00  0.00    -0.274 OA
ATOM     12  N   UNL     1      -6.252   2.920  25.477  0.00  0.00    -0.328 N 
ATOM     23  C   UNL     1      -5.119   3.674  25.264  0.00  0.00    +0.228 C 
ATOM     33  H   UNL     1      -6.659   2.330  24.758  0.00  0.00    +0.145 HD
ATOM     34  H   UNL     1      -6.725   2.933  26.376  0.00  0.00    +0.145 HD
ENDBRANCH  21  23
ENDBRANCH  10  21
ENDBRANCH  14  17
BRANCH  18  20
ATOM     20  C   UNL     1      -0.227   1.929  27.841  0.00  0.00    +0.164 C 
BRANCH  20   1
ATOM      1  S   UNL     1       1.361   2.773  27.879  0.00  0.00    -0.155 S 
ATOM     25  C   UNL     1       1.821   2.427  29.594  0.00  0.00    +0.085 C 
ENDBRANCH  20   1
ENDBRANCH  18  20
TORSDOF 7
ENDMDL
