MODEL 1
REMARK VINA RESULT:       4.4      0.000      0.000
REMARK  Name = 28991177
REMARK  5 active torsions:
REMARK  status: ('A' for Active; 'I' for Inactive)
REMARK    1  A    between atoms: N_5  and  C_16
REMARK    2  A    between atoms: N_6  and  C_17
REMARK    3  A    between atoms: C_10  and  C_16
REMARK    4  A    between atoms: C_11  and  C_17
REMARK    5  A    between atoms: C_22  and  C_24
REMARK                            x       y       z     vdW  Elec       q    Type
REMARK                         _______ _______ _______ _____ _____    ______ ____
ROOT
ATOM      4  N   UNL     1      -3.698   4.846  24.709  0.00  0.00    -0.298 NA
ATOM      9  C   UNL     1      -1.241   4.047  25.000  0.00  0.00    -0.003 C 
ATOM     10  C   UNL     1      -1.849   3.493  23.691  0.00  0.00    +0.020 C 
ATOM     11  C   UNL     1      -3.520   4.227  26.049  0.00  0.00    +0.074 C 
ATOM     12  C   UNL     1      -2.110   3.610  26.192  0.00  0.00    +0.024 C 
ATOM     13  C   UNL     1      -3.344   3.877  23.642  0.00  0.00    +0.089 C 
ATOM     14  C   UNL     1      -1.320   5.583  24.915  0.00  0.00    +0.019 C 
ATOM     15  C   UNL     1      -2.770   5.999  24.610  0.00  0.00    +0.085 C 
ENDROOT
BRANCH  10  16
ATOM     16  C   UNL     1      -1.648   1.989  23.524  0.00  0.00    +0.089 C 
BRANCH  16   5
ATOM      5  N   UNL     1      -0.269   1.686  23.140  0.00  0.00    -0.299 NA
ATOM      7  N   UNL     1       2.315   0.503  23.421  0.00  0.00    -0.313 N 
ATOM      8  N   UNL     1       4.647   0.823  23.169  0.00  0.00    -0.240 NA
ATOM     18  C   UNL     1      -0.090   0.240  22.959  0.00  0.00    +0.103 C 
ATOM     19  C   UNL     1       0.668   2.183  24.156  0.00  0.00    +0.103 C 
ATOM     20  C   UNL     1       1.334  -0.085  22.503  0.00  0.00    +0.122 C 
ATOM     21  C   UNL     1       2.118   1.923  23.739  0.00  0.00    +0.122 C 
ATOM     23  C   UNL     1       3.619  -0.005  23.461  0.00  0.00    +0.121 A 
ATOM     25  C   UNL     1       3.770  -1.339  23.803  0.00  0.00    +0.043 A 
ATOM     28  C   UNL     1       5.059  -1.858  23.846  0.00  0.00    +0.005 A 
ATOM     29  C   UNL     1       5.886   0.283  23.221  0.00  0.00    +0.113 A 
ATOM     32  C   UNL     1       6.142  -1.037  23.552  0.00  0.00    +0.020 A 
ENDBRANCH  16   5
ENDBRANCH  10  16
BRANCH  11  17
ATOM     17  C   UNL     1      -4.620   3.213  26.375  0.00  0.00    +0.123 C 
BRANCH  17   6
ATOM      1  O   UNL     1      -5.810   1.631  24.295  0.00  0.00    -0.270 OA
ATOM      6  N   UNL     1      -4.224   1.876  25.967  0.00  0.00    -0.310 N 
ATOM     22  C   UNL     1      -4.864   1.198  24.949  0.00  0.00    +0.244 C 
ATOM     35  H   UNL     1      -3.491   1.433  26.510  0.00  0.00    +0.149 HD
BRANCH  22  24
ATOM      2  O   UNL     1      -1.372  -2.283  24.971  0.00  0.00    -0.453 OA
ATOM      3  O   UNL     1      -2.829  -3.913  23.957  0.00  0.00    -0.453 OA
ATOM     24  C   UNL     1      -4.357  -0.170  24.670  0.00  0.00    +0.040 A 
ATOM     26  C   UNL     1      -3.040  -0.501  25.000  0.00  0.00    +0.062 A 
ATOM     27  C   UNL     1      -5.207  -1.122  24.078  0.00  0.00    +0.017 A 
ATOM     30  C   UNL     1      -2.613  -1.784  24.724  0.00  0.00    +0.167 A 
ATOM     31  C   UNL     1      -4.750  -2.414  23.809  0.00  0.00    +0.050 A 
ATOM     33  C   UNL     1      -3.446  -2.715  24.144  0.00  0.00    +0.166 A 
ATOM     34  C   UNL     1      -1.517  -3.634  24.484  0.00  0.00    +0.466 C 
ENDBRANCH  22  24
ENDBRANCH  17   6
ENDBRANCH  11  17
TORSDOF 5
ENDMDL
MODEL 2
REMARK VINA RESULT:       5.9      2.125      5.050
REMARK  Name = 28991177
REMARK  5 active torsions:
REMARK  status: ('A' for Active; 'I' for Inactive)
REMARK    1  A    between atoms: N_5  and  C_16
REMARK    2  A    between atoms: N_6  and  C_17
REMARK    3  A    between atoms: C_10  and  C_16
REMARK    4  A    between atoms: C_11  and  C_17
REMARK    5  A    between atoms: C_22  and  C_24
REMARK                            x       y       z     vdW  Elec       q    Type
REMARK                         _______ _______ _______ _____ _____    ______ ____
ROOT
ATOM      4  N   UNL     1      -3.665  -1.320  25.964  0.00  0.00    -0.298 NA
ATOM      9  C   UNL     1      -3.206  -1.846  23.459  0.00  0.00    -0.003 C 
ATOM     10  C   UNL     1      -2.115  -0.913  24.035  0.00  0.00    +0.020 C 
ATOM     11  C   UNL     1      -4.877  -1.031  25.153  0.00  0.00    +0.074 C 
ATOM     12  C   UNL     1      -4.586  -1.192  23.644  0.00  0.00    +0.024 C 
ATOM     13  C   UNL     1      -2.514  -0.520  25.475  0.00  0.00    +0.089 C 
ATOM     14  C   UNL     1      -3.190  -3.130  24.310  0.00  0.00    +0.019 C 
ATOM     15  C   UNL     1      -3.333  -2.756  25.796  0.00  0.00    +0.085 C 
ENDROOT
BRANCH  10  16
ATOM     16  C   UNL     1      -1.854   0.315  23.168  0.00  0.00    +0.089 C 
BRANCH  16   5
ATOM      5  N   UNL     1      -0.423   0.475  22.907  0.00  0.00    -0.299 NA
ATOM      7  N   UNL     1       2.368   0.038  23.326  0.00  0.00    -0.313 N 
ATOM      8  N   UNL     1       4.514   1.035  23.380  0.00  0.00    -0.240 NA
ATOM     18  C   UNL     1       0.186  -0.817  22.568  0.00  0.00    +0.103 C 
ATOM     19  C   UNL     1       0.252   1.055  24.075  0.00  0.00    +0.103 C 
ATOM     20  C   UNL     1       1.672  -0.655  22.238  0.00  0.00    +0.122 C 
ATOM     21  C   UNL     1       1.739   1.280  23.795  0.00  0.00    +0.122 C 
ATOM     23  C   UNL     1       3.757  -0.083  23.449  0.00  0.00    +0.121 A 
ATOM     25  C   UNL     1       4.270  -1.356  23.636  0.00  0.00    +0.043 A 
ATOM     28  C   UNL     1       5.648  -1.491  23.759  0.00  0.00    +0.005 A 
ATOM     29  C   UNL     1       5.850   0.864  23.503  0.00  0.00    +0.113 A 
ATOM     32  C   UNL     1       6.460  -0.365  23.693  0.00  0.00    +0.020 A 
ENDBRANCH  16   5
ENDBRANCH  10  16
BRANCH  11  17
ATOM     17  C   UNL     1      -5.480   0.340  25.472  0.00  0.00    +0.123 C 
BRANCH  17   6
ATOM      1  O   UNL     1      -5.722   3.071  26.326  0.00  0.00    -0.270 OA
ATOM      6  N   UNL     1      -4.483   1.387  25.324  0.00  0.00    -0.310 N 
ATOM     22  C   UNL     1      -4.699   2.676  25.772  0.00  0.00    +0.244 C 
ATOM     35  H   UNL     1      -3.641   1.144  24.816  0.00  0.00    +0.149 HD
BRANCH  22  24
ATOM      2  O   UNL     1      -0.341   3.956  23.852  0.00  0.00    -0.453 OA
ATOM      3  O   UNL     1      -0.469   6.187  24.756  0.00  0.00    -0.453 OA
ATOM     24  C   UNL     1      -3.592   3.635  25.523  0.00  0.00    +0.040 A 
ATOM     26  C   UNL     1      -2.488   3.237  24.765  0.00  0.00    +0.062 A 
ATOM     27  C   UNL     1      -3.667   4.937  26.050  0.00  0.00    +0.017 A 
ATOM     30  C   UNL     1      -1.486   4.163  24.558  0.00  0.00    +0.167 A 
ATOM     31  C   UNL     1      -2.638   5.855  25.826  0.00  0.00    +0.050 A 
ATOM     33  C   UNL     1      -1.559   5.437  25.074  0.00  0.00    +0.166 A 
ATOM     34  C   UNL     1       0.297   5.244  23.980  0.00  0.00    +0.466 C 
ENDBRANCH  22  24
ENDBRANCH  17   6
ENDBRANCH  11  17
TORSDOF 5
ENDMDL
MODEL 3
REMARK VINA RESULT:       7.9      1.503      2.704
REMARK  Name = 28991177
REMARK  5 active torsions:
REMARK  status: ('A' for Active; 'I' for Inactive)
REMARK    1  A    between atoms: N_5  and  C_16
REMARK    2  A    between atoms: N_6  and  C_17
REMARK    3  A    between atoms: C_10  and  C_16
REMARK    4  A    between atoms: C_11  and  C_17
REMARK    5  A    between atoms: C_22  and  C_24
REMARK                            x       y       z     vdW  Elec       q    Type
REMARK                         _______ _______ _______ _____ _____    ______ ____
ROOT
ATOM      4  N   UNL     1      -2.814   3.368  26.480  0.00  0.00    -0.298 NA
ATOM      9  C   UNL     1      -2.114   4.692  24.354  0.00  0.00    -0.003 C 
ATOM     10  C   UNL     1      -2.976   3.464  23.980  0.00  0.00    +0.020 C 
ATOM     11  C   UNL     1      -1.342   3.575  26.472  0.00  0.00    +0.074 C 
ATOM     12  C   UNL     1      -0.881   4.227  25.148  0.00  0.00    +0.024 C 
ATOM     13  C   UNL     1      -3.240   2.639  25.260  0.00  0.00    +0.089 C 
ATOM     14  C   UNL     1      -2.965   5.563  25.299  0.00  0.00    +0.019 C 
ATOM     15  C   UNL     1      -3.464   4.701  26.472  0.00  0.00    +0.085 C 
ENDROOT
BRANCH  10  16
ATOM     16  C   UNL     1      -2.359   2.609  22.876  0.00  0.00    +0.089 C 
BRANCH  16   5
ATOM      5  N   UNL     1      -1.180   1.895  23.367  0.00  0.00    -0.299 NA
ATOM      7  N   UNL     1       1.464   0.824  23.231  0.00  0.00    -0.313 N 
ATOM      8  N   UNL     1       2.856  -1.016  23.763  0.00  0.00    -0.240 NA
ATOM     18  C   UNL     1      -0.014   2.786  23.402  0.00  0.00    +0.103 C 
ATOM     19  C   UNL     1      -0.894   0.730  22.520  0.00  0.00    +0.103 C 
ATOM     20  C   UNL     1       1.212   2.066  23.967  0.00  0.00    +0.122 C 
ATOM     21  C   UNL     1       0.303  -0.058  23.056  0.00  0.00    +0.122 C 
ATOM     23  C   UNL     1       2.735   0.238  23.272  0.00  0.00    +0.121 A 
ATOM     25  C   UNL     1       3.797   0.993  22.800  0.00  0.00    +0.043 A 
ATOM     28  C   UNL     1       5.065   0.424  22.835  0.00  0.00    +0.005 A 
ATOM     29  C   UNL     1       4.104  -1.535  23.781  0.00  0.00    +0.113 A 
ATOM     32  C   UNL     1       5.230  -0.863  23.333  0.00  0.00    +0.020 A 
ENDBRANCH  16   5
ENDBRANCH  10  16
BRANCH  11  17
ATOM     17  C   UNL     1      -0.569   2.287  26.769  0.00  0.00    +0.123 C 
BRANCH  17   6
ATOM      1  O   UNL     1      -0.560  -0.464  27.591  0.00  0.00    -0.270 OA
ATOM      6  N   UNL     1      -1.145   1.164  26.049  0.00  0.00    -0.310 N 
ATOM     22  C   UNL     1      -1.088  -0.128  26.534  0.00  0.00    +0.244 C 
ATOM     35  H   UNL     1      -1.538   1.363  25.136  0.00  0.00    +0.149 HD
BRANCH  22  24
ATOM      2  O   UNL     1      -4.825  -2.066  23.968  0.00  0.00    -0.453 OA
ATOM      3  O   UNL     1      -3.513  -3.963  23.270  0.00  0.00    -0.453 OA
ATOM     24  C   UNL     1      -1.700  -1.167  25.667  0.00  0.00    +0.040 A 
ATOM     26  C   UNL     1      -3.030  -1.035  25.262  0.00  0.00    +0.062 A 
ATOM     27  C   UNL     1      -0.934  -2.274  25.259  0.00  0.00    +0.017 A 
ATOM     30  C   UNL     1      -3.556  -2.024  24.456  0.00  0.00    +0.167 A 
ATOM     31  C   UNL     1      -1.491  -3.261  24.443  0.00  0.00    +0.050 A 
ATOM     33  C   UNL     1      -2.807  -3.107  24.057  0.00  0.00    +0.166 A 
ATOM     34  C   UNL     1      -4.790  -3.296  23.216  0.00  0.00    +0.466 C 
ENDBRANCH  22  24
ENDBRANCH  17   6
ENDBRANCH  11  17
TORSDOF 5
ENDMDL
MODEL 4
REMARK VINA RESULT:       8.1      2.370      7.001
REMARK  Name = 28991177
REMARK  5 active torsions:
REMARK  status: ('A' for Active; 'I' for Inactive)
REMARK    1  A    between atoms: N_5  and  C_16
REMARK    2  A    between atoms: N_6  and  C_17
REMARK    3  A    between atoms: C_10  and  C_16
REMARK    4  A    between atoms: C_11  and  C_17
REMARK    5  A    between atoms: C_22  and  C_24
REMARK                            x       y       z     vdW  Elec       q    Type
REMARK                         _______ _______ _______ _____ _____    ______ ____
ROOT
ATOM      4  N   UNL     1      -2.155  -1.762  23.737  0.00  0.00    -0.298 NA
ATOM      9  C   UNL     1      -4.134  -2.551  25.229  0.00  0.00    -0.003 C 
ATOM     10  C   UNL     1      -4.635  -1.637  24.087  0.00  0.00    +0.020 C 
ATOM     11  C   UNL     1      -1.860  -1.478  25.167  0.00  0.00    +0.074 C 
ATOM     12  C   UNL     1      -3.079  -1.799  26.060  0.00  0.00    +0.024 C 
ATOM     13  C   UNL     1      -3.409  -1.085  23.325  0.00  0.00    +0.089 C 
ATOM     14  C   UNL     1      -3.425  -3.747  24.566  0.00  0.00    +0.019 C 
ATOM     15  C   UNL     1      -2.352  -3.226  23.593  0.00  0.00    +0.085 C 
ENDROOT
BRANCH  10  16
ATOM     16  C   UNL     1      -5.549  -0.514  24.571  0.00  0.00    +0.089 C 
BRANCH  16   5
ATOM      5  N   UNL     1      -4.929   0.793  24.355  0.00  0.00    -0.299 NA
ATOM      7  N   UNL     1      -2.863   2.758  24.518  0.00  0.00    -0.313 N 
ATOM      8  N   UNL     1      -2.366   5.043  24.887  0.00  0.00    -0.240 NA
ATOM     18  C   UNL     1      -3.710   0.659  23.548  0.00  0.00    +0.103 C 
ATOM     19  C   UNL     1      -4.611   1.431  25.639  0.00  0.00    +0.103 C 
ATOM     20  C   UNL     1      -3.083   2.026  23.267  0.00  0.00    +0.122 C 
ATOM     21  C   UNL     1      -4.014   2.824  25.427  0.00  0.00    +0.122 C 
ATOM     23  C   UNL     1      -1.935   3.805  24.555  0.00  0.00    +0.121 A 
ATOM     25  C   UNL     1      -0.620   3.499  24.246  0.00  0.00    +0.043 A 
ATOM     28  C   UNL     1       0.314   4.529  24.278  0.00  0.00    +0.005 A 
ATOM     29  C   UNL     1      -1.430   6.019  24.908  0.00  0.00    +0.113 A 
ATOM     32  C   UNL     1      -0.092   5.816  24.615  0.00  0.00    +0.020 A 
ENDBRANCH  16   5
ENDBRANCH  10  16
BRANCH  11  17
ATOM     17  C   UNL     1      -1.356  -0.049  25.385  0.00  0.00    +0.123 C 
BRANCH  17   6
ATOM      1  O   UNL     1      -0.289   0.178  22.729  0.00  0.00    -0.270 OA
ATOM      6  N   UNL     1       0.046   0.064  25.019  0.00  0.00    -0.310 N 
ATOM     22  C   UNL     1       0.457   0.170  23.705  0.00  0.00    +0.244 C 
ATOM     35  H   UNL     1       0.719  -0.003  25.774  0.00  0.00    +0.149 HD
BRANCH  22  24
ATOM      2  O   UNL     1       5.035  -1.645  23.936  0.00  0.00    -0.453 OA
ATOM      3  O   UNL     1       5.996   0.343  22.973  0.00  0.00    -0.453 OA
ATOM     24  C   UNL     1       1.926   0.251  23.497  0.00  0.00    +0.040 A 
ATOM     26  C   UNL     1       2.737  -0.827  23.859  0.00  0.00    +0.062 A 
ATOM     27  C   UNL     1       2.486   1.412  22.934  0.00  0.00    +0.017 A 
ATOM     30  C   UNL     1       4.095  -0.706  23.646  0.00  0.00    +0.167 A 
ATOM     31  C   UNL     1       3.865   1.508  22.729  0.00  0.00    +0.050 A 
ATOM     33  C   UNL     1       4.643   0.430  23.096  0.00  0.00    +0.166 A 
ATOM     34  C   UNL     1       6.237  -0.974  23.506  0.00  0.00    +0.466 C 
ENDBRANCH  22  24
ENDBRANCH  17   6
ENDBRANCH  11  17
TORSDOF 5
ENDMDL
