MODEL 1
REMARK VINA RESULT:      -4.3      0.000      0.000
REMARK  Name = 26744194
REMARK  7 active torsions:
REMARK  status: ('A' for Active; 'I' for Inactive)
REMARK    1  A    between atoms: O_1  and  C_12
REMARK    2  A    between atoms: N_4  and  C_8
REMARK    3  A    between atoms: C_9  and  C_17
REMARK    4  A    between atoms: C_18  and  C_20
REMARK    5  A    between atoms: C_19  and  C_21
REMARK    6  A    between atoms: C_21  and  C_22
REMARK    7  A    between atoms: C_21  and  C_23
REMARK                            x       y       z     vdW  Elec       q    Type
REMARK                         _______ _______ _______ _____ _____    ______ ____
ROOT
ATOM      4  N   UNL     1       0.854   1.507  23.891  0.00  0.00    -0.286 NA
ATOM      9  C   UNL     1       0.421   0.334  23.105  0.00  0.00    +0.149 C 
ATOM     10  C   UNL     1       2.115   1.956  23.303  0.00  0.00    +0.116 C 
ATOM     11  C   UNL     1       1.725  -0.280  22.561  0.00  0.00    +0.061 C 
ATOM     12  C   UNL     1       2.832   0.643  23.057  0.00  0.00    +0.130 C 
ENDROOT
BRANCH   4   8
ATOM      3  O   UNL     1      -3.822   4.167  26.867  0.00  0.00    -0.276 OA
ATOM      5  N   UNL     1      -2.642   3.637  24.937  0.00  0.00    -0.302 N 
ATOM      8  C   UNL     1      -0.143   2.572  23.934  0.00  0.00    +0.060 C 
ATOM     13  C   UNL     1      -0.270   3.118  25.363  0.00  0.00    +0.038 C 
ATOM     14  C   UNL     1      -1.498   2.046  23.441  0.00  0.00    +0.038 C 
ATOM     15  C   UNL     1      -1.376   4.167  25.449  0.00  0.00    +0.109 C 
ATOM     16  C   UNL     1      -2.580   3.116  23.565  0.00  0.00    +0.109 C 
ATOM     18  C   UNL     1      -3.788   3.692  25.729  0.00  0.00    +0.212 C 
ATOM     20  C   UNL     1      -5.050   3.123  25.130  0.00  0.00    +0.109 C 
ENDBRANCH   4   8
BRANCH   9  17
ATOM      2  O   UNL     1       0.309  -1.543  24.666  0.00  0.00    -0.336 OA
ATOM      6  N   UNL     1      -1.691  -0.771  24.019  0.00  0.00    -0.194 NA
ATOM      7  N   UNL     1      -0.644  -2.334  25.320  0.00  0.00    -0.061 NA
ATOM     17  C   UNL     1      -0.391  -0.648  23.921  0.00  0.00    +0.245 A 
ATOM     19  C   UNL     1      -1.798  -1.817  24.887  0.00  0.00    +0.174 A 
BRANCH  19  21
ATOM     21  C   UNL     1      -3.097  -2.344  25.320  0.00  0.00    +0.054 C 
ATOM     22  C   UNL     1      -3.975  -2.849  24.147  0.00  0.00    +0.015 C 
ATOM     23  C   UNL     1      -3.919  -1.337  26.163  0.00  0.00    +0.015 C 
ENDBRANCH  19  21
ENDBRANCH   9  17
BRANCH  12   1
ATOM      1  O   UNL     1       3.850   0.774  22.083  0.00  0.00    -0.390 OA
ATOM     24  H   UNL     1       4.312  -0.079  22.027  0.00  0.00    +0.210 HD
ENDBRANCH  12   1
TORSDOF 4
ENDMDL
MODEL 2
REMARK VINA RESULT:      -3.5      1.914      4.767
REMARK  Name = 26744194
REMARK  7 active torsions:
REMARK  status: ('A' for Active; 'I' for Inactive)
REMARK    1  A    between atoms: O_1  and  C_12
REMARK    2  A    between atoms: N_4  and  C_8
REMARK    3  A    between atoms: C_9  and  C_17
REMARK    4  A    between atoms: C_18  and  C_20
REMARK    5  A    between atoms: C_19  and  C_21
REMARK    6  A    between atoms: C_21  and  C_22
REMARK    7  A    between atoms: C_21  and  C_23
REMARK                            x       y       z     vdW  Elec       q    Type
REMARK                         _______ _______ _______ _____ _____    ______ ____
ROOT
ATOM      4  N   UNL     1      -2.921  -0.399  23.693  0.00  0.00    -0.286 NA
ATOM      9  C   UNL     1      -1.861  -0.654  24.689  0.00  0.00    +0.149 C 
ATOM     10  C   UNL     1      -3.909  -1.465  23.858  0.00  0.00    +0.116 C 
ATOM     11  C   UNL     1      -1.889  -2.178  24.914  0.00  0.00    +0.061 C 
ATOM     12  C   UNL     1      -3.026  -2.685  24.035  0.00  0.00    +0.130 C 
ENDROOT
BRANCH   4   8
ATOM      3  O   UNL     1      -2.189   5.559  25.023  0.00  0.00    -0.276 OA
ATOM      5  N   UNL     1      -3.464   3.623  24.870  0.00  0.00    -0.302 N 
ATOM      8  C   UNL     1      -3.519   0.927  23.813  0.00  0.00    +0.060 C 
ATOM     13  C   UNL     1      -2.560   1.990  23.260  0.00  0.00    +0.038 C 
ATOM     14  C   UNL     1      -3.854   1.223  25.282  0.00  0.00    +0.038 C 
ATOM     15  C   UNL     1      -3.125   3.394  23.465  0.00  0.00    +0.109 C 
ATOM     16  C   UNL     1      -4.394   2.642  25.447  0.00  0.00    +0.109 C 
ATOM     18  C   UNL     1      -2.942   4.729  25.539  0.00  0.00    +0.212 C 
ATOM     20  C   UNL     1      -3.336   4.892  26.986  0.00  0.00    +0.109 C 
ENDBRANCH   4   8
BRANCH   9  17
ATOM      2  O   UNL     1      -0.186   1.121  24.583  0.00  0.00    -0.336 OA
ATOM      6  N   UNL     1       0.423  -0.774  23.556  0.00  0.00    -0.194 NA
ATOM      7  N   UNL     1       1.093   1.354  24.063  0.00  0.00    -0.061 NA
ATOM     17  C   UNL     1      -0.505  -0.154  24.240  0.00  0.00    +0.245 A 
ATOM     19  C   UNL     1       1.384   0.191  23.473  0.00  0.00    +0.174 A 
BRANCH  19  21
ATOM     21  C   UNL     1       2.657  -0.031  22.778  0.00  0.00    +0.054 C 
ATOM     22  C   UNL     1       3.516  -1.152  23.415  0.00  0.00    +0.015 C 
ATOM     23  C   UNL     1       3.519   1.250  22.650  0.00  0.00    +0.015 C 
ENDBRANCH  19  21
ENDBRANCH   9  17
BRANCH  12   1
ATOM      1  O   UNL     1      -3.716  -3.745  24.668  0.00  0.00    -0.390 OA
ATOM     24  H   UNL     1      -3.771  -4.479  24.033  0.00  0.00    +0.210 HD
ENDBRANCH  12   1
TORSDOF 4
ENDMDL
MODEL 3
REMARK VINA RESULT:      -2.4      1.875      4.888
REMARK  Name = 26744194
REMARK  7 active torsions:
REMARK  status: ('A' for Active; 'I' for Inactive)
REMARK    1  A    between atoms: O_1  and  C_12
REMARK    2  A    between atoms: N_4  and  C_8
REMARK    3  A    between atoms: C_9  and  C_17
REMARK    4  A    between atoms: C_18  and  C_20
REMARK    5  A    between atoms: C_19  and  C_21
REMARK    6  A    between atoms: C_21  and  C_22
REMARK    7  A    between atoms: C_21  and  C_23
REMARK                            x       y       z     vdW  Elec       q    Type
REMARK                         _______ _______ _______ _____ _____    ______ ____
ROOT
ATOM      4  N   UNL     1      -2.189  -0.252  24.510  0.00  0.00    -0.286 NA
ATOM      9  C   UNL     1      -1.020  -1.124  24.745  0.00  0.00    +0.149 C 
ATOM     10  C   UNL     1      -3.372  -1.056  24.815  0.00  0.00    +0.116 C 
ATOM     11  C   UNL     1      -1.539  -2.553  24.501  0.00  0.00    +0.061 C 
ATOM     12  C   UNL     1      -3.019  -2.387  24.179  0.00  0.00    +0.130 C 
ENDROOT
BRANCH   4   8
ATOM      3  O   UNL     1      -2.633   5.880  24.585  0.00  0.00    -0.276 OA
ATOM      5  N   UNL     1      -1.838   3.861  25.415  0.00  0.00    -0.302 N 
ATOM      8  C   UNL     1      -2.151   0.985  25.284  0.00  0.00    +0.060 C 
ATOM     13  C   UNL     1      -3.257   1.938  24.811  0.00  0.00    +0.038 C 
ATOM     14  C   UNL     1      -0.775   1.651  25.145  0.00  0.00    +0.038 C 
ATOM     15  C   UNL     1      -3.174   3.276  25.543  0.00  0.00    +0.109 C 
ATOM     16  C   UNL     1      -0.741   2.996  25.870  0.00  0.00    +0.109 C 
ATOM     18  C   UNL     1      -1.692   5.160  24.928  0.00  0.00    +0.212 C 
ATOM     20  C   UNL     1      -0.284   5.688  24.823  0.00  0.00    +0.109 C 
ENDBRANCH   4   8
BRANCH   9  17
ATOM      2  O   UNL     1      -0.134  -0.297  22.623  0.00  0.00    -0.336 OA
ATOM      6  N   UNL     1       1.439  -0.855  24.116  0.00  0.00    -0.194 NA
ATOM      7  N   UNL     1       1.097  -0.046  22.004  0.00  0.00    -0.061 NA
ATOM     17  C   UNL     1       0.158  -0.770  23.862  0.00  0.00    +0.245 A 
ATOM     19  C   UNL     1       1.975  -0.400  22.947  0.00  0.00    +0.174 A 
BRANCH  19  21
ATOM     21  C   UNL     1       3.424  -0.305  22.736  0.00  0.00    +0.054 C 
ATOM     22  C   UNL     1       4.244  -1.187  23.710  0.00  0.00    +0.015 C 
ATOM     23  C   UNL     1       3.960   1.147  22.801  0.00  0.00    +0.015 C 
ENDBRANCH  19  21
ENDBRANCH   9  17
BRANCH  12   1
ATOM      1  O   UNL     1      -3.775  -3.448  24.728  0.00  0.00    -0.390 OA
ATOM     24  H   UNL     1      -3.793  -3.325  25.693  0.00  0.00    +0.210 HD
ENDBRANCH  12   1
TORSDOF 4
ENDMDL
MODEL 4
REMARK VINA RESULT:      -2.3      1.806      6.336
REMARK  Name = 26744194
REMARK  7 active torsions:
REMARK  status: ('A' for Active; 'I' for Inactive)
REMARK    1  A    between atoms: O_1  and  C_12
REMARK    2  A    between atoms: N_4  and  C_8
REMARK    3  A    between atoms: C_9  and  C_17
REMARK    4  A    between atoms: C_18  and  C_20
REMARK    5  A    between atoms: C_19  and  C_21
REMARK    6  A    between atoms: C_21  and  C_22
REMARK    7  A    between atoms: C_21  and  C_23
REMARK                            x       y       z     vdW  Elec       q    Type
REMARK                         _______ _______ _______ _____ _____    ______ ____
ROOT
ATOM      4  N   UNL     1      -1.620  -0.285  24.363  0.00  0.00    -0.286 NA
ATOM      9  C   UNL     1      -2.963   0.119  23.898  0.00  0.00    +0.149 C 
ATOM     10  C   UNL     1      -1.635  -1.745  24.449  0.00  0.00    +0.116 C 
ATOM     11  C   UNL     1      -3.902  -0.999  24.386  0.00  0.00    +0.061 C 
ATOM     12  C   UNL     1      -2.991  -2.008  25.075  0.00  0.00    +0.130 C 
ENDROOT
BRANCH   4   8
ATOM      3  O   UNL     1       4.182  -0.879  22.416  0.00  0.00    -0.276 OA
ATOM      5  N   UNL     1       2.276   0.372  22.864  0.00  0.00    -0.302 N 
ATOM      8  C   UNL     1      -0.543   0.204  23.508  0.00  0.00    +0.060 C 
ATOM     13  C   UNL     1       0.213  -0.977  22.884  0.00  0.00    +0.038 C 
ATOM     14  C   UNL     1       0.418   1.082  24.322  0.00  0.00    +0.038 C 
ATOM     15  C   UNL     1       1.404  -0.489  22.062  0.00  0.00    +0.109 C 
ATOM     16  C   UNL     1       1.606   1.529  23.472  0.00  0.00    +0.109 C 
ATOM     18  C   UNL     1       3.636   0.081  22.966  0.00  0.00    +0.212 C 
ATOM     20  C   UNL     1       4.464   1.014  23.813  0.00  0.00    +0.109 C 
ENDBRANCH   4   8
BRANCH   9  17
ATOM      2  O   UNL     1      -4.687   1.799  24.316  0.00  0.00    -0.336 OA
ATOM      6  N   UNL     1      -2.626   2.434  24.921  0.00  0.00    -0.194 NA
ATOM      7  N   UNL     1      -4.814   3.094  24.835  0.00  0.00    -0.061 NA
ATOM     17  C   UNL     1      -3.368   1.487  24.404  0.00  0.00    +0.245 A 
ATOM     19  C   UNL     1      -3.557   3.399  25.170  0.00  0.00    +0.174 A 
BRANCH  19  21
ATOM     21  C   UNL     1      -3.203   4.691  25.766  0.00  0.00    +0.054 C 
ATOM     22  C   UNL     1      -1.827   5.228  25.295  0.00  0.00    +0.015 C 
ATOM     23  C   UNL     1      -3.232   4.682  27.315  0.00  0.00    +0.015 C 
ENDBRANCH  19  21
ENDBRANCH   9  17
BRANCH  12   1
ATOM      1  O   UNL     1      -3.433  -3.330  24.834  0.00  0.00    -0.390 OA
ATOM     24  H   UNL     1      -2.994  -3.641  24.024  0.00  0.00    +0.210 HD
ENDBRANCH  12   1
TORSDOF 4
ENDMDL
MODEL 5
REMARK VINA RESULT:      -1.9      1.927      5.268
REMARK  Name = 26744194
REMARK  7 active torsions:
REMARK  status: ('A' for Active; 'I' for Inactive)
REMARK    1  A    between atoms: O_1  and  C_12
REMARK    2  A    between atoms: N_4  and  C_8
REMARK    3  A    between atoms: C_9  and  C_17
REMARK    4  A    between atoms: C_18  and  C_20
REMARK    5  A    between atoms: C_19  and  C_21
REMARK    6  A    between atoms: C_21  and  C_22
REMARK    7  A    between atoms: C_21  and  C_23
REMARK                            x       y       z     vdW  Elec       q    Type
REMARK                         _______ _______ _______ _____ _____    ______ ____
ROOT
ATOM      4  N   UNL     1      -0.395   2.099  23.778  0.00  0.00    -0.286 NA
ATOM      9  C   UNL     1      -0.487   1.700  25.198  0.00  0.00    +0.149 C 
ATOM     10  C   UNL     1      -0.255   3.554  23.766  0.00  0.00    +0.116 C 
ATOM     11  C   UNL     1      -1.090   2.924  25.912  0.00  0.00    +0.061 C 
ATOM     12  C   UNL     1      -1.260   3.974  24.822  0.00  0.00    +0.130 C 
ENDROOT
BRANCH   4   8
ATOM      3  O   UNL     1       4.185  -2.002  23.872  0.00  0.00    -0.276 OA
ATOM      5  N   UNL     1       3.165  -0.069  23.084  0.00  0.00    -0.302 N 
ATOM      8  C   UNL     1       0.692   1.437  23.063  0.00  0.00    +0.060 C 
ATOM     13  C   UNL     1       0.723  -0.056  23.416  0.00  0.00    +0.038 C 
ATOM     14  C   UNL     1       2.033   2.097  23.414  0.00  0.00    +0.038 C 
ATOM     15  C   UNL     1       1.912  -0.749  22.753  0.00  0.00    +0.109 C 
ATOM     16  C   UNL     1       3.196   1.361  22.751  0.00  0.00    +0.109 C 
ATOM     18  C   UNL     1       4.224  -0.792  23.633  0.00  0.00    +0.212 C 
ATOM     20  C   UNL     1       5.479  -0.018  23.949  0.00  0.00    +0.109 C 
ENDBRANCH   4   8
BRANCH   9  17
ATOM      2  O   UNL     1      -0.937  -0.362  26.428  0.00  0.00    -0.336 OA
ATOM      6  N   UNL     1      -2.334   0.004  24.716  0.00  0.00    -0.194 NA
ATOM      7  N   UNL     1      -1.825  -1.445  26.411  0.00  0.00    -0.061 NA
ATOM     17  C   UNL     1      -1.306   0.443  25.398  0.00  0.00    +0.245 A 
ATOM     19  C   UNL     1      -2.617  -1.156  25.375  0.00  0.00    +0.174 A 
BRANCH  19  21
ATOM     21  C   UNL     1      -3.721  -2.034  24.971  0.00  0.00    +0.054 C 
ATOM     22  C   UNL     1      -3.258  -3.460  24.579  0.00  0.00    +0.015 C 
ATOM     23  C   UNL     1      -4.579  -1.452  23.819  0.00  0.00    +0.015 C 
ENDBRANCH  19  21
ENDBRANCH   9  17
BRANCH  12   1
ATOM      1  O   UNL     1      -0.985   5.268  25.323  0.00  0.00    -0.390 OA
ATOM     24  H   UNL     1      -0.071   5.489  25.076  0.00  0.00    +0.210 HD
ENDBRANCH  12   1
TORSDOF 4
ENDMDL
MODEL 6
REMARK VINA RESULT:      -1.1      2.513      5.268
REMARK  Name = 26744194
REMARK  7 active torsions:
REMARK  status: ('A' for Active; 'I' for Inactive)
REMARK    1  A    between atoms: O_1  and  C_12
REMARK    2  A    between atoms: N_4  and  C_8
REMARK    3  A    between atoms: C_9  and  C_17
REMARK    4  A    between atoms: C_18  and  C_20
REMARK    5  A    between atoms: C_19  and  C_21
REMARK    6  A    between atoms: C_21  and  C_22
REMARK    7  A    between atoms: C_21  and  C_23
REMARK                            x       y       z     vdW  Elec       q    Type
REMARK                         _______ _______ _______ _____ _____    ______ ____
ROOT
ATOM      4  N   UNL     1      -2.408  -0.684  25.042  0.00  0.00    -0.286 NA
ATOM      9  C   UNL     1      -3.507  -0.329  24.122  0.00  0.00    +0.149 C 
ATOM     10  C   UNL     1      -2.103  -2.093  24.797  0.00  0.00    +0.116 C 
ATOM     11  C   UNL     1      -4.264  -1.649  23.883  0.00  0.00    +0.061 C 
ATOM     12  C   UNL     1      -3.489  -2.696  24.673  0.00  0.00    +0.130 C 
ENDROOT
BRANCH   4   8
ATOM      3  O   UNL     1       0.040   4.948  25.341  0.00  0.00    -0.276 OA
ATOM      5  N   UNL     1      -0.054   2.784  24.502  0.00  0.00    -0.302 N 
ATOM      8  C   UNL     1      -1.231   0.166  24.890  0.00  0.00    +0.060 C 
ATOM     13  C   UNL     1      -1.180   1.202  26.021  0.00  0.00    +0.038 C 
ATOM     14  C   UNL     1      -1.260   0.867  23.524  0.00  0.00    +0.038 C 
ATOM     15  C   UNL     1      -0.009   2.164  25.827  0.00  0.00    +0.109 C 
ATOM     16  C   UNL     1      -0.088   1.836  23.380  0.00  0.00    +0.109 C 
ATOM     18  C   UNL     1      -0.024   4.173  24.384  0.00  0.00    +0.212 C 
ATOM     20  C   UNL     1      -0.078   4.733  22.984  0.00  0.00    +0.109 C 
ENDBRANCH   4   8
BRANCH   9  17
ATOM      2  O   UNL     1      -5.737   0.547  24.604  0.00  0.00    -0.336 OA
ATOM      6  N   UNL     1      -4.067   1.911  25.212  0.00  0.00    -0.194 NA
ATOM      7  N   UNL     1      -6.342   1.680  25.163  0.00  0.00    -0.061 NA
ATOM     17  C   UNL     1      -4.398   0.765  24.672  0.00  0.00    +0.245 A 
ATOM     19  C   UNL     1      -5.293   2.437  25.497  0.00  0.00    +0.174 A 
BRANCH  19  21
ATOM     21  C   UNL     1      -5.452   3.751  26.129  0.00  0.00    +0.054 C 
ATOM     22  C   UNL     1      -6.269   4.750  25.270  0.00  0.00    +0.015 C 
ATOM     23  C   UNL     1      -4.105   4.411  26.519  0.00  0.00    +0.015 C 
ENDBRANCH  19  21
ENDBRANCH   9  17
BRANCH  12   1
ATOM      1  O   UNL     1      -3.465  -3.930  23.982  0.00  0.00    -0.390 OA
ATOM     24  H   UNL     1      -2.719  -4.446  24.331  0.00  0.00    +0.210 HD
ENDBRANCH  12   1
TORSDOF 4
ENDMDL
MODEL 7
REMARK VINA RESULT:      -0.4      2.101      5.484
REMARK  Name = 26744194
REMARK  7 active torsions:
REMARK  status: ('A' for Active; 'I' for Inactive)
REMARK    1  A    between atoms: O_1  and  C_12
REMARK    2  A    between atoms: N_4  and  C_8
REMARK    3  A    between atoms: C_9  and  C_17
REMARK    4  A    between atoms: C_18  and  C_20
REMARK    5  A    between atoms: C_19  and  C_21
REMARK    6  A    between atoms: C_21  and  C_22
REMARK    7  A    between atoms: C_21  and  C_23
REMARK                            x       y       z     vdW  Elec       q    Type
REMARK                         _______ _______ _______ _____ _____    ______ ____
ROOT
ATOM      4  N   UNL     1      -1.206   2.678  24.415  0.00  0.00    -0.286 NA
ATOM      9  C   UNL     1      -1.700   3.592  25.465  0.00  0.00    +0.149 C 
ATOM     10  C   UNL     1      -0.008   3.302  23.854  0.00  0.00    +0.116 C 
ATOM     11  C   UNL     1      -1.223   4.990  25.027  0.00  0.00    +0.061 C 
ATOM     12  C   UNL     1      -0.432   4.754  23.746  0.00  0.00    +0.130 C 
ENDROOT
BRANCH   4   8
ATOM      3  O   UNL     1      -1.454  -3.381  23.401  0.00  0.00    -0.276 OA
ATOM      5  N   UNL     1      -1.442  -1.524  24.797  0.00  0.00    -0.302 N 
ATOM      8  C   UNL     1      -0.945   1.327  24.903  0.00  0.00    +0.060 C 
ATOM     13  C   UNL     1      -0.390   0.455  23.769  0.00  0.00    +0.038 C 
ATOM     14  C   UNL     1      -2.234   0.713  25.468  0.00  0.00    +0.038 C 
ATOM     15  C   UNL     1      -0.201  -0.988  24.233  0.00  0.00    +0.109 C 
ATOM     16  C   UNL     1      -2.008  -0.735  25.899  0.00  0.00    +0.109 C 
ATOM     18  C   UNL     1      -1.968  -2.718  24.305  0.00  0.00    +0.212 C 
ATOM     20  C   UNL     1      -3.250  -3.201  24.936  0.00  0.00    +0.109 C 
ENDBRANCH   4   8
BRANCH   9  17
ATOM      2  O   UNL     1      -3.820   4.653  26.056  0.00  0.00    -0.336 OA
ATOM      6  N   UNL     1      -4.008   2.501  25.465  0.00  0.00    -0.194 NA
ATOM      7  N   UNL     1      -5.182   4.340  26.153  0.00  0.00    -0.061 NA
ATOM     17  C   UNL     1      -3.201   3.516  25.645  0.00  0.00    +0.245 A 
ATOM     19  C   UNL     1      -5.212   3.055  25.788  0.00  0.00    +0.174 A 
BRANCH  19  21
ATOM     21  C   UNL     1      -6.462   2.289  25.741  0.00  0.00    +0.054 C 
ATOM     22  C   UNL     1      -6.738   1.484  27.037  0.00  0.00    +0.015 C 
ATOM     23  C   UNL     1      -6.549   1.329  24.528  0.00  0.00    +0.015 C 
ENDBRANCH  19  21
ENDBRANCH   9  17
BRANCH  12   1
ATOM      1  O   UNL     1       0.682   5.622  23.677  0.00  0.00    -0.390 OA
ATOM     24  H   UNL     1       0.736   6.096  24.524  0.00  0.00    +0.210 HD
ENDBRANCH  12   1
TORSDOF 4
ENDMDL
