MODEL 1
REMARK VINA RESULT:      -1.8      0.000      0.000
REMARK  Name = 75536099
REMARK  9 active torsions:
REMARK  status: ('A' for Active; 'I' for Inactive)
REMARK    1  A    between atoms: S_1  and  N_10
REMARK    2  A    between atoms: S_1  and  C_20
REMARK    3  A    between atoms: O_5  and  C_14
REMARK    4  A    between atoms: O_6  and  C_16
REMARK    5  A    between atoms: O_9  and  C_28
REMARK    6  A    between atoms: O_9  and  C_29
REMARK    7  A    between atoms: N_10  and  C_12
REMARK    8  A    between atoms: C_13  and  C_17
REMARK    9  A    between atoms: C_22  and  C_25
REMARK                            x       y       z     vdW  Elec       q    Type
REMARK                         _______ _______ _______ _____ _____    ______ ____
ROOT
ATOM     12  C   UNL     1      -3.331   3.405  25.249  0.00  0.00    +0.115 C 
ATOM     13  C   UNL     1      -4.301   2.592  24.348  0.00  0.00    +0.044 C 
ATOM     14  C   UNL     1      -4.216   4.348  26.075  0.00  0.00    +0.162 C 
ATOM     15  C   UNL     1      -5.715   3.011  24.786  0.00  0.00    +0.044 C 
ATOM     16  C   UNL     1      -5.515   4.437  25.277  0.00  0.00    +0.145 C 
ENDROOT
BRANCH  13  17
ATOM     11  N   UNL     1      -3.478  -0.944  23.253  0.00  0.00    -0.251 NA
ATOM     17  C   UNL     1      -4.082   1.096  24.401  0.00  0.00    -0.024 A 
ATOM     18  C   UNL     1      -4.269   0.385  25.582  0.00  0.00    +0.007 A 
ATOM     19  C   UNL     1      -3.689   0.391  23.275  0.00  0.00    +0.115 A 
ATOM     21  C   UNL     1      -4.060  -0.989  25.599  0.00  0.00    +0.032 A 
ATOM     22  C   UNL     1      -3.669  -1.601  24.420  0.00  0.00    +0.144 A 
BRANCH  22  25
ATOM      2  F   UNL     1      -4.429  -3.754  23.758  0.00  0.00    -0.164 F 
ATOM      3  F   UNL     1      -2.279  -3.438  23.776  0.00  0.00    -0.164 F 
ATOM      4  F   UNL     1      -3.358  -3.631  25.647  0.00  0.00    -0.164 F 
ATOM     25  C   UNL     1      -3.436  -3.076  24.402  0.00  0.00    +0.434 C 
ENDBRANCH  22  25
ENDBRANCH  13  17
BRANCH  14   5
ATOM      5  O   UNL     1      -4.446   3.739  27.344  0.00  0.00    -0.388 OA
ATOM     31  H   UNL     1      -4.277   4.413  28.025  0.00  0.00    +0.210 HD
ENDBRANCH  14   5
BRANCH  16   6
ATOM      6  O   UNL     1      -6.608   4.873  26.058  0.00  0.00    -0.389 OA
ATOM     32  H   UNL     1      -7.202   4.114  26.181  0.00  0.00    +0.210 HD
ENDBRANCH  16   6
BRANCH  12  10
ATOM     10  N   UNL     1      -2.421   4.209  24.391  0.00  0.00    -0.184 NA
ATOM     30  H   UNL     1      -2.827   4.684  23.577  0.00  0.00    +0.148 HD
BRANCH  10   1
ATOM      1  S   UNL     1      -0.738   4.043  24.554  0.00  0.00    +0.059 S 
ATOM      7  O   UNL     1      -0.330   4.528  25.859  0.00  0.00    -0.153 OA
ATOM      8  O   UNL     1      -0.101   4.550  23.355  0.00  0.00    -0.153 OA
BRANCH   1  20
ATOM     20  C   UNL     1      -0.542   2.286  24.540  0.00  0.00    +0.105 A 
ATOM     23  C   UNL     1      -0.137   1.640  23.372  0.00  0.00    +0.032 A 
ATOM     24  C   UNL     1      -0.796   1.547  25.694  0.00  0.00    +0.032 A 
ATOM     26  C   UNL     1       0.016   0.253  23.360  0.00  0.00    +0.047 A 
ATOM     27  C   UNL     1      -0.644   0.160  25.683  0.00  0.00    +0.047 A 
ATOM     28  C   UNL     1      -0.239  -0.486  24.515  0.00  0.00    +0.120 A 
BRANCH  28   9
ATOM      9  O   UNL     1      -0.090  -1.839  24.503  0.00  0.00    -0.495 OA
ATOM     29  C   UNL     1       0.071  -2.486  25.766  0.00  0.00    +0.277 C 
ENDBRANCH  28   9
ENDBRANCH   1  20
ENDBRANCH  10   1
ENDBRANCH  12  10
TORSDOF 8
ENDMDL
MODEL 2
REMARK VINA RESULT:      -0.9      3.027      4.768
REMARK  Name = 75536099
REMARK  9 active torsions:
REMARK  status: ('A' for Active; 'I' for Inactive)
REMARK    1  A    between atoms: S_1  and  N_10
REMARK    2  A    between atoms: S_1  and  C_20
REMARK    3  A    between atoms: O_5  and  C_14
REMARK    4  A    between atoms: O_6  and  C_16
REMARK    5  A    between atoms: O_9  and  C_28
REMARK    6  A    between atoms: O_9  and  C_29
REMARK    7  A    between atoms: N_10  and  C_12
REMARK    8  A    between atoms: C_13  and  C_17
REMARK    9  A    between atoms: C_22  and  C_25
REMARK                            x       y       z     vdW  Elec       q    Type
REMARK                         _______ _______ _______ _____ _____    ______ ____
ROOT
ATOM     12  C   UNL     1      -3.097   3.323  24.084  0.00  0.00    +0.115 C 
ATOM     13  C   UNL     1      -2.344   2.318  25.000  0.00  0.00    +0.044 C 
ATOM     14  C   UNL     1      -3.315   4.582  24.933  0.00  0.00    +0.162 C 
ATOM     15  C   UNL     1      -2.047   3.089  26.297  0.00  0.00    +0.044 C 
ATOM     16  C   UNL     1      -3.192   4.088  26.373  0.00  0.00    +0.145 C 
ENDROOT
BRANCH  13  17
ATOM     11  N   UNL     1       1.262   1.881  23.909  0.00  0.00    -0.251 NA
ATOM     17  C   UNL     1      -1.107   1.719  24.369  0.00  0.00    -0.024 A 
ATOM     18  C   UNL     1      -1.163   0.507  23.689  0.00  0.00    +0.007 A 
ATOM     19  C   UNL     1       0.120   2.360  24.451  0.00  0.00    +0.115 A 
ATOM     21  C   UNL     1      -0.009  -0.019  23.120  0.00  0.00    +0.032 A 
ATOM     22  C   UNL     1       1.167   0.700  23.256  0.00  0.00    +0.144 A 
BRANCH  22  25
ATOM      2  F   UNL     1       2.288  -0.139  21.336  0.00  0.00    -0.164 F 
ATOM      3  F   UNL     1       3.476   1.036  22.726  0.00  0.00    -0.164 F 
ATOM      4  F   UNL     1       2.872  -0.978  23.255  0.00  0.00    -0.164 F 
ATOM     25  C   UNL     1       2.426   0.166  22.658  0.00  0.00    +0.434 C 
ENDBRANCH  22  25
ENDBRANCH  13  17
BRANCH  14   5
ATOM      5  O   UNL     1      -2.273   5.507  24.628  0.00  0.00    -0.388 OA
ATOM     31  H   UNL     1      -1.715   5.101  23.943  0.00  0.00    +0.210 HD
ENDBRANCH  14   5
BRANCH  16   6
ATOM      6  O   UNL     1      -2.910   5.129  27.285  0.00  0.00    -0.389 OA
ATOM     32  H   UNL     1      -3.751   5.397  27.693  0.00  0.00    +0.210 HD
ENDBRANCH  16   6
BRANCH  12  10
ATOM     10  N   UNL     1      -4.415   2.749  23.704  0.00  0.00    -0.184 NA
ATOM     30  H   UNL     1      -4.828   3.048  22.814  0.00  0.00    +0.148 HD
BRANCH  10   1
ATOM      1  S   UNL     1      -5.343   1.923  24.863  0.00  0.00    +0.059 S 
ATOM      7  O   UNL     1      -6.697   1.761  24.370  0.00  0.00    -0.153 OA
ATOM      8  O   UNL     1      -5.107   2.520  26.162  0.00  0.00    -0.153 OA
BRANCH   1  20
ATOM     20  C   UNL     1      -4.574   0.331  24.878  0.00  0.00    +0.105 A 
ATOM     23  C   UNL     1      -3.945  -0.127  26.035  0.00  0.00    +0.032 A 
ATOM     24  C   UNL     1      -4.593  -0.463  23.733  0.00  0.00    +0.032 A 
ATOM     26  C   UNL     1      -3.336  -1.383  26.047  0.00  0.00    +0.047 A 
ATOM     27  C   UNL     1      -3.984  -1.719  23.743  0.00  0.00    +0.047 A 
ATOM     28  C   UNL     1      -3.355  -2.177  24.901  0.00  0.00    +0.120 A 
BRANCH  28   9
ATOM      9  O   UNL     1      -2.761  -3.402  24.912  0.00  0.00    -0.495 OA
ATOM     29  C   UNL     1      -1.398  -3.467  24.489  0.00  0.00    +0.277 C 
ENDBRANCH  28   9
ENDBRANCH   1  20
ENDBRANCH  10   1
ENDBRANCH  12  10
TORSDOF 8
ENDMDL
MODEL 3
REMARK VINA RESULT:       0.4      4.078      6.844
REMARK  Name = 75536099
REMARK  9 active torsions:
REMARK  status: ('A' for Active; 'I' for Inactive)
REMARK    1  A    between atoms: S_1  and  N_10
REMARK    2  A    between atoms: S_1  and  C_20
REMARK    3  A    between atoms: O_5  and  C_14
REMARK    4  A    between atoms: O_6  and  C_16
REMARK    5  A    between atoms: O_9  and  C_28
REMARK    6  A    between atoms: O_9  and  C_29
REMARK    7  A    between atoms: N_10  and  C_12
REMARK    8  A    between atoms: C_13  and  C_17
REMARK    9  A    between atoms: C_22  and  C_25
REMARK                            x       y       z     vdW  Elec       q    Type
REMARK                         _______ _______ _______ _____ _____    ______ ____
ROOT
ATOM     12  C   UNL     1       0.127   1.395  24.316  0.00  0.00    +0.115 C 
ATOM     13  C   UNL     1       0.648   0.467  23.184  0.00  0.00    +0.044 C 
ATOM     14  C   UNL     1      -1.045   0.648  24.965  0.00  0.00    +0.162 C 
ATOM     15  C   UNL     1      -0.165  -0.833  23.313  0.00  0.00    +0.044 C 
ATOM     16  C   UNL     1      -1.484  -0.356  23.901  0.00  0.00    +0.145 C 
ENDROOT
BRANCH  13  17
ATOM     11  N   UNL     1       3.994  -1.255  23.656  0.00  0.00    -0.251 NA
ATOM     17  C   UNL     1       2.142   0.237  23.215  0.00  0.00    -0.024 A 
ATOM     18  C   UNL     1       3.031   1.245  22.856  0.00  0.00    +0.007 A 
ATOM     19  C   UNL     1       2.670  -0.984  23.604  0.00  0.00    +0.115 A 
ATOM     21  C   UNL     1       4.400   1.004  22.895  0.00  0.00    +0.032 A 
ATOM     22  C   UNL     1       4.827  -0.250  23.298  0.00  0.00    +0.144 A 
BRANCH  22  25
ATOM      2  F   UNL     1       6.995   0.430  23.994  0.00  0.00    -0.164 F 
ATOM      3  F   UNL     1       6.589  -1.705  24.005  0.00  0.00    -0.164 F 
ATOM      4  F   UNL     1       6.866  -0.667  22.121  0.00  0.00    -0.164 F 
ATOM     25  C   UNL     1       6.289  -0.545  23.352  0.00  0.00    +0.434 C 
ENDBRANCH  22  25
ENDBRANCH  13  17
BRANCH  14   5
ATOM      5  O   UNL     1      -0.553  -0.027  26.121  0.00  0.00    -0.388 OA
ATOM     31  H   UNL     1      -0.630   0.586  26.871  0.00  0.00    +0.210 HD
ENDBRANCH  14   5
BRANCH  16   6
ATOM      6  O   UNL     1      -2.230  -1.429  24.438  0.00  0.00    -0.389 OA
ATOM     32  H   UNL     1      -3.156  -1.306  24.169  0.00  0.00    +0.210 HD
ENDBRANCH  16   6
BRANCH  12  10
ATOM     10  N   UNL     1      -0.367   2.665  23.721  0.00  0.00    -0.184 NA
ATOM     30  H   UNL     1      -0.186   2.829  22.725  0.00  0.00    +0.148 HD
BRANCH  10   1
ATOM      1  S   UNL     1      -0.881   3.930  24.733  0.00  0.00    +0.059 S 
ATOM      7  O   UNL     1      -0.831   5.182  24.003  0.00  0.00    -0.153 OA
ATOM      8  O   UNL     1      -0.211   3.805  26.013  0.00  0.00    -0.153 OA
BRANCH   1  20
ATOM     20  C   UNL     1      -2.580   3.518  24.996  0.00  0.00    +0.105 A 
ATOM     23  C   UNL     1      -3.206   3.876  26.189  0.00  0.00    +0.032 A 
ATOM     24  C   UNL     1      -3.291   2.833  24.012  0.00  0.00    +0.032 A 
ATOM     26  C   UNL     1      -4.547   3.549  26.399  0.00  0.00    +0.047 A 
ATOM     27  C   UNL     1      -4.632   2.505  24.220  0.00  0.00    +0.047 A 
ATOM     28  C   UNL     1      -5.258   2.864  25.414  0.00  0.00    +0.120 A 
BRANCH  28   9
ATOM      9  O   UNL     1      -6.566   2.545  25.618  0.00  0.00    -0.495 OA
ATOM     29  C   UNL     1      -6.861   1.681  26.716  0.00  0.00    +0.277 C 
ENDBRANCH  28   9
ENDBRANCH   1  20
ENDBRANCH  10   1
ENDBRANCH  12  10
TORSDOF 8
ENDMDL
MODEL 4
REMARK VINA RESULT:       1.2      3.480      6.104
REMARK  Name = 75536099
REMARK  9 active torsions:
REMARK  status: ('A' for Active; 'I' for Inactive)
REMARK    1  A    between atoms: S_1  and  N_10
REMARK    2  A    between atoms: S_1  and  C_20
REMARK    3  A    between atoms: O_5  and  C_14
REMARK    4  A    between atoms: O_6  and  C_16
REMARK    5  A    between atoms: O_9  and  C_28
REMARK    6  A    between atoms: O_9  and  C_29
REMARK    7  A    between atoms: N_10  and  C_12
REMARK    8  A    between atoms: C_13  and  C_17
REMARK    9  A    between atoms: C_22  and  C_25
REMARK                            x       y       z     vdW  Elec       q    Type
REMARK                         _______ _______ _______ _____ _____    ______ ____
ROOT
ATOM     12  C   UNL     1      -3.080  -0.403  24.904  0.00  0.00    +0.115 C 
ATOM     13  C   UNL     1      -2.207  -1.174  23.875  0.00  0.00    +0.044 C 
ATOM     14  C   UNL     1      -3.566  -1.453  25.911  0.00  0.00    +0.162 C 
ATOM     15  C   UNL     1      -2.124  -2.615  24.407  0.00  0.00    +0.044 C 
ATOM     16  C   UNL     1      -3.432  -2.778  25.165  0.00  0.00    +0.145 C 
ENDROOT
BRANCH  13  17
ATOM     11  N   UNL     1       1.265  -0.606  22.460  0.00  0.00    -0.251 NA
ATOM     17  C   UNL     1      -0.850  -0.552  23.630  0.00  0.00    -0.024 A 
ATOM     18  C   UNL     1      -0.455   0.596  24.307  0.00  0.00    +0.007 A 
ATOM     19  C   UNL     1       0.039  -1.110  22.724  0.00  0.00    +0.115 A 
ATOM     21  C   UNL     1       0.799   1.145  24.061  0.00  0.00    +0.032 A 
ATOM     22  C   UNL     1       1.614   0.512  23.137  0.00  0.00    +0.144 A 
BRANCH  22  25
ATOM      2  F   UNL     1       2.991   2.435  22.902  0.00  0.00    -0.164 F 
ATOM      3  F   UNL     1       3.930   0.653  23.719  0.00  0.00    -0.164 F 
ATOM      4  F   UNL     1       3.439   0.745  21.609  0.00  0.00    -0.164 F 
ATOM     25  C   UNL     1       2.967   1.072  22.848  0.00  0.00    +0.434 C 
ENDBRANCH  22  25
ENDBRANCH  13  17
BRANCH  14   5
ATOM      5  O   UNL     1      -2.695  -1.420  27.040  0.00  0.00    -0.388 OA
ATOM     31  H   UNL     1      -1.802  -1.641  26.724  0.00  0.00    +0.210 HD
ENDBRANCH  14   5
BRANCH  16   6
ATOM      6  O   UNL     1      -3.392  -3.892  26.033  0.00  0.00    -0.389 OA
ATOM     32  H   UNL     1      -3.521  -3.562  26.939  0.00  0.00    +0.210 HD
ENDBRANCH  16   6
BRANCH  12  10
ATOM     10  N   UNL     1      -4.250   0.192  24.207  0.00  0.00    -0.184 NA
ATOM     30  H   UNL     1      -4.366  -0.010  23.207  0.00  0.00    +0.148 HD
BRANCH  10   1
ATOM      1  S   UNL     1      -5.139   1.432  24.953  0.00  0.00    +0.059 S 
ATOM      7  O   UNL     1      -5.463   1.043  26.312  0.00  0.00    -0.153 OA
ATOM      8  O   UNL     1      -6.187   1.865  24.049  0.00  0.00    -0.153 OA
BRANCH   1  20
ATOM     20  C   UNL     1      -3.950   2.738  25.029  0.00  0.00    +0.105 A 
ATOM     23  C   UNL     1      -3.072   2.943  23.964  0.00  0.00    +0.032 A 
ATOM     24  C   UNL     1      -3.887   3.560  26.152  0.00  0.00    +0.032 A 
ATOM     26  C   UNL     1      -2.132   3.972  24.023  0.00  0.00    +0.047 A 
ATOM     27  C   UNL     1      -2.947   4.589  26.213  0.00  0.00    +0.047 A 
ATOM     28  C   UNL     1      -2.069   4.794  25.148  0.00  0.00    +0.120 A 
BRANCH  28   9
ATOM      9  O   UNL     1      -1.152   5.798  25.207  0.00  0.00    -0.495 OA
ATOM     29  C   UNL     1       0.047   5.627  24.451  0.00  0.00    +0.277 C 
ENDBRANCH  28   9
ENDBRANCH   1  20
ENDBRANCH  10   1
ENDBRANCH  12  10
TORSDOF 8
ENDMDL
MODEL 5
REMARK VINA RESULT:       1.3      3.744      6.929
REMARK  Name = 75536099
REMARK  9 active torsions:
REMARK  status: ('A' for Active; 'I' for Inactive)
REMARK    1  A    between atoms: S_1  and  N_10
REMARK    2  A    between atoms: S_1  and  C_20
REMARK    3  A    between atoms: O_5  and  C_14
REMARK    4  A    between atoms: O_6  and  C_16
REMARK    5  A    between atoms: O_9  and  C_28
REMARK    6  A    between atoms: O_9  and  C_29
REMARK    7  A    between atoms: N_10  and  C_12
REMARK    8  A    between atoms: C_13  and  C_17
REMARK    9  A    between atoms: C_22  and  C_25
REMARK                            x       y       z     vdW  Elec       q    Type
REMARK                         _______ _______ _______ _____ _____    ______ ____
ROOT
ATOM     12  C   UNL     1      -0.990  -1.273  24.722  0.00  0.00    +0.115 C 
ATOM     13  C   UNL     1      -0.332  -0.176  23.840  0.00  0.00    +0.044 C 
ATOM     14  C   UNL     1       0.151  -2.197  25.165  0.00  0.00    +0.162 C 
ATOM     15  C   UNL     1       1.182  -0.442  23.918  0.00  0.00    +0.044 C 
ATOM     16  C   UNL     1       1.256  -1.945  24.140  0.00  0.00    +0.145 C 
ENDROOT
BRANCH  13  17
ATOM     11  N   UNL     1      -1.073   3.534  23.574  0.00  0.00    -0.251 NA
ATOM     17  C   UNL     1      -0.707   1.236  24.232  0.00  0.00    -0.024 A 
ATOM     18  C   UNL     1      -1.021   1.556  25.549  0.00  0.00    +0.007 A 
ATOM     19  C   UNL     1      -0.748   2.253  23.290  0.00  0.00    +0.115 A 
ATOM     21  C   UNL     1      -1.362   2.863  25.878  0.00  0.00    +0.032 A 
ATOM     22  C   UNL     1      -1.373   3.806  24.864  0.00  0.00    +0.144 A 
BRANCH  22  25
ATOM      2  F   UNL     1      -0.638   6.017  25.336  0.00  0.00    -0.164 F 
ATOM      3  F   UNL     1      -2.492   5.819  24.218  0.00  0.00    -0.164 F 
ATOM      4  F   UNL     1      -2.453   5.353  26.335  0.00  0.00    -0.164 F 
ATOM     25  C   UNL     1      -1.734   5.219  25.181  0.00  0.00    +0.434 C 
ENDBRANCH  22  25
ENDBRANCH  13  17
BRANCH  14   5
ATOM      5  O   UNL     1       0.570  -1.790  26.466  0.00  0.00    -0.388 OA
ATOM     31  H   UNL     1       0.815  -0.851  26.413  0.00  0.00    +0.210 HD
ENDBRANCH  14   5
BRANCH  16   6
ATOM      6  O   UNL     1       2.531  -2.337  24.604  0.00  0.00    -0.389 OA
ATOM     32  H   UNL     1       3.095  -2.481  23.825  0.00  0.00    +0.210 HD
ENDBRANCH  16   6
BRANCH  12  10
ATOM     10  N   UNL     1      -1.960  -2.045  23.901  0.00  0.00    -0.184 NA
ATOM     30  H   UNL     1      -1.659  -2.358  22.972  0.00  0.00    +0.148 HD
BRANCH  10   1
ATOM      1  S   UNL     1      -3.600  -2.086  24.345  0.00  0.00    +0.059 S 
ATOM      7  O   UNL     1      -3.723  -2.622  25.687  0.00  0.00    -0.153 OA
ATOM      8  O   UNL     1      -4.363  -2.664  23.257  0.00  0.00    -0.153 OA
BRANCH   1  20
ATOM     20  C   UNL     1      -4.004  -0.366  24.405  0.00  0.00    +0.105 A 
ATOM     23  C   UNL     1      -3.777   0.442  23.291  0.00  0.00    +0.032 A 
ATOM     24  C   UNL     1      -4.548   0.182  25.565  0.00  0.00    +0.032 A 
ATOM     26  C   UNL     1      -4.094   1.800  23.338  0.00  0.00    +0.047 A 
ATOM     27  C   UNL     1      -4.865   1.540  25.614  0.00  0.00    +0.047 A 
ATOM     28  C   UNL     1      -4.637   2.348  24.500  0.00  0.00    +0.120 A 
BRANCH  28   9
ATOM      9  O   UNL     1      -4.947   3.673  24.546  0.00  0.00    -0.495 OA
ATOM     29  C   UNL     1      -5.690   4.127  25.678  0.00  0.00    +0.277 C 
ENDBRANCH  28   9
ENDBRANCH   1  20
ENDBRANCH  10   1
ENDBRANCH  12  10
TORSDOF 8
ENDMDL
MODEL 6
REMARK VINA RESULT:       1.4      3.585      5.648
REMARK  Name = 75536099
REMARK  9 active torsions:
REMARK  status: ('A' for Active; 'I' for Inactive)
REMARK    1  A    between atoms: S_1  and  N_10
REMARK    2  A    between atoms: S_1  and  C_20
REMARK    3  A    between atoms: O_5  and  C_14
REMARK    4  A    between atoms: O_6  and  C_16
REMARK    5  A    between atoms: O_9  and  C_28
REMARK    6  A    between atoms: O_9  and  C_29
REMARK    7  A    between atoms: N_10  and  C_12
REMARK    8  A    between atoms: C_13  and  C_17
REMARK    9  A    between atoms: C_22  and  C_25
REMARK                            x       y       z     vdW  Elec       q    Type
REMARK                         _______ _______ _______ _____ _____    ______ ____
ROOT
ATOM     12  C   UNL     1      -2.733  -0.071  24.490  0.00  0.00    +0.115 C 
ATOM     13  C   UNL     1      -1.979  -0.904  23.417  0.00  0.00    +0.044 C 
ATOM     14  C   UNL     1      -3.413  -1.092  25.412  0.00  0.00    +0.162 C 
ATOM     15  C   UNL     1      -2.152  -2.372  23.842  0.00  0.00    +0.044 C 
ATOM     16  C   UNL     1      -3.486  -2.365  24.572  0.00  0.00    +0.145 C 
ENDROOT
BRANCH  13  17
ATOM     11  N   UNL     1       1.386  -0.302  21.774  0.00  0.00    -0.251 NA
ATOM     17  C   UNL     1      -0.532  -0.506  23.233  0.00  0.00    -0.024 A 
ATOM     18  C   UNL     1       0.212   0.003  24.293  0.00  0.00    +0.007 A 
ATOM     19  C   UNL     1       0.096  -0.637  22.005  0.00  0.00    +0.115 A 
ATOM     21  C   UNL     1       1.541   0.361  24.094  0.00  0.00    +0.032 A 
ATOM     22  C   UNL     1       2.076   0.191  22.828  0.00  0.00    +0.144 A 
BRANCH  22  25
ATOM      2  F   UNL     1       3.779   1.844  22.954  0.00  0.00    -0.164 F 
ATOM      3  F   UNL     1       4.395  -0.220  23.245  0.00  0.00    -0.164 F 
ATOM      4  F   UNL     1       3.862   0.479  21.263  0.00  0.00    -0.164 F 
ATOM     25  C   UNL     1       3.500   0.563  22.577  0.00  0.00    +0.434 C 
ENDBRANCH  22  25
ENDBRANCH  13  17
BRANCH  14   5
ATOM      5  O   UNL     1      -2.575  -1.287  26.549  0.00  0.00    -0.388 OA
ATOM     31  H   UNL     1      -2.140  -2.150  26.446  0.00  0.00    +0.210 HD
ENDBRANCH  14   5
BRANCH  16   6
ATOM      6  O   UNL     1      -3.655  -3.527  25.356  0.00  0.00    -0.389 OA
ATOM     32  H   UNL     1      -3.076  -4.216  24.987  0.00  0.00    +0.210 HD
ENDBRANCH  16   6
BRANCH  12  10
ATOM     10  N   UNL     1      -3.770   0.762  23.826  0.00  0.00    -0.184 NA
ATOM     30  H   UNL     1      -4.434   0.291  23.201  0.00  0.00    +0.148 HD
BRANCH  10   1
ATOM      1  S   UNL     1      -3.625   2.454  23.827  0.00  0.00    +0.059 S 
ATOM      7  O   UNL     1      -4.732   3.033  24.564  0.00  0.00    -0.153 OA
ATOM      8  O   UNL     1      -3.336   2.899  22.478  0.00  0.00    -0.153 OA
BRANCH   1  20
ATOM     20  C   UNL     1      -2.153   2.693  24.776  0.00  0.00    +0.105 A 
ATOM     23  C   UNL     1      -2.079   2.203  26.080  0.00  0.00    +0.032 A 
ATOM     24  C   UNL     1      -1.069   3.372  24.223  0.00  0.00    +0.032 A 
ATOM     26  C   UNL     1      -0.918   2.393  26.831  0.00  0.00    +0.047 A 
ATOM     27  C   UNL     1       0.092   3.563  24.973  0.00  0.00    +0.047 A 
ATOM     28  C   UNL     1       0.166   3.073  26.277  0.00  0.00    +0.120 A 
BRANCH  28   9
ATOM      9  O   UNL     1       1.299   3.259  27.009  0.00  0.00    -0.495 OA
ATOM     29  C   UNL     1       1.361   2.618  28.284  0.00  0.00    +0.277 C 
ENDBRANCH  28   9
ENDBRANCH   1  20
ENDBRANCH  10   1
ENDBRANCH  12  10
TORSDOF 8
ENDMDL
