MODEL 1
REMARK VINA RESULT:       0.5      0.000      0.000
REMARK  Name = 44716549
REMARK  17 active torsions:
REMARK  status: ('A' for Active; 'I' for Inactive)
REMARK    1  A    between atoms: O_5  and  C_16
REMARK    2  A    between atoms: O_6  and  C_17
REMARK    3  A    between atoms: O_9  and  C_28
REMARK    4  A    between atoms: O_9  and  C_33
REMARK    5  A    between atoms: O_11  and  C_36
REMARK    6  A    between atoms: O_11  and  C_37
REMARK    7  A    between atoms: N_12  and  C_19
REMARK    8  A    between atoms: C_15  and  C_19
REMARK    9  A    between atoms: C_18  and  C_20
REMARK   10  A    between atoms: C_20  and  C_23
REMARK   11  A    between atoms: C_21  and  C_22
REMARK   12  A    between atoms: C_21  and  C_25
REMARK   13  A    between atoms: C_21  and  C_26
REMARK   14  A    between atoms: C_21  and  C_27
REMARK   15  A    between atoms: C_22  and  C_24
REMARK   16  A    between atoms: C_25  and  C_28
REMARK   17  A    between atoms: C_29  and  C_30
REMARK                            x       y       z     vdW  Elec       q    Type
REMARK                         _______ _______ _______ _____ _____    ______ ____
ROOT
ATOM      4  O   UNL     1      -4.123   2.091  25.740  0.00  0.00    -0.366 OA
ATOM     15  C   UNL     1      -5.382   1.379  25.742  0.00  0.00    +0.167 C 
ATOM     16  C   UNL     1      -6.470   2.432  25.918  0.00  0.00    +0.176 C 
ATOM     17  C   UNL     1      -5.831   3.654  25.294  0.00  0.00    +0.175 C 
ATOM     18  C   UNL     1      -4.387   3.505  25.744  0.00  0.00    +0.159 C 
ENDROOT
BRANCH  16   5
ATOM      5  O   UNL     1      -6.669   2.635  27.316  0.00  0.00    -0.387 OA
ATOM     39  H   UNL     1      -6.446   3.562  27.509  0.00  0.00    +0.210 HD
ENDBRANCH  16   5
BRANCH  17   6
ATOM      6  O   UNL     1      -6.400   4.869  25.735  0.00  0.00    -0.387 OA
ATOM     40  H   UNL     1      -6.831   5.283  24.968  0.00  0.00    +0.210 HD
ENDBRANCH  17   6
BRANCH  15  19
ATOM     19  C   UNL     1      -5.491   0.623  24.425  0.00  0.00    +0.138 C 
BRANCH  19  12
ATOM      8  O   UNL     1      -4.961  -2.117  23.710  0.00  0.00    -0.276 OA
ATOM     12  N   UNL     1      -4.211   0.044  24.087  0.00  0.00    -0.313 N 
ATOM     24  C   UNL     1      -4.051  -1.295  23.754  0.00  0.00    +0.214 C 
ATOM     38  H   UNL     1      -3.400   0.657  24.087  0.00  0.00    +0.149 HD
BRANCH  24  22
ATOM     22  C   UNL     1      -2.591  -1.618  23.456  0.00  0.00    +0.102 C 
BRANCH  22  21
ATOM     21  C   UNL     1      -1.854  -2.567  24.434  0.00  0.00    -0.017 C 
ATOM     26  C   UNL     1      -1.156  -3.704  23.659  0.00  0.00    +0.012 C 
ATOM     27  C   UNL     1      -2.921  -3.225  25.341  0.00  0.00    +0.012 C 
BRANCH  21  25
ATOM     25  C   UNL     1      -0.803  -1.849  25.314  0.00  0.00    +0.127 C 
BRANCH  25  28
ATOM     10  O   UNL     1      -2.428  -0.513  26.508  0.00  0.00    -0.251 OA
ATOM     28  C   UNL     1      -1.312  -0.609  26.013  0.00  0.00    +0.307 C 
BRANCH  28   9
ATOM      9  O   UNL     1      -0.357   0.365  25.990  0.00  0.00    -0.468 OA
ATOM     33  C   UNL     1      -0.626   1.512  26.802  0.00  0.00    +0.280 C 
ENDBRANCH  28   9
ENDBRANCH  25  28
ENDBRANCH  21  25
ENDBRANCH  22  21
ENDBRANCH  24  22
ENDBRANCH  19  12
ENDBRANCH  15  19
BRANCH  18  20
ATOM     20  C   UNL     1      -3.397   4.212  24.835  0.00  0.00    +0.133 C 
BRANCH  20  23
ATOM      7  O   UNL     1      -3.082   2.607  23.028  0.00  0.00    -0.338 OA
ATOM     13  N   UNL     1      -1.277   2.899  24.319  0.00  0.00    -0.191 NA
ATOM     14  N   UNL     1      -2.091   1.765  22.507  0.00  0.00    -0.056 NA
ATOM     23  C   UNL     1      -2.521   3.237  24.091  0.00  0.00    +0.230 A 
ATOM     29  C   UNL     1      -1.057   1.994  23.322  0.00  0.00    +0.202 A 
BRANCH  29  30
ATOM     30  C   UNL     1       0.208   1.336  23.166  0.00  0.00    +0.023 A 
ATOM     31  C   UNL     1       0.274   0.085  22.553  0.00  0.00    +0.015 A 
ATOM     32  C   UNL     1       1.373   1.948  23.629  0.00  0.00    +0.015 A 
ATOM     34  C   UNL     1       1.505  -0.554  22.404  0.00  0.00    +0.046 A 
ATOM     35  C   UNL     1       2.604   1.309  23.480  0.00  0.00    +0.046 A 
ATOM     36  C   UNL     1       2.669   0.057  22.867  0.00  0.00    +0.130 A 
BRANCH  36  11
ATOM     11  O   UNL     1       3.870  -0.566  22.721  0.00  0.00    -0.406 OA
BRANCH  11  37
ATOM      1  F   UNL     1       6.113  -0.317  22.648  0.00  0.00    -0.133 F 
ATOM      2  F   UNL     1       4.917   1.350  23.401  0.00  0.00    -0.133 F 
ATOM      3  F   UNL     1       5.161  -0.485  24.608  0.00  0.00    -0.133 F 
ATOM     37  C   UNL     1       5.008   0.004  23.359  0.00  0.00    +0.575 C 
ENDBRANCH  11  37
ENDBRANCH  36  11
ENDBRANCH  29  30
ENDBRANCH  20  23
ENDBRANCH  18  20
TORSDOF 14
ENDMDL
MODEL 2
REMARK VINA RESULT:       0.8      1.402      4.661
REMARK  Name = 44716549
REMARK  17 active torsions:
REMARK  status: ('A' for Active; 'I' for Inactive)
REMARK    1  A    between atoms: O_5  and  C_16
REMARK    2  A    between atoms: O_6  and  C_17
REMARK    3  A    between atoms: O_9  and  C_28
REMARK    4  A    between atoms: O_9  and  C_33
REMARK    5  A    between atoms: O_11  and  C_36
REMARK    6  A    between atoms: O_11  and  C_37
REMARK    7  A    between atoms: N_12  and  C_19
REMARK    8  A    between atoms: C_15  and  C_19
REMARK    9  A    between atoms: C_18  and  C_20
REMARK   10  A    between atoms: C_20  and  C_23
REMARK   11  A    between atoms: C_21  and  C_22
REMARK   12  A    between atoms: C_21  and  C_25
REMARK   13  A    between atoms: C_21  and  C_26
REMARK   14  A    between atoms: C_21  and  C_27
REMARK   15  A    between atoms: C_22  and  C_24
REMARK   16  A    between atoms: C_25  and  C_28
REMARK   17  A    between atoms: C_29  and  C_30
REMARK                            x       y       z     vdW  Elec       q    Type
REMARK                         _______ _______ _______ _____ _____    ______ ____
ROOT
ATOM      4  O   UNL     1      -3.571  -0.360  25.809  0.00  0.00    -0.366 OA
ATOM     15  C   UNL     1      -2.629  -1.146  26.574  0.00  0.00    +0.167 C 
ATOM     16  C   UNL     1      -2.553  -2.508  25.893  0.00  0.00    +0.176 C 
ATOM     17  C   UNL     1      -2.874  -2.160  24.454  0.00  0.00    +0.175 C 
ATOM     18  C   UNL     1      -3.946  -1.096  24.631  0.00  0.00    +0.159 C 
ENDROOT
BRANCH  16   5
ATOM      5  O   UNL     1      -3.577  -3.336  26.442  0.00  0.00    -0.387 OA
ATOM     39  H   UNL     1      -4.189  -3.560  25.720  0.00  0.00    +0.210 HD
ENDBRANCH  16   5
BRANCH  17   6
ATOM      6  O   UNL     1      -3.341  -3.261  23.703  0.00  0.00    -0.387 OA
ATOM     40  H   UNL     1      -2.565  -3.787  23.446  0.00  0.00    +0.210 HD
ENDBRANCH  17   6
BRANCH  15  19
ATOM     19  C   UNL     1      -1.299  -0.406  26.576  0.00  0.00    +0.138 C 
BRANCH  19  12
ATOM      8  O   UNL     1       0.043   2.088  27.103  0.00  0.00    -0.276 OA
ATOM     12  N   UNL     1      -1.423   0.823  25.827  0.00  0.00    -0.313 N 
ATOM     24  C   UNL     1      -0.733   1.983  26.158  0.00  0.00    +0.214 C 
ATOM     38  H   UNL     1      -2.039   0.825  25.019  0.00  0.00    +0.149 HD
BRANCH  24  22
ATOM     22  C   UNL     1      -1.071   3.117  25.198  0.00  0.00    +0.102 C 
BRANCH  22  21
ATOM     21  C   UNL     1      -2.336   3.961  25.502  0.00  0.00    -0.017 C 
ATOM     26  C   UNL     1      -2.053   5.460  25.269  0.00  0.00    +0.012 C 
ATOM     27  C   UNL     1      -2.661   3.789  27.005  0.00  0.00    +0.012 C 
BRANCH  21  25
ATOM     25  C   UNL     1      -3.566   3.551  24.659  0.00  0.00    +0.127 C 
BRANCH  25  28
ATOM     10  O   UNL     1      -5.501   4.568  25.694  0.00  0.00    -0.251 OA
ATOM     28  C   UNL     1      -4.875   3.553  25.416  0.00  0.00    +0.307 C 
BRANCH  28   9
ATOM      9  O   UNL     1      -5.228   2.277  25.741  0.00  0.00    -0.468 OA
ATOM     33  C   UNL     1      -6.380   1.763  25.063  0.00  0.00    +0.280 C 
ENDBRANCH  28   9
ENDBRANCH  25  28
ENDBRANCH  21  25
ENDBRANCH  22  21
ENDBRANCH  24  22
ENDBRANCH  19  12
ENDBRANCH  15  19
BRANCH  18  20
ATOM     20  C   UNL     1      -4.054  -0.149  23.450  0.00  0.00    +0.133 C 
BRANCH  20  23
ATOM      7  O   UNL     1      -2.723   1.615  22.420  0.00  0.00    -0.338 OA
ATOM     13  N   UNL     1      -1.517  -0.086  23.234  0.00  0.00    -0.191 NA
ATOM     14  N   UNL     1      -1.383   1.928  22.158  0.00  0.00    -0.056 NA
ATOM     23  C   UNL     1      -2.713   0.415  23.055  0.00  0.00    +0.230 A 
ATOM     29  C   UNL     1      -0.734   0.877  22.668  0.00  0.00    +0.202 A 
BRANCH  29  30
ATOM     30  C   UNL     1       0.695   0.760  22.629  0.00  0.00    +0.023 A 
ATOM     31  C   UNL     1       1.296  -0.199  21.813  0.00  0.00    +0.015 A 
ATOM     32  C   UNL     1       1.485   1.606  23.408  0.00  0.00    +0.015 A 
ATOM     34  C   UNL     1       2.685  -0.313  21.778  0.00  0.00    +0.046 A 
ATOM     35  C   UNL     1       2.874   1.493  23.373  0.00  0.00    +0.046 A 
ATOM     36  C   UNL     1       3.475   0.533  22.557  0.00  0.00    +0.130 A 
BRANCH  36  11
ATOM     11  O   UNL     1       4.830   0.423  22.522  0.00  0.00    -0.406 OA
BRANCH  11  37
ATOM      1  F   UNL     1       6.777  -0.404  23.313  0.00  0.00    -0.133 F 
ATOM      2  F   UNL     1       5.487   0.689  24.697  0.00  0.00    -0.133 F 
ATOM      3  F   UNL     1       4.917  -1.327  23.994  0.00  0.00    -0.133 F 
ATOM     37  C   UNL     1       5.489  -0.156  23.644  0.00  0.00    +0.575 C 
ENDBRANCH  11  37
ENDBRANCH  36  11
ENDBRANCH  29  30
ENDBRANCH  20  23
ENDBRANCH  18  20
TORSDOF 14
ENDMDL
MODEL 3
REMARK VINA RESULT:       1.0      2.104      4.064
REMARK  Name = 44716549
REMARK  17 active torsions:
REMARK  status: ('A' for Active; 'I' for Inactive)
REMARK    1  A    between atoms: O_5  and  C_16
REMARK    2  A    between atoms: O_6  and  C_17
REMARK    3  A    between atoms: O_9  and  C_28
REMARK    4  A    between atoms: O_9  and  C_33
REMARK    5  A    between atoms: O_11  and  C_36
REMARK    6  A    between atoms: O_11  and  C_37
REMARK    7  A    between atoms: N_12  and  C_19
REMARK    8  A    between atoms: C_15  and  C_19
REMARK    9  A    between atoms: C_18  and  C_20
REMARK   10  A    between atoms: C_20  and  C_23
REMARK   11  A    between atoms: C_21  and  C_22
REMARK   12  A    between atoms: C_21  and  C_25
REMARK   13  A    between atoms: C_21  and  C_26
REMARK   14  A    between atoms: C_21  and  C_27
REMARK   15  A    between atoms: C_22  and  C_24
REMARK   16  A    between atoms: C_25  and  C_28
REMARK   17  A    between atoms: C_29  and  C_30
REMARK                            x       y       z     vdW  Elec       q    Type
REMARK                         _______ _______ _______ _____ _____    ______ ____
ROOT
ATOM      4  O   UNL     1      -5.503   2.599  23.642  0.00  0.00    -0.366 OA
ATOM     15  C   UNL     1      -4.808   3.788  24.085  0.00  0.00    +0.167 C 
ATOM     16  C   UNL     1      -5.122   3.939  25.570  0.00  0.00    +0.176 C 
ATOM     17  C   UNL     1      -5.349   2.503  25.993  0.00  0.00    +0.175 C 
ATOM     18  C   UNL     1      -6.080   1.942  24.784  0.00  0.00    +0.159 C 
ENDROOT
BRANCH  16   5
ATOM      5  O   UNL     1      -6.329   4.690  25.693  0.00  0.00    -0.387 OA
ATOM     39  H   UNL     1      -6.515   5.086  24.824  0.00  0.00    +0.210 HD
ENDBRANCH  16   5
BRANCH  17   6
ATOM      6  O   UNL     1      -6.112   2.383  27.175  0.00  0.00    -0.387 OA
ATOM     40  H   UNL     1      -6.240   3.278  27.531  0.00  0.00    +0.210 HD
ENDBRANCH  17   6
BRANCH  15  19
ATOM     19  C   UNL     1      -3.324   3.590  23.807  0.00  0.00    +0.138 C 
BRANCH  19  12
ATOM      8  O   UNL     1      -1.458   5.207  25.291  0.00  0.00    -0.276 OA
ATOM     12  N   UNL     1      -2.642   3.231  25.030  0.00  0.00    -0.313 N 
ATOM     24  C   UNL     1      -1.754   4.081  25.677  0.00  0.00    +0.214 C 
ATOM     38  H   UNL     1      -2.836   2.317  25.428  0.00  0.00    +0.149 HD
BRANCH  24  22
ATOM     22  C   UNL     1      -1.185   3.428  26.932  0.00  0.00    +0.102 C 
BRANCH  22  21
ATOM     21  C   UNL     1       0.072   2.535  26.767  0.00  0.00    -0.017 C 
ATOM     26  C   UNL     1       0.510   2.487  25.288  0.00  0.00    +0.012 C 
ATOM     27  C   UNL     1      -0.323   1.095  27.171  0.00  0.00    +0.012 C 
BRANCH  21  25
ATOM     25  C   UNL     1       1.273   2.999  27.625  0.00  0.00    +0.127 C 
BRANCH  25  28
ATOM     10  O   UNL     1       0.158   2.748  29.757  0.00  0.00    -0.251 OA
ATOM     28  C   UNL     1       1.177   2.632  29.089  0.00  0.00    +0.307 C 
BRANCH  28   9
ATOM      9  O   UNL     1       2.383   2.177  29.535  0.00  0.00    -0.468 OA
ATOM     33  C   UNL     1       3.521   2.596  28.774  0.00  0.00    +0.280 C 
ENDBRANCH  28   9
ENDBRANCH  25  28
ENDBRANCH  21  25
ENDBRANCH  22  21
ENDBRANCH  24  22
ENDBRANCH  19  12
ENDBRANCH  15  19
BRANCH  18  20
ATOM     20  C   UNL     1      -5.934   0.439  24.636  0.00  0.00    +0.133 C 
BRANCH  20  23
ATOM      7  O   UNL     1      -4.205  -0.748  25.879  0.00  0.00    -0.338 OA
ATOM     13  N   UNL     1      -3.479   0.222  23.995  0.00  0.00    -0.191 NA
ATOM     14  N   UNL     1      -2.837  -1.035  25.795  0.00  0.00    -0.056 NA
ATOM     23  C   UNL     1      -4.501  -0.005  24.781  0.00  0.00    +0.230 A 
ATOM     29  C   UNL     1      -2.480  -0.430  24.659  0.00  0.00    +0.202 A 
BRANCH  29  30
ATOM     30  C   UNL     1      -1.137  -0.458  24.158  0.00  0.00    +0.023 A 
ATOM     31  C   UNL     1      -0.205  -1.339  24.708  0.00  0.00    +0.015 A 
ATOM     32  C   UNL     1      -0.762   0.396  23.120  0.00  0.00    +0.015 A 
ATOM     34  C   UNL     1       1.102  -1.364  24.221  0.00  0.00    +0.046 A 
ATOM     35  C   UNL     1       0.545   0.370  22.633  0.00  0.00    +0.046 A 
ATOM     36  C   UNL     1       1.477  -0.510  23.185  0.00  0.00    +0.130 A 
BRANCH  36  11
ATOM     11  O   UNL     1       2.752  -0.536  22.709  0.00  0.00    -0.406 OA
BRANCH  11  37
ATOM      1  F   UNL     1       4.565   0.475  23.598  0.00  0.00    -0.133 F 
ATOM      2  F   UNL     1       4.005   0.985  21.548  0.00  0.00    -0.133 F 
ATOM      3  F   UNL     1       2.781   1.688  23.249  0.00  0.00    -0.133 F 
ATOM     37  C   UNL     1       3.516   0.664  22.765  0.00  0.00    +0.575 C 
ENDBRANCH  11  37
ENDBRANCH  36  11
ENDBRANCH  29  30
ENDBRANCH  20  23
ENDBRANCH  18  20
TORSDOF 14
ENDMDL
MODEL 4
REMARK VINA RESULT:       2.0      2.219      4.838
REMARK  Name = 44716549
REMARK  17 active torsions:
REMARK  status: ('A' for Active; 'I' for Inactive)
REMARK    1  A    between atoms: O_5  and  C_16
REMARK    2  A    between atoms: O_6  and  C_17
REMARK    3  A    between atoms: O_9  and  C_28
REMARK    4  A    between atoms: O_9  and  C_33
REMARK    5  A    between atoms: O_11  and  C_36
REMARK    6  A    between atoms: O_11  and  C_37
REMARK    7  A    between atoms: N_12  and  C_19
REMARK    8  A    between atoms: C_15  and  C_19
REMARK    9  A    between atoms: C_18  and  C_20
REMARK   10  A    between atoms: C_20  and  C_23
REMARK   11  A    between atoms: C_21  and  C_22
REMARK   12  A    between atoms: C_21  and  C_25
REMARK   13  A    between atoms: C_21  and  C_26
REMARK   14  A    between atoms: C_21  and  C_27
REMARK   15  A    between atoms: C_22  and  C_24
REMARK   16  A    between atoms: C_25  and  C_28
REMARK   17  A    between atoms: C_29  and  C_30
REMARK                            x       y       z     vdW  Elec       q    Type
REMARK                         _______ _______ _______ _____ _____    ______ ____
ROOT
ATOM      4  O   UNL     1      -3.512  -0.432  23.466  0.00  0.00    -0.366 OA
ATOM     15  C   UNL     1      -4.313  -0.779  24.618  0.00  0.00    +0.167 C 
ATOM     16  C   UNL     1      -3.339  -1.259  25.689  0.00  0.00    +0.176 C 
ATOM     17  C   UNL     1      -2.081  -0.491  25.339  0.00  0.00    +0.175 C 
ATOM     18  C   UNL     1      -2.120  -0.520  23.820  0.00  0.00    +0.159 C 
ENDROOT
BRANCH  16   5
ATOM      5  O   UNL     1      -3.133  -2.659  25.504  0.00  0.00    -0.387 OA
ATOM     39  H   UNL     1      -2.400  -2.764  24.873  0.00  0.00    +0.210 HD
ENDBRANCH  16   5
BRANCH  17   6
ATOM      6  O   UNL     1      -0.905  -1.083  25.849  0.00  0.00    -0.387 OA
ATOM     40  H   UNL     1      -0.749  -1.900  25.347  0.00  0.00    +0.210 HD
ENDBRANCH  17   6
BRANCH  15  19
ATOM     19  C   UNL     1      -5.091   0.462  25.035  0.00  0.00    +0.138 C 
BRANCH  19  12
ATOM      8  O   UNL     1      -5.879   3.201  25.453  0.00  0.00    -0.276 OA
ATOM     12  N   UNL     1      -4.298   1.643  24.784  0.00  0.00    -0.313 N 
ATOM     24  C   UNL     1      -4.765   2.931  25.017  0.00  0.00    +0.214 C 
ATOM     38  H   UNL     1      -3.354   1.513  24.430  0.00  0.00    +0.149 HD
BRANCH  24  22
ATOM     22  C   UNL     1      -3.713   3.972  24.650  0.00  0.00    +0.102 C 
BRANCH  22  21
ATOM     21  C   UNL     1      -2.573   4.227  25.669  0.00  0.00    -0.017 C 
ATOM     26  C   UNL     1      -3.155   4.576  27.054  0.00  0.00    +0.012 C 
ATOM     27  C   UNL     1      -1.782   5.466  25.184  0.00  0.00    +0.012 C 
BRANCH  21  25
ATOM     25  C   UNL     1      -1.607   3.029  25.824  0.00  0.00    +0.127 C 
BRANCH  25  28
ATOM     10  O   UNL     1      -0.180   3.655  23.974  0.00  0.00    -0.251 OA
ATOM     28  C   UNL     1      -0.289   3.187  25.100  0.00  0.00    +0.307 C 
BRANCH  28   9
ATOM      9  O   UNL     1       0.730   2.723  25.880  0.00  0.00    -0.468 OA
ATOM     33  C   UNL     1       0.360   2.320  27.202  0.00  0.00    +0.280 C 
ENDBRANCH  28   9
ENDBRANCH  25  28
ENDBRANCH  21  25
ENDBRANCH  22  21
ENDBRANCH  24  22
ENDBRANCH  19  12
ENDBRANCH  15  19
BRANCH  18  20
ATOM     20  C   UNL     1      -1.356   0.623  23.177  0.00  0.00    +0.133 C 
BRANCH  20  23
ATOM      7  O   UNL     1       0.292  -0.373  21.681  0.00  0.00    -0.338 OA
ATOM     13  N   UNL     1       1.149   0.423  23.590  0.00  0.00    -0.191 NA
ATOM     14  N   UNL     1       1.668  -0.623  21.623  0.00  0.00    -0.056 NA
ATOM     23  C   UNL     1       0.070   0.244  22.871  0.00  0.00    +0.230 A 
ATOM     29  C   UNL     1       2.104  -0.125  22.784  0.00  0.00    +0.202 A 
BRANCH  29  30
ATOM     30  C   UNL     1       3.486  -0.157  23.168  0.00  0.00    +0.023 A 
ATOM     31  C   UNL     1       4.273   0.988  23.041  0.00  0.00    +0.015 A 
ATOM     32  C   UNL     1       4.043  -1.335  23.666  0.00  0.00    +0.015 A 
ATOM     34  C   UNL     1       5.617   0.954  23.412  0.00  0.00    +0.046 A 
ATOM     35  C   UNL     1       5.387  -1.369  24.038  0.00  0.00    +0.046 A 
ATOM     36  C   UNL     1       6.174  -0.224  23.910  0.00  0.00    +0.130 A 
BRANCH  36  11
ATOM     11  O   UNL     1       7.485  -0.256  24.273  0.00  0.00    -0.406 OA
BRANCH  11  37
ATOM      1  F   UNL     1       9.644  -0.672  23.757  0.00  0.00    -0.133 F 
ATOM      2  F   UNL     1       8.129  -1.056  22.229  0.00  0.00    -0.133 F 
ATOM      3  F   UNL     1       8.661   1.017  22.780  0.00  0.00    -0.133 F 
ATOM     37  C   UNL     1       8.470  -0.235  23.245  0.00  0.00    +0.575 C 
ENDBRANCH  11  37
ENDBRANCH  36  11
ENDBRANCH  29  30
ENDBRANCH  20  23
ENDBRANCH  18  20
TORSDOF 14
ENDMDL
MODEL 5
REMARK VINA RESULT:       2.1      1.391      1.948
REMARK  Name = 44716549
REMARK  17 active torsions:
REMARK  status: ('A' for Active; 'I' for Inactive)
REMARK    1  A    between atoms: O_5  and  C_16
REMARK    2  A    between atoms: O_6  and  C_17
REMARK    3  A    between atoms: O_9  and  C_28
REMARK    4  A    between atoms: O_9  and  C_33
REMARK    5  A    between atoms: O_11  and  C_36
REMARK    6  A    between atoms: O_11  and  C_37
REMARK    7  A    between atoms: N_12  and  C_19
REMARK    8  A    between atoms: C_15  and  C_19
REMARK    9  A    between atoms: C_18  and  C_20
REMARK   10  A    between atoms: C_20  and  C_23
REMARK   11  A    between atoms: C_21  and  C_22
REMARK   12  A    between atoms: C_21  and  C_25
REMARK   13  A    between atoms: C_21  and  C_26
REMARK   14  A    between atoms: C_21  and  C_27
REMARK   15  A    between atoms: C_22  and  C_24
REMARK   16  A    between atoms: C_25  and  C_28
REMARK   17  A    between atoms: C_29  and  C_30
REMARK                            x       y       z     vdW  Elec       q    Type
REMARK                         _______ _______ _______ _____ _____    ______ ____
ROOT
ATOM      4  O   UNL     1      -5.024   3.018  26.496  0.00  0.00    -0.366 OA
ATOM     15  C   UNL     1      -5.926   3.212  25.383  0.00  0.00    +0.167 C 
ATOM     16  C   UNL     1      -5.310   4.307  24.518  0.00  0.00    +0.176 C 
ATOM     17  C   UNL     1      -3.832   4.135  24.796  0.00  0.00    +0.175 C 
ATOM     18  C   UNL     1      -3.838   3.802  26.279  0.00  0.00    +0.159 C 
ENDROOT
BRANCH  16   5
ATOM      5  O   UNL     1      -5.764   5.567  25.009  0.00  0.00    -0.387 OA
ATOM     39  H   UNL     1      -5.822   6.171  24.248  0.00  0.00    +0.210 HD
ENDBRANCH  16   5
BRANCH  17   6
ATOM      6  O   UNL     1      -3.072   5.292  24.516  0.00  0.00    -0.387 OA
ATOM     40  H   UNL     1      -2.299   5.281  25.106  0.00  0.00    +0.210 HD
ENDBRANCH  17   6
BRANCH  15  19
ATOM     19  C   UNL     1      -6.060   1.882  24.654  0.00  0.00    +0.138 C 
BRANCH  19  12
ATOM      8  O   UNL     1      -4.176   0.098  23.404  0.00  0.00    -0.276 OA
ATOM     12  N   UNL     1      -5.243   0.885  25.306  0.00  0.00    -0.313 N 
ATOM     24  C   UNL     1      -4.358   0.065  24.617  0.00  0.00    +0.214 C 
ATOM     38  H   UNL     1      -5.322   0.794  26.315  0.00  0.00    +0.149 HD
BRANCH  24  22
ATOM     22  C   UNL     1      -3.644  -0.893  25.564  0.00  0.00    +0.102 C 
BRANCH  22  21
ATOM     21  C   UNL     1      -3.133  -2.234  24.976  0.00  0.00    -0.017 C 
ATOM     26  C   UNL     1      -4.101  -2.751  23.892  0.00  0.00    +0.012 C 
ATOM     27  C   UNL     1      -3.135  -3.275  26.120  0.00  0.00    +0.012 C 
BRANCH  21  25
ATOM     25  C   UNL     1      -1.714  -2.138  24.369  0.00  0.00    +0.127 C 
BRANCH  25  28
ATOM     10  O   UNL     1       0.387  -2.527  25.504  0.00  0.00    -0.251 OA
ATOM     28  C   UNL     1      -0.621  -1.845  25.373  0.00  0.00    +0.307 C 
BRANCH  28   9
ATOM      9  O   UNL     1      -0.939  -0.733  26.097  0.00  0.00    -0.468 OA
ATOM     33  C   UNL     1      -0.598  -0.784  27.486  0.00  0.00    +0.280 C 
ENDBRANCH  28   9
ENDBRANCH  25  28
ENDBRANCH  21  25
ENDBRANCH  22  21
ENDBRANCH  24  22
ENDBRANCH  19  12
ENDBRANCH  15  19
BRANCH  18  20
ATOM     20  C   UNL     1      -2.618   3.018  26.726  0.00  0.00    +0.133 C 
BRANCH  20  23
ATOM      7  O   UNL     1      -2.449   2.438  24.364  0.00  0.00    -0.338 OA
ATOM     13  N   UNL     1      -0.545   2.173  25.512  0.00  0.00    -0.191 NA
ATOM     14  N   UNL     1      -1.503   1.969  23.444  0.00  0.00    -0.056 NA
ATOM     23  C   UNL     1      -1.803   2.530  25.556  0.00  0.00    +0.230 A 
ATOM     29  C   UNL     1      -0.406   1.837  24.197  0.00  0.00    +0.202 A 
BRANCH  29  30
ATOM     30  C   UNL     1       0.843   1.375  23.664  0.00  0.00    +0.023 A 
ATOM     31  C   UNL     1       0.962   0.066  23.197  0.00  0.00    +0.015 A 
ATOM     32  C   UNL     1       1.940   2.235  23.615  0.00  0.00    +0.015 A 
ATOM     34  C   UNL     1       2.178  -0.383  22.682  0.00  0.00    +0.046 A 
ATOM     35  C   UNL     1       3.156   1.787  23.099  0.00  0.00    +0.046 A 
ATOM     36  C   UNL     1       3.275   0.477  22.633  0.00  0.00    +0.130 A 
BRANCH  36  11
ATOM     11  O   UNL     1       4.461   0.039  22.129  0.00  0.00    -0.406 OA
BRANCH  11  37
ATOM      1  F   UNL     1       5.731   0.860  23.806  0.00  0.00    -0.133 F 
ATOM      2  F   UNL     1       5.202  -1.260  23.860  0.00  0.00    -0.133 F 
ATOM      3  F   UNL     1       6.667  -0.511  22.384  0.00  0.00    -0.133 F 
ATOM     37  C   UNL     1       5.520  -0.236  23.040  0.00  0.00    +0.575 C 
ENDBRANCH  11  37
ENDBRANCH  36  11
ENDBRANCH  29  30
ENDBRANCH  20  23
ENDBRANCH  18  20
TORSDOF 14
ENDMDL
MODEL 6
REMARK VINA RESULT:       2.3      2.169      3.968
REMARK  Name = 44716549
REMARK  17 active torsions:
REMARK  status: ('A' for Active; 'I' for Inactive)
REMARK    1  A    between atoms: O_5  and  C_16
REMARK    2  A    between atoms: O_6  and  C_17
REMARK    3  A    between atoms: O_9  and  C_28
REMARK    4  A    between atoms: O_9  and  C_33
REMARK    5  A    between atoms: O_11  and  C_36
REMARK    6  A    between atoms: O_11  and  C_37
REMARK    7  A    between atoms: N_12  and  C_19
REMARK    8  A    between atoms: C_15  and  C_19
REMARK    9  A    between atoms: C_18  and  C_20
REMARK   10  A    between atoms: C_20  and  C_23
REMARK   11  A    between atoms: C_21  and  C_22
REMARK   12  A    between atoms: C_21  and  C_25
REMARK   13  A    between atoms: C_21  and  C_26
REMARK   14  A    between atoms: C_21  and  C_27
REMARK   15  A    between atoms: C_22  and  C_24
REMARK   16  A    between atoms: C_25  and  C_28
REMARK   17  A    between atoms: C_29  and  C_30
REMARK                            x       y       z     vdW  Elec       q    Type
REMARK                         _______ _______ _______ _____ _____    ______ ____
ROOT
ATOM      4  O   UNL     1      -4.385   0.690  24.052  0.00  0.00    -0.366 OA
ATOM     15  C   UNL     1      -4.834   2.017  23.692  0.00  0.00    +0.167 C 
ATOM     16  C   UNL     1      -5.880   2.413  24.728  0.00  0.00    +0.176 C 
ATOM     17  C   UNL     1      -5.431   1.631  25.945  0.00  0.00    +0.175 C 
ATOM     18  C   UNL     1      -4.971   0.326  25.315  0.00  0.00    +0.159 C 
ENDROOT
BRANCH  16   5
ATOM      5  O   UNL     1      -7.150   1.942  24.278  0.00  0.00    -0.387 OA
ATOM     39  H   UNL     1      -6.989   1.166  23.713  0.00  0.00    +0.210 HD
ENDBRANCH  16   5
BRANCH  17   6
ATOM      6  O   UNL     1      -6.460   1.428  26.890  0.00  0.00    -0.387 OA
ATOM     40  H   UNL     1      -6.267   0.597  27.356  0.00  0.00    +0.210 HD
ENDBRANCH  17   6
BRANCH  15  19
ATOM     19  C   UNL     1      -3.619   2.935  23.692  0.00  0.00    +0.138 C 
BRANCH  19  12
ATOM      8  O   UNL     1      -1.914   4.857  24.994  0.00  0.00    -0.276 OA
ATOM     12  N   UNL     1      -2.863   2.743  24.908  0.00  0.00    -0.313 N 
ATOM     24  C   UNL     1      -2.063   3.733  25.464  0.00  0.00    +0.214 C 
ATOM     38  H   UNL     1      -2.934   1.842  25.372  0.00  0.00    +0.149 HD
BRANCH  24  22
ATOM     22  C   UNL     1      -1.381   3.240  26.735  0.00  0.00    +0.102 C 
BRANCH  22  21
ATOM     21  C   UNL     1       0.038   2.632  26.598  0.00  0.00    -0.017 C 
ATOM     26  C   UNL     1       0.434   2.517  25.111  0.00  0.00    +0.012 C 
ATOM     27  C   UNL     1      -0.012   1.195  27.167  0.00  0.00    +0.012 C 
BRANCH  21  25
ATOM     25  C   UNL     1       1.128   3.442  27.339  0.00  0.00    +0.127 C 
BRANCH  25  28
ATOM     10  O   UNL     1       2.971   2.362  28.475  0.00  0.00    -0.251 OA
ATOM     28  C   UNL     1       1.795   2.701  28.477  0.00  0.00    +0.307 C 
BRANCH  28   9
ATOM      9  O   UNL     1       0.893   2.467  29.473  0.00  0.00    -0.468 OA
ATOM     33  C   UNL     1       1.452   2.105  30.740  0.00  0.00    +0.280 C 
ENDBRANCH  28   9
ENDBRANCH  25  28
ENDBRANCH  21  25
ENDBRANCH  22  21
ENDBRANCH  24  22
ENDBRANCH  19  12
ENDBRANCH  15  19
BRANCH  18  20
ATOM     20  C   UNL     1      -3.950  -0.420  26.155  0.00  0.00    +0.133 C 
BRANCH  20  23
ATOM      7  O   UNL     1      -2.830  -2.023  24.700  0.00  0.00    -0.338 OA
ATOM     13  N   UNL     1      -1.613  -0.202  25.166  0.00  0.00    -0.191 NA
ATOM     14  N   UNL     1      -1.612  -2.186  24.027  0.00  0.00    -0.056 NA
ATOM     23  C   UNL     1      -2.747  -0.831  25.345  0.00  0.00    +0.230 A 
ATOM     29  C   UNL     1      -0.949  -1.072  24.351  0.00  0.00    +0.202 A 
BRANCH  29  30
ATOM     30  C   UNL     1       0.376  -0.797  23.875  0.00  0.00    +0.023 A 
ATOM     31  C   UNL     1       0.587   0.224  22.949  0.00  0.00    +0.015 A 
ATOM     32  C   UNL     1       1.453  -1.553  24.338  0.00  0.00    +0.015 A 
ATOM     34  C   UNL     1       1.876   0.489  22.486  0.00  0.00    +0.046 A 
ATOM     35  C   UNL     1       2.742  -1.289  23.875  0.00  0.00    +0.046 A 
ATOM     36  C   UNL     1       2.953  -0.267  22.948  0.00  0.00    +0.130 A 
BRANCH  36  11
ATOM     11  O   UNL     1       4.210  -0.008  22.497  0.00  0.00    -0.406 OA
BRANCH  11  37
ATOM      1  F   UNL     1       6.451  -0.152  22.736  0.00  0.00    -0.133 F 
ATOM      2  F   UNL     1       5.333   1.017  24.206  0.00  0.00    -0.133 F 
ATOM      3  F   UNL     1       5.194  -1.189  24.192  0.00  0.00    -0.133 F 
ATOM     37  C   UNL     1       5.288  -0.083  23.424  0.00  0.00    +0.575 C 
ENDBRANCH  11  37
ENDBRANCH  36  11
ENDBRANCH  29  30
ENDBRANCH  20  23
ENDBRANCH  18  20
TORSDOF 14
ENDMDL
MODEL 7
REMARK VINA RESULT:       3.2      1.805      3.928
REMARK  Name = 44716549
REMARK  17 active torsions:
REMARK  status: ('A' for Active; 'I' for Inactive)
REMARK    1  A    between atoms: O_5  and  C_16
REMARK    2  A    between atoms: O_6  and  C_17
REMARK    3  A    between atoms: O_9  and  C_28
REMARK    4  A    between atoms: O_9  and  C_33
REMARK    5  A    between atoms: O_11  and  C_36
REMARK    6  A    between atoms: O_11  and  C_37
REMARK    7  A    between atoms: N_12  and  C_19
REMARK    8  A    between atoms: C_15  and  C_19
REMARK    9  A    between atoms: C_18  and  C_20
REMARK   10  A    between atoms: C_20  and  C_23
REMARK   11  A    between atoms: C_21  and  C_22
REMARK   12  A    between atoms: C_21  and  C_25
REMARK   13  A    between atoms: C_21  and  C_26
REMARK   14  A    between atoms: C_21  and  C_27
REMARK   15  A    between atoms: C_22  and  C_24
REMARK   16  A    between atoms: C_25  and  C_28
REMARK   17  A    between atoms: C_29  and  C_30
REMARK                            x       y       z     vdW  Elec       q    Type
REMARK                         _______ _______ _______ _____ _____    ______ ____
ROOT
ATOM      4  O   UNL     1      -4.578  -0.814  24.419  0.00  0.00    -0.366 OA
ATOM     15  C   UNL     1      -4.875   0.249  23.485  0.00  0.00    +0.167 C 
ATOM     16  C   UNL     1      -5.200   1.480  24.325  0.00  0.00    +0.176 C 
ATOM     17  C   UNL     1      -4.387   1.231  25.578  0.00  0.00    +0.175 C 
ATOM     18  C   UNL     1      -4.548  -0.271  25.751  0.00  0.00    +0.159 C 
ENDROOT
BRANCH  16   5
ATOM      5  O   UNL     1      -6.594   1.456  24.625  0.00  0.00    -0.387 OA
ATOM     39  H   UNL     1      -6.682   1.408  25.593  0.00  0.00    +0.210 HD
ENDBRANCH  16   5
BRANCH  17   6
ATOM      6  O   UNL     1      -4.858   1.946  26.701  0.00  0.00    -0.387 OA
ATOM     40  H   UNL     1      -4.117   2.477  27.039  0.00  0.00    +0.210 HD
ENDBRANCH  17   6
BRANCH  15  19
ATOM     19  C   UNL     1      -3.655   0.440  22.595  0.00  0.00    +0.138 C 
BRANCH  19  12
ATOM      8  O   UNL     1      -2.495   2.958  21.812  0.00  0.00    -0.276 OA
ATOM     12  N   UNL     1      -2.645   1.191  23.306  0.00  0.00    -0.313 N 
ATOM     24  C   UNL     1      -2.143   2.404  22.848  0.00  0.00    +0.214 C 
ATOM     38  H   UNL     1      -2.302   0.810  24.182  0.00  0.00    +0.149 HD
BRANCH  24  22
ATOM     22  C   UNL     1      -1.086   2.955  23.798  0.00  0.00    +0.102 C 
BRANCH  22  21
ATOM     21  C   UNL     1      -1.569   3.872  24.952  0.00  0.00    -0.017 C 
ATOM     26  C   UNL     1      -3.077   4.167  24.812  0.00  0.00    +0.012 C 
ATOM     27  C   UNL     1      -0.827   5.223  24.815  0.00  0.00    +0.012 C 
BRANCH  21  25
ATOM     25  C   UNL     1      -1.307   3.281  26.357  0.00  0.00    +0.127 C 
BRANCH  25  28
ATOM     10  O   UNL     1       0.760   2.315  25.554  0.00  0.00    -0.251 OA
ATOM     28  C   UNL     1      -0.010   2.514  26.484  0.00  0.00    +0.307 C 
BRANCH  28   9
ATOM      9  O   UNL     1       0.150   2.078  27.767  0.00  0.00    -0.468 OA
ATOM     33  C   UNL     1       1.279   2.616  28.464  0.00  0.00    +0.280 C 
ENDBRANCH  28   9
ENDBRANCH  25  28
ENDBRANCH  21  25
ENDBRANCH  22  21
ENDBRANCH  24  22
ENDBRANCH  19  12
ENDBRANCH  15  19
BRANCH  18  20
ATOM     20  C   UNL     1      -3.419  -0.911  26.538  0.00  0.00    +0.133 C 
BRANCH  20  23
ATOM      7  O   UNL     1      -2.296  -2.423  24.991  0.00  0.00    -0.338 OA
ATOM     13  N   UNL     1      -1.147  -0.556  25.444  0.00  0.00    -0.191 NA
ATOM     14  N   UNL     1      -1.107  -2.510  24.256  0.00  0.00    -0.056 NA
ATOM     23  C   UNL     1      -2.239  -1.243  25.661  0.00  0.00    +0.230 A 
ATOM     29  C   UNL     1      -0.483  -1.372  24.575  0.00  0.00    +0.202 A 
BRANCH  29  30
ATOM     30  C   UNL     1       0.802  -1.022  24.043  0.00  0.00    +0.023 A 
ATOM     31  C   UNL     1       1.923  -1.787  24.365  0.00  0.00    +0.015 A 
ATOM     32  C   UNL     1       0.930   0.085  23.204  0.00  0.00    +0.015 A 
ATOM     34  C   UNL     1       3.173  -1.444  23.848  0.00  0.00    +0.046 A 
ATOM     35  C   UNL     1       2.179   0.429  22.687  0.00  0.00    +0.046 A 
ATOM     36  C   UNL     1       3.301  -0.337  23.010  0.00  0.00    +0.130 A 
BRANCH  36  11
ATOM     11  O   UNL     1       4.520  -0.002  22.505  0.00  0.00    -0.406 OA
BRANCH  11  37
ATOM      1  F   UNL     1       6.758  -0.190  22.735  0.00  0.00    -0.133 F 
ATOM      2  F   UNL     1       5.730   1.347  23.900  0.00  0.00    -0.133 F 
ATOM      3  F   UNL     1       5.499  -0.789  24.418  0.00  0.00    -0.133 F 
ATOM     37  C   UNL     1       5.618   0.096  23.406  0.00  0.00    +0.575 C 
ENDBRANCH  11  37
ENDBRANCH  36  11
ENDBRANCH  29  30
ENDBRANCH  20  23
ENDBRANCH  18  20
TORSDOF 14
ENDMDL
MODEL 8
REMARK VINA RESULT:       3.6      1.899      4.318
REMARK  Name = 44716549
REMARK  17 active torsions:
REMARK  status: ('A' for Active; 'I' for Inactive)
REMARK    1  A    between atoms: O_5  and  C_16
REMARK    2  A    between atoms: O_6  and  C_17
REMARK    3  A    between atoms: O_9  and  C_28
REMARK    4  A    between atoms: O_9  and  C_33
REMARK    5  A    between atoms: O_11  and  C_36
REMARK    6  A    between atoms: O_11  and  C_37
REMARK    7  A    between atoms: N_12  and  C_19
REMARK    8  A    between atoms: C_15  and  C_19
REMARK    9  A    between atoms: C_18  and  C_20
REMARK   10  A    between atoms: C_20  and  C_23
REMARK   11  A    between atoms: C_21  and  C_22
REMARK   12  A    between atoms: C_21  and  C_25
REMARK   13  A    between atoms: C_21  and  C_26
REMARK   14  A    between atoms: C_21  and  C_27
REMARK   15  A    between atoms: C_22  and  C_24
REMARK   16  A    between atoms: C_25  and  C_28
REMARK   17  A    between atoms: C_29  and  C_30
REMARK                            x       y       z     vdW  Elec       q    Type
REMARK                         _______ _______ _______ _____ _____    ______ ____
ROOT
ATOM      4  O   UNL     1      -4.808  -0.527  23.470  0.00  0.00    -0.366 OA
ATOM     15  C   UNL     1      -4.734   0.859  23.876  0.00  0.00    +0.167 C 
ATOM     16  C   UNL     1      -4.465   0.853  25.376  0.00  0.00    +0.176 C 
ATOM     17  C   UNL     1      -3.714  -0.450  25.558  0.00  0.00    +0.175 C 
ATOM     18  C   UNL     1      -4.447  -1.361  24.586  0.00  0.00    +0.159 C 
ENDROOT
BRANCH  16   5
ATOM      5  O   UNL     1      -5.720   0.800  26.052  0.00  0.00    -0.387 OA
ATOM     39  H   UNL     1      -5.594   1.197  26.931  0.00  0.00    +0.210 HD
ENDBRANCH  16   5
BRANCH  17   6
ATOM      6  O   UNL     1      -3.759  -0.942  26.881  0.00  0.00    -0.387 OA
ATOM     40  H   UNL     1      -4.684  -1.169  27.075  0.00  0.00    +0.210 HD
ENDBRANCH  17   6
BRANCH  15  19
ATOM     19  C   UNL     1      -3.622   1.520  23.073  0.00  0.00    +0.138 C 
BRANCH  19  12
ATOM      8  O   UNL     1      -1.196   2.950  22.466  0.00  0.00    -0.276 OA
ATOM     12  N   UNL     1      -2.403   1.533  23.849  0.00  0.00    -0.313 N 
ATOM     24  C   UNL     1      -1.277   2.257  23.475  0.00  0.00    +0.214 C 
ATOM     38  H   UNL     1      -2.383   0.993  24.709  0.00  0.00    +0.149 HD
BRANCH  24  22
ATOM     22  C   UNL     1      -0.145   2.070  24.478  0.00  0.00    +0.102 C 
BRANCH  22  21
ATOM     21  C   UNL     1      -0.480   2.263  25.980  0.00  0.00    -0.017 C 
ATOM     26  C   UNL     1       0.743   2.822  26.738  0.00  0.00    +0.012 C 
ATOM     27  C   UNL     1      -0.783   0.867  26.574  0.00  0.00    +0.012 C 
BRANCH  21  25
ATOM     25  C   UNL     1      -1.686   3.200  26.225  0.00  0.00    +0.127 C 
BRANCH  25  28
ATOM     10  O   UNL     1      -0.624   5.058  25.098  0.00  0.00    -0.251 OA
ATOM     28  C   UNL     1      -1.654   4.486  25.430  0.00  0.00    +0.307 C 
BRANCH  28   9
ATOM      9  O   UNL     1      -2.925   4.899  25.161  0.00  0.00    -0.468 OA
ATOM     33  C   UNL     1      -3.967   4.109  25.742  0.00  0.00    +0.280 C 
ENDBRANCH  28   9
ENDBRANCH  25  28
ENDBRANCH  21  25
ENDBRANCH  22  21
ENDBRANCH  24  22
ENDBRANCH  19  12
ENDBRANCH  15  19
BRANCH  18  20
ATOM     20  C   UNL     1      -3.604  -2.526  24.102  0.00  0.00    +0.133 C 
BRANCH  20  23
ATOM      7  O   UNL     1      -1.610  -2.745  25.486  0.00  0.00    -0.338 OA
ATOM     13  N   UNL     1      -1.265  -1.691  23.542  0.00  0.00    -0.191 NA
ATOM     14  N   UNL     1      -0.250  -2.410  25.462  0.00  0.00    -0.056 NA
ATOM     23  C   UNL     1      -2.132  -2.286  24.320  0.00  0.00    +0.230 A 
ATOM     29  C   UNL     1      -0.124  -1.791  24.284  0.00  0.00    +0.202 A 
BRANCH  29  30
ATOM     30  C   UNL     1       1.126  -1.263  23.820  0.00  0.00    +0.023 A 
ATOM     31  C   UNL     1       1.145  -0.167  22.958  0.00  0.00    +0.015 A 
ATOM     32  C   UNL     1       2.324  -1.849  24.230  0.00  0.00    +0.015 A 
ATOM     34  C   UNL     1       2.362   0.344  22.506  0.00  0.00    +0.046 A 
ATOM     35  C   UNL     1       3.541  -1.339  23.778  0.00  0.00    +0.046 A 
ATOM     36  C   UNL     1       3.559  -0.242  22.916  0.00  0.00    +0.130 A 
BRANCH  36  11
ATOM     11  O   UNL     1       4.747   0.257  22.475  0.00  0.00    -0.406 OA
BRANCH  11  37
ATOM      1  F   UNL     1       6.053   1.496  23.837  0.00  0.00    -0.133 F 
ATOM      2  F   UNL     1       5.620  -0.564  24.423  0.00  0.00    -0.133 F 
ATOM      3  F   UNL     1       6.984  -0.146  22.735  0.00  0.00    -0.133 F 
ATOM     37  C   UNL     1       5.856   0.243  23.367  0.00  0.00    +0.575 C 
ENDBRANCH  11  37
ENDBRANCH  36  11
ENDBRANCH  29  30
ENDBRANCH  20  23
ENDBRANCH  18  20
TORSDOF 14
ENDMDL
MODEL 9
REMARK VINA RESULT:       4.3      1.095      2.356
REMARK  Name = 44716549
REMARK  17 active torsions:
REMARK  status: ('A' for Active; 'I' for Inactive)
REMARK    1  A    between atoms: O_5  and  C_16
REMARK    2  A    between atoms: O_6  and  C_17
REMARK    3  A    between atoms: O_9  and  C_28
REMARK    4  A    between atoms: O_9  and  C_33
REMARK    5  A    between atoms: O_11  and  C_36
REMARK    6  A    between atoms: O_11  and  C_37
REMARK    7  A    between atoms: N_12  and  C_19
REMARK    8  A    between atoms: C_15  and  C_19
REMARK    9  A    between atoms: C_18  and  C_20
REMARK   10  A    between atoms: C_20  and  C_23
REMARK   11  A    between atoms: C_21  and  C_22
REMARK   12  A    between atoms: C_21  and  C_25
REMARK   13  A    between atoms: C_21  and  C_26
REMARK   14  A    between atoms: C_21  and  C_27
REMARK   15  A    between atoms: C_22  and  C_24
REMARK   16  A    between atoms: C_25  and  C_28
REMARK   17  A    between atoms: C_29  and  C_30
REMARK                            x       y       z     vdW  Elec       q    Type
REMARK                         _______ _______ _______ _____ _____    ______ ____
ROOT
ATOM      4  O   UNL     1      -3.943   2.358  26.344  0.00  0.00    -0.366 OA
ATOM     15  C   UNL     1      -5.135   1.655  25.926  0.00  0.00    +0.167 C 
ATOM     16  C   UNL     1      -6.182   2.724  25.632  0.00  0.00    +0.176 C 
ATOM     17  C   UNL     1      -5.325   3.901  25.216  0.00  0.00    +0.175 C 
ATOM     18  C   UNL     1      -4.148   3.772  26.171  0.00  0.00    +0.159 C 
ENDROOT
BRANCH  16   5
ATOM      5  O   UNL     1      -6.871   3.017  26.847  0.00  0.00    -0.387 OA
ATOM     39  H   UNL     1      -7.655   2.442  26.882  0.00  0.00    +0.210 HD
ENDBRANCH  16   5
BRANCH  17   6
ATOM      6  O   UNL     1      -5.980   5.145  25.349  0.00  0.00    -0.387 OA
ATOM     40  H   UNL     1      -6.311   5.203  26.261  0.00  0.00    +0.210 HD
ENDBRANCH  17   6
BRANCH  15  19
ATOM     19  C   UNL     1      -4.779   0.818  24.706  0.00  0.00    +0.138 C 
BRANCH  19  12
ATOM      8  O   UNL     1      -3.753  -0.944  26.740  0.00  0.00    -0.276 OA
ATOM     12  N   UNL     1      -3.426   0.328  24.829  0.00  0.00    -0.313 N 
ATOM     24  C   UNL     1      -3.021  -0.524  25.850  0.00  0.00    +0.214 C 
ATOM     38  H   UNL     1      -2.751   0.618  24.127  0.00  0.00    +0.149 HD
BRANCH  24  22
ATOM     22  C   UNL     1      -1.540  -0.864  25.727  0.00  0.00    +0.102 C 
BRANCH  22  21
ATOM     21  C   UNL     1      -1.169  -2.277  25.208  0.00  0.00    -0.017 C 
ATOM     26  C   UNL     1      -1.846  -3.362  26.071  0.00  0.00    +0.012 C 
ATOM     27  C   UNL     1       0.359  -2.450  25.377  0.00  0.00    +0.012 C 
BRANCH  21  25
ATOM     25  C   UNL     1      -1.554  -2.508  23.728  0.00  0.00    +0.127 C 
BRANCH  25  28
ATOM     10  O   UNL     1      -3.390  -1.231  22.806  0.00  0.00    -0.251 OA
ATOM     28  C   UNL     1      -3.004  -2.227  23.405  0.00  0.00    +0.307 C 
BRANCH  28   9
ATOM      9  O   UNL     1      -3.793  -3.229  23.889  0.00  0.00    -0.468 OA
ATOM     33  C   UNL     1      -5.195  -3.086  23.640  0.00  0.00    +0.280 C 
ENDBRANCH  28   9
ENDBRANCH  25  28
ENDBRANCH  21  25
ENDBRANCH  22  21
ENDBRANCH  24  22
ENDBRANCH  19  12
ENDBRANCH  15  19
BRANCH  18  20
ATOM     20  C   UNL     1      -2.876   4.413  25.648  0.00  0.00    +0.133 C 
BRANCH  20  23
ATOM      7  O   UNL     1      -2.772   2.933  23.714  0.00  0.00    -0.338 OA
ATOM     13  N   UNL     1      -0.847   3.101  24.845  0.00  0.00    -0.191 NA
ATOM     14  N   UNL     1      -1.856   2.112  23.045  0.00  0.00    -0.056 NA
ATOM     23  C   UNL     1      -2.097   3.477  24.760  0.00  0.00    +0.230 A 
ATOM     29  C   UNL     1      -0.744   2.264  23.772  0.00  0.00    +0.202 A 
BRANCH  29  30
ATOM     30  C   UNL     1       0.484   1.596  23.451  0.00  0.00    +0.023 A 
ATOM     31  C   UNL     1       1.695   2.282  23.538  0.00  0.00    +0.015 A 
ATOM     32  C   UNL     1       0.466   0.259  23.052  0.00  0.00    +0.015 A 
ATOM     34  C   UNL     1       2.889   1.631  23.224  0.00  0.00    +0.046 A 
ATOM     35  C   UNL     1       1.659  -0.392  22.739  0.00  0.00    +0.046 A 
ATOM     36  C   UNL     1       2.871   0.295  22.824  0.00  0.00    +0.130 A 
BRANCH  36  11
ATOM     11  O   UNL     1       4.035  -0.340  22.519  0.00  0.00    -0.406 OA
BRANCH  11  37
ATOM      1  F   UNL     1       5.001   0.821  24.198  0.00  0.00    -0.133 F 
ATOM      2  F   UNL     1       4.973  -1.359  24.339  0.00  0.00    -0.133 F 
ATOM      3  F   UNL     1       6.294  -0.351  22.883  0.00  0.00    -0.133 F 
ATOM     37  C   UNL     1       5.084  -0.323  23.481  0.00  0.00    +0.575 C 
ENDBRANCH  11  37
ENDBRANCH  36  11
ENDBRANCH  29  30
ENDBRANCH  20  23
ENDBRANCH  18  20
TORSDOF 14
ENDMDL
