MODEL 1
REMARK VINA RESULT:      -4.0      0.000      0.000
REMARK  Name = 56774370
REMARK  9 active torsions:
REMARK  status: ('A' for Active; 'I' for Inactive)
REMARK    1  A    between atoms: N_3  and  C_7
REMARK    2  A    between atoms: N_3  and  C_14
REMARK    3  A    between atoms: N_5  and  C_20
REMARK    4  A    between atoms: C_6  and  C_12
REMARK    5  A    between atoms: C_6  and  C_13
REMARK    6  A    between atoms: C_8  and  C_10
REMARK    7  A    between atoms: C_10  and  C_17
REMARK    8  A    between atoms: C_11  and  C_14
REMARK    9  A    between atoms: C_19  and  C_20
REMARK                            x       y       z     vdW  Elec       q    Type
REMARK                         _______ _______ _______ _____ _____    ______ ____
ROOT
ATOM     10  C   UNL     1      -1.697   3.855  25.135  0.00  0.00    +0.063 C 
ENDROOT
BRANCH  10   8
ATOM      6  C   UNL     1      -4.183   3.057  24.853  0.00  0.00    -0.016 C 
ATOM      7  C   UNL     1      -4.367   1.609  25.354  0.00  0.00    +0.060 C 
ATOM      8  C   UNL     1      -2.906   3.112  25.718  0.00  0.00    +0.004 C 
ATOM      9  C   UNL     1      -2.842   1.576  25.584  0.00  0.00    +0.023 C 
ATOM     12  C   UNL     1      -3.930   3.262  23.375  0.00  0.00    +0.013 C 
ATOM     13  C   UNL     1      -5.317   3.965  25.297  0.00  0.00    +0.013 C 
BRANCH   7   3
ATOM      3  N   UNL     1      -4.700   0.706  24.251  0.00  0.00    -0.312 NA
ATOM     25  H   UNL     1      -4.043   0.760  23.473  0.00  0.00    +0.122 HD
BRANCH   3  14
ATOM     14  C   UNL     1      -4.722  -0.669  24.739  0.00  0.00    +0.084 C 
BRANCH  14  11
ATOM     11  C   UNL     1      -3.787  -1.537  23.960  0.00  0.00    +0.003 C 
ATOM     15  C   UNL     1      -2.543  -2.053  24.621  0.00  0.00    +0.005 C 
ATOM     16  C   UNL     1      -3.673  -2.991  24.309  0.00  0.00    +0.005 C 
ENDBRANCH  14  11
ENDBRANCH   3  14
ENDBRANCH   7   3
ENDBRANCH  10   8
BRANCH  10  17
ATOM      1  O   UNL     1       1.190   1.758  24.992  0.00  0.00    -0.358 OA
ATOM      4  N   UNL     1       0.361   2.666  25.641  0.00  0.00    -0.083 NA
ATOM     17  C   UNL     1      -0.621   2.919  24.773  0.00  0.00    +0.084 A 
ATOM     18  C   UNL     1      -0.468   2.208  23.570  0.00  0.00    +0.072 A 
ATOM     19  C   UNL     1       0.686   1.493  23.760  0.00  0.00    +0.151 A 
BRANCH  19  20
ATOM     20  C   UNL     1       1.461   0.521  22.911  0.00  0.00    +0.161 C 
BRANCH  20   5
ATOM      2  O   UNL     1       5.489  -0.615  23.220  0.00  0.00    -0.377 OA
ATOM      5  N   UNL     1       2.794   0.266  23.455  0.00  0.00    -0.291 NA
ATOM     21  C   UNL     1       3.806   1.069  22.754  0.00  0.00    +0.113 C 
ATOM     22  C   UNL     1       3.130  -1.161  23.363  0.00  0.00    +0.113 C 
ATOM     23  C   UNL     1       5.189   0.776  23.330  0.00  0.00    +0.175 C 
ATOM     24  C   UNL     1       4.528  -1.400  23.926  0.00  0.00    +0.175 C 
ENDBRANCH  20   5
ENDBRANCH  19  20
ENDBRANCH  10  17
TORSDOF 7
ENDMDL
MODEL 2
REMARK VINA RESULT:      -3.8      1.517      3.635
REMARK  Name = 56774370
REMARK  9 active torsions:
REMARK  status: ('A' for Active; 'I' for Inactive)
REMARK    1  A    between atoms: N_3  and  C_7
REMARK    2  A    between atoms: N_3  and  C_14
REMARK    3  A    between atoms: N_5  and  C_20
REMARK    4  A    between atoms: C_6  and  C_12
REMARK    5  A    between atoms: C_6  and  C_13
REMARK    6  A    between atoms: C_8  and  C_10
REMARK    7  A    between atoms: C_10  and  C_17
REMARK    8  A    between atoms: C_11  and  C_14
REMARK    9  A    between atoms: C_19  and  C_20
REMARK                            x       y       z     vdW  Elec       q    Type
REMARK                         _______ _______ _______ _____ _____    ______ ____
ROOT
ATOM     10  C   UNL     1      -1.157  -1.000  24.565  0.00  0.00    +0.063 C 
ENDROOT
BRANCH  10   8
ATOM      6  C   UNL     1      -3.782  -0.985  24.624  0.00  0.00    -0.016 C 
ATOM      7  C   UNL     1      -4.343   0.411  24.282  0.00  0.00    +0.060 C 
ATOM      8  C   UNL     1      -2.478  -0.548  23.927  0.00  0.00    +0.004 C 
ATOM      9  C   UNL     1      -2.883   0.906  24.252  0.00  0.00    +0.023 C 
ATOM     12  C   UNL     1      -3.607  -1.333  26.087  0.00  0.00    +0.013 C 
ATOM     13  C   UNL     1      -4.554  -2.097  23.935  0.00  0.00    +0.013 C 
BRANCH   7   3
ATOM      3  N   UNL     1      -5.022   1.005  25.435  0.00  0.00    -0.312 NA
ATOM     25  H   UNL     1      -4.380   1.413  26.115  0.00  0.00    +0.122 HD
BRANCH   3  14
ATOM     14  C   UNL     1      -5.931   2.051  24.978  0.00  0.00    +0.084 C 
BRANCH  14  11
ATOM     11  C   UNL     1      -5.455   3.405  25.394  0.00  0.00    +0.003 C 
ATOM     15  C   UNL     1      -4.125   3.537  26.076  0.00  0.00    +0.005 C 
ATOM     16  C   UNL     1      -4.301   4.031  24.670  0.00  0.00    +0.005 C 
ENDBRANCH  14  11
ENDBRANCH   3  14
ENDBRANCH   7   3
ENDBRANCH  10   8
BRANCH  10  17
ATOM      1  O   UNL     1       1.313   1.488  23.886  0.00  0.00    -0.358 OA
ATOM      4  N   UNL     1       0.187   1.025  24.556  0.00  0.00    -0.083 NA
ATOM     17  C   UNL     1      -0.026  -0.201  24.070  0.00  0.00    +0.084 A 
ATOM     18  C   UNL     1       0.925  -0.562  23.099  0.00  0.00    +0.072 A 
ATOM     19  C   UNL     1       1.743   0.534  23.021  0.00  0.00    +0.151 A 
BRANCH  19  20
ATOM     20  C   UNL     1       2.964   0.868  22.206  0.00  0.00    +0.161 C 
BRANCH  20   5
ATOM      2  O   UNL     1       5.843  -0.932  24.672  0.00  0.00    -0.377 OA
ATOM      5  N   UNL     1       4.137   0.119  22.651  0.00  0.00    -0.291 NA
ATOM     21  C   UNL     1       3.739  -1.036  23.468  0.00  0.00    +0.113 C 
ATOM     22  C   UNL     1       5.050   0.983  23.411  0.00  0.00    +0.113 C 
ATOM     23  C   UNL     1       4.980  -1.795  23.932  0.00  0.00    +0.175 C 
ATOM     24  C   UNL     1       6.259   0.176  23.875  0.00  0.00    +0.175 C 
ENDBRANCH  20   5
ENDBRANCH  19  20
ENDBRANCH  10  17
TORSDOF 7
ENDMDL
MODEL 3
REMARK VINA RESULT:      -3.7      2.811      7.516
REMARK  Name = 56774370
REMARK  9 active torsions:
REMARK  status: ('A' for Active; 'I' for Inactive)
REMARK    1  A    between atoms: N_3  and  C_7
REMARK    2  A    between atoms: N_3  and  C_14
REMARK    3  A    between atoms: N_5  and  C_20
REMARK    4  A    between atoms: C_6  and  C_12
REMARK    5  A    between atoms: C_6  and  C_13
REMARK    6  A    between atoms: C_8  and  C_10
REMARK    7  A    between atoms: C_10  and  C_17
REMARK    8  A    between atoms: C_11  and  C_14
REMARK    9  A    between atoms: C_19  and  C_20
REMARK                            x       y       z     vdW  Elec       q    Type
REMARK                         _______ _______ _______ _____ _____    ______ ____
ROOT
ATOM     10  C   UNL     1      -0.681  -1.242  24.948  0.00  0.00    +0.063 C 
ENDROOT
BRANCH  10   8
ATOM      6  C   UNL     1       0.193   0.840  23.609  0.00  0.00    -0.016 C 
ATOM      7  C   UNL     1       1.489   0.508  22.839  0.00  0.00    +0.060 C 
ATOM      8  C   UNL     1      -0.077  -0.678  23.656  0.00  0.00    +0.004 C 
ATOM      9  C   UNL     1       1.448  -0.875  23.521  0.00  0.00    +0.023 C 
ATOM     12  C   UNL     1       0.330   1.480  24.973  0.00  0.00    +0.013 C 
ATOM     13  C   UNL     1      -0.778   1.654  22.770  0.00  0.00    +0.013 C 
BRANCH   7   3
ATOM      3  N   UNL     1       2.626   1.264  23.368  0.00  0.00    -0.312 NA
ATOM     25  H   UNL     1       2.777   1.120  24.367  0.00  0.00    +0.122 HD
BRANCH   3  14
ATOM     14  C   UNL     1       3.840   0.875  22.659  0.00  0.00    +0.084 C 
BRANCH  14  11
ATOM     11  C   UNL     1       4.958   0.592  23.610  0.00  0.00    +0.003 C 
ATOM     15  C   UNL     1       5.143  -0.803  24.131  0.00  0.00    +0.005 C 
ATOM     16  C   UNL     1       6.123  -0.232  23.149  0.00  0.00    +0.005 C 
ENDBRANCH  14  11
ENDBRANCH   3  14
ENDBRANCH   7   3
ENDBRANCH  10   8
BRANCH  10  17
ATOM      1  O   UNL     1      -4.235  -1.569  24.814  0.00  0.00    -0.358 OA
ATOM      4  N   UNL     1      -2.949  -2.081  24.693  0.00  0.00    -0.083 NA
ATOM     17  C   UNL     1      -2.141  -1.056  24.979  0.00  0.00    +0.084 A 
ATOM     18  C   UNL     1      -2.853   0.116  25.284  0.00  0.00    +0.072 A 
ATOM     19  C   UNL     1      -4.166  -0.260  25.166  0.00  0.00    +0.151 A 
BRANCH  19  20
ATOM     20  C   UNL     1      -5.476   0.459  25.343  0.00  0.00    +0.161 C 
BRANCH  20   5
ATOM      2  O   UNL     1      -4.141   4.383  24.686  0.00  0.00    -0.377 OA
ATOM      5  N   UNL     1      -5.407   1.841  24.872  0.00  0.00    -0.291 NA
ATOM     21  C   UNL     1      -4.215   2.047  24.036  0.00  0.00    +0.113 C 
ATOM     22  C   UNL     1      -5.396   2.777  26.004  0.00  0.00    +0.113 C 
ATOM     23  C   UNL     1      -4.157   3.498  23.566  0.00  0.00    +0.175 C 
ATOM     24  C   UNL     1      -5.311   4.211  25.486  0.00  0.00    +0.175 C 
ENDBRANCH  20   5
ENDBRANCH  19  20
ENDBRANCH  10  17
TORSDOF 7
ENDMDL
MODEL 4
REMARK VINA RESULT:      -3.1      2.553      5.187
REMARK  Name = 56774370
REMARK  9 active torsions:
REMARK  status: ('A' for Active; 'I' for Inactive)
REMARK    1  A    between atoms: N_3  and  C_7
REMARK    2  A    between atoms: N_3  and  C_14
REMARK    3  A    between atoms: N_5  and  C_20
REMARK    4  A    between atoms: C_6  and  C_12
REMARK    5  A    between atoms: C_6  and  C_13
REMARK    6  A    between atoms: C_8  and  C_10
REMARK    7  A    between atoms: C_10  and  C_17
REMARK    8  A    between atoms: C_11  and  C_14
REMARK    9  A    between atoms: C_19  and  C_20
REMARK                            x       y       z     vdW  Elec       q    Type
REMARK                         _______ _______ _______ _____ _____    ______ ____
ROOT
ATOM     10  C   UNL     1       0.620   2.811  24.058  0.00  0.00    +0.063 C 
ENDROOT
BRANCH  10   8
ATOM      6  C   UNL     1      -1.545   4.089  24.816  0.00  0.00    -0.016 C 
ATOM      7  C   UNL     1      -2.013   3.621  26.210  0.00  0.00    +0.060 C 
ATOM      8  C   UNL     1      -0.157   3.519  25.176  0.00  0.00    +0.004 C 
ATOM      9  C   UNL     1      -0.885   2.571  26.152  0.00  0.00    +0.023 C 
ATOM     12  C   UNL     1      -2.179   3.437  23.607  0.00  0.00    +0.013 C 
ATOM     13  C   UNL     1      -1.616   5.599  24.666  0.00  0.00    +0.013 C 
BRANCH   7   3
ATOM      3  N   UNL     1      -3.304   2.935  26.132  0.00  0.00    -0.312 NA
ATOM     25  H   UNL     1      -3.445   2.253  26.878  0.00  0.00    +0.122 HD
BRANCH   3  14
ATOM     14  C   UNL     1      -4.381   3.917  26.198  0.00  0.00    +0.084 C 
BRANCH  14  11
ATOM     11  C   UNL     1      -5.634   3.391  25.574  0.00  0.00    +0.003 C 
ATOM     15  C   UNL     1      -5.558   2.194  24.673  0.00  0.00    +0.005 C 
ATOM     16  C   UNL     1      -6.184   2.073  26.032  0.00  0.00    +0.005 C 
ENDBRANCH  14  11
ENDBRANCH   3  14
ENDBRANCH   7   3
ENDBRANCH  10   8
BRANCH  10  17
ATOM      1  O   UNL     1       0.529  -0.712  23.480  0.00  0.00    -0.358 OA
ATOM      4  N   UNL     1       0.896   0.582  23.129  0.00  0.00    -0.083 NA
ATOM     17  C   UNL     1       0.412   1.355  24.105  0.00  0.00    +0.084 A 
ATOM     18  C   UNL     1      -0.263   0.613  25.089  0.00  0.00    +0.072 A 
ATOM     19  C   UNL     1      -0.161  -0.681  24.648  0.00  0.00    +0.151 A 
BRANCH  19  20
ATOM     20  C   UNL     1      -0.640  -2.004  25.182  0.00  0.00    +0.161 C 
BRANCH  20   5
ATOM      2  O   UNL     1      -4.644  -1.607  23.988  0.00  0.00    -0.377 OA
ATOM      5  N   UNL     1      -2.098  -2.105  25.159  0.00  0.00    -0.291 NA
ATOM     21  C   UNL     1      -2.551  -2.835  23.966  0.00  0.00    +0.113 C 
ATOM     22  C   UNL     1      -2.713  -0.771  25.197  0.00  0.00    +0.113 C 
ATOM     23  C   UNL     1      -4.075  -2.916  23.957  0.00  0.00    +0.175 C 
ATOM     24  C   UNL     1      -4.233  -0.903  25.160  0.00  0.00    +0.175 C 
ENDBRANCH  20   5
ENDBRANCH  19  20
ENDBRANCH  10  17
TORSDOF 7
ENDMDL
MODEL 5
REMARK VINA RESULT:      -3.0      2.227      5.246
REMARK  Name = 56774370
REMARK  9 active torsions:
REMARK  status: ('A' for Active; 'I' for Inactive)
REMARK    1  A    between atoms: N_3  and  C_7
REMARK    2  A    between atoms: N_3  and  C_14
REMARK    3  A    between atoms: N_5  and  C_20
REMARK    4  A    between atoms: C_6  and  C_12
REMARK    5  A    between atoms: C_6  and  C_13
REMARK    6  A    between atoms: C_8  and  C_10
REMARK    7  A    between atoms: C_10  and  C_17
REMARK    8  A    between atoms: C_11  and  C_14
REMARK    9  A    between atoms: C_19  and  C_20
REMARK                            x       y       z     vdW  Elec       q    Type
REMARK                         _______ _______ _______ _____ _____    ______ ____
ROOT
ATOM     10  C   UNL     1      -4.374   3.815  24.337  0.00  0.00    +0.063 C 
ENDROOT
BRANCH  10   8
ATOM      6  C   UNL     1      -1.828   4.155  24.879  0.00  0.00    -0.016 C 
ATOM      7  C   UNL     1      -0.936   3.326  23.931  0.00  0.00    +0.060 C 
ATOM      8  C   UNL     1      -2.943   4.023  23.822  0.00  0.00    +0.004 C 
ATOM      9  C   UNL     1      -2.237   2.734  23.350  0.00  0.00    +0.023 C 
ATOM     12  C   UNL     1      -2.180   3.549  26.220  0.00  0.00    +0.013 C 
ATOM     13  C   UNL     1      -1.287   5.558  25.092  0.00  0.00    +0.013 C 
BRANCH   7   3
ATOM      3  N   UNL     1      -0.222   2.276  24.659  0.00  0.00    -0.312 NA
ATOM     25  H   UNL     1      -0.770   1.424  24.781  0.00  0.00    +0.122 HD
BRANCH   3  14
ATOM     14  C   UNL     1       1.003   1.936  23.943  0.00  0.00    +0.084 C 
BRANCH  14  11
ATOM     11  C   UNL     1       1.102   0.463  23.704  0.00  0.00    +0.003 C 
ATOM     15  C   UNL     1       0.588  -0.106  22.415  0.00  0.00    +0.005 C 
ATOM     16  C   UNL     1       2.064  -0.050  22.675  0.00  0.00    +0.005 C 
ENDBRANCH  14  11
ENDBRANCH   3  14
ENDBRANCH   7   3
ENDBRANCH  10   8
BRANCH  10  17
ATOM      1  O   UNL     1      -5.519   0.693  25.638  0.00  0.00    -0.358 OA
ATOM      4  N   UNL     1      -5.538   2.081  25.580  0.00  0.00    -0.083 NA
ATOM     17  C   UNL     1      -4.623   2.402  24.661  0.00  0.00    +0.084 A 
ATOM     18  C   UNL     1      -4.000   1.269  24.110  0.00  0.00    +0.072 A 
ATOM     19  C   UNL     1      -4.599   0.220  24.758  0.00  0.00    +0.151 A 
BRANCH  19  20
ATOM     20  C   UNL     1      -4.444  -1.275  24.686  0.00  0.00    +0.161 C 
BRANCH  20   5
ATOM      2  O   UNL     1      -0.321  -1.675  25.360  0.00  0.00    -0.377 OA
ATOM      5  N   UNL     1      -3.164  -1.716  25.238  0.00  0.00    -0.291 NA
ATOM     21  C   UNL     1      -2.436  -0.587  25.835  0.00  0.00    +0.113 C 
ATOM     22  C   UNL     1      -2.341  -2.352  24.200  0.00  0.00    +0.113 C 
ATOM     23  C   UNL     1      -1.099  -1.069  26.392  0.00  0.00    +0.175 C 
ATOM     24  C   UNL     1      -1.007  -2.793  24.797  0.00  0.00    +0.175 C 
ENDBRANCH  20   5
ENDBRANCH  19  20
ENDBRANCH  10  17
TORSDOF 7
ENDMDL
MODEL 6
REMARK VINA RESULT:      -2.9     14.638     16.742
REMARK  Name = 56774370
REMARK  9 active torsions:
REMARK  status: ('A' for Active; 'I' for Inactive)
REMARK    1  A    between atoms: N_3  and  C_7
REMARK    2  A    between atoms: N_3  and  C_14
REMARK    3  A    between atoms: N_5  and  C_20
REMARK    4  A    between atoms: C_6  and  C_12
REMARK    5  A    between atoms: C_6  and  C_13
REMARK    6  A    between atoms: C_8  and  C_10
REMARK    7  A    between atoms: C_10  and  C_17
REMARK    8  A    between atoms: C_11  and  C_14
REMARK    9  A    between atoms: C_19  and  C_20
REMARK                            x       y       z     vdW  Elec       q    Type
REMARK                         _______ _______ _______ _____ _____    ______ ____
ROOT
ATOM     10  C   UNL     1      -6.934  -9.307  16.906  0.00  0.00    +0.063 C 
ENDROOT
BRANCH  10   8
ATOM      6  C   UNL     1      -9.533  -9.672  16.854  0.00  0.00    -0.016 C 
ATOM      7  C   UNL     1      -9.929 -10.740  15.812  0.00  0.00    +0.060 C 
ATOM      8  C   UNL     1      -8.116 -10.281  16.827  0.00  0.00    +0.004 C 
ATOM      9  C   UNL     1      -8.442 -10.781  15.403  0.00  0.00    +0.023 C 
ATOM     12  C   UNL     1      -9.584  -8.221  16.426  0.00  0.00    +0.013 C 
ATOM     13  C   UNL     1     -10.294  -9.836  18.158  0.00  0.00    +0.013 C 
BRANCH   7   3
ATOM      3  N   UNL     1     -10.705 -10.151  14.720  0.00  0.00    -0.312 NA
ATOM     25  H   UNL     1     -10.643  -9.133  14.683  0.00  0.00    +0.122 HD
BRANCH   3  14
ATOM     14  C   UNL     1     -10.235 -10.685  13.446  0.00  0.00    +0.084 C 
BRANCH  14  11
ATOM     11  C   UNL     1     -10.516  -9.740  12.323  0.00  0.00    +0.003 C 
ATOM     15  C   UNL     1      -9.383  -9.270  11.459  0.00  0.00    +0.005 C 
ATOM     16  C   UNL     1     -10.400 -10.226  10.909  0.00  0.00    +0.005 C 
ENDBRANCH  14  11
ENDBRANCH   3  14
ENDBRANCH   7   3
ENDBRANCH  10   8
BRANCH  10  17
ATOM      1  O   UNL     1      -3.823 -10.673  15.806  0.00  0.00    -0.358 OA
ATOM      4  N   UNL     1      -4.711 -10.287  16.802  0.00  0.00    -0.083 NA
ATOM     17  C   UNL     1      -5.776  -9.812  16.151  0.00  0.00    +0.084 A 
ATOM     18  C   UNL     1      -5.619  -9.873  14.755  0.00  0.00    +0.072 A 
ATOM     19  C   UNL     1      -4.374 -10.421  14.592  0.00  0.00    +0.151 A 
BRANCH  19  20
ATOM     20  C   UNL     1      -3.543 -10.781  13.389  0.00  0.00    +0.161 C 
BRANCH  20   5
ATOM      2  O   UNL     1      -4.944 -10.283   9.464  0.00  0.00    -0.377 OA
ATOM      5  N   UNL     1      -4.061 -10.168  12.167  0.00  0.00    -0.291 NA
ATOM     21  C   UNL     1      -5.367 -10.739  11.810  0.00  0.00    +0.113 C 
ATOM     22  C   UNL     1      -3.114 -10.340  11.057  0.00  0.00    +0.113 C 
ATOM     23  C   UNL     1      -5.880 -10.094  10.526  0.00  0.00    +0.175 C 
ATOM     24  C   UNL     1      -3.682  -9.702   9.792  0.00  0.00    +0.175 C 
ENDBRANCH  20   5
ENDBRANCH  19  20
ENDBRANCH  10  17
TORSDOF 7
ENDMDL
MODEL 7
REMARK VINA RESULT:      -2.7      3.191      5.678
REMARK  Name = 56774370
REMARK  9 active torsions:
REMARK  status: ('A' for Active; 'I' for Inactive)
REMARK    1  A    between atoms: N_3  and  C_7
REMARK    2  A    between atoms: N_3  and  C_14
REMARK    3  A    between atoms: N_5  and  C_20
REMARK    4  A    between atoms: C_6  and  C_12
REMARK    5  A    between atoms: C_6  and  C_13
REMARK    6  A    between atoms: C_8  and  C_10
REMARK    7  A    between atoms: C_10  and  C_17
REMARK    8  A    between atoms: C_11  and  C_14
REMARK    9  A    between atoms: C_19  and  C_20
REMARK                            x       y       z     vdW  Elec       q    Type
REMARK                         _______ _______ _______ _____ _____    ______ ____
ROOT
ATOM     10  C   UNL     1      -3.666   3.530  23.519  0.00  0.00    +0.063 C 
ENDROOT
BRANCH  10   8
ATOM      6  C   UNL     1      -1.842   4.372  25.211  0.00  0.00    -0.016 C 
ATOM      7  C   UNL     1      -0.654   3.391  25.289  0.00  0.00    +0.060 C 
ATOM      8  C   UNL     1      -2.181   3.733  23.848  0.00  0.00    +0.004 C 
ATOM      9  C   UNL     1      -1.455   2.467  24.348  0.00  0.00    +0.023 C 
ATOM     12  C   UNL     1      -2.940   4.230  26.242  0.00  0.00    +0.013 C 
ATOM     13  C   UNL     1      -1.386   5.820  25.162  0.00  0.00    +0.013 C 
BRANCH   7   3
ATOM      3  N   UNL     1      -0.571   2.765  26.610  0.00  0.00    -0.312 NA
ATOM     25  H   UNL     1      -1.100   1.895  26.679  0.00  0.00    +0.122 HD
BRANCH   3  14
ATOM     14  C   UNL     1       0.825   2.480  26.926  0.00  0.00    +0.084 C 
BRANCH  14  11
ATOM     11  C   UNL     1       1.225   3.101  28.225  0.00  0.00    +0.003 C 
ATOM     15  C   UNL     1       1.327   2.239  29.449  0.00  0.00    +0.005 C 
ATOM     16  C   UNL     1       2.570   2.781  28.807  0.00  0.00    +0.005 C 
ENDBRANCH  14  11
ENDBRANCH   3  14
ENDBRANCH   7   3
ENDBRANCH  10   8
BRANCH  10  17
ATOM      1  O   UNL     1      -5.436   0.755  24.903  0.00  0.00    -0.358 OA
ATOM      4  N   UNL     1      -5.298   2.109  24.626  0.00  0.00    -0.083 NA
ATOM     17  C   UNL     1      -4.137   2.213  23.975  0.00  0.00    +0.084 A 
ATOM     18  C   UNL     1      -3.502   0.969  23.814  0.00  0.00    +0.072 A 
ATOM     19  C   UNL     1      -4.361   0.086  24.416  0.00  0.00    +0.151 A 
BRANCH  19  20
ATOM     20  C   UNL     1      -4.342  -1.404  24.628  0.00  0.00    +0.161 C 
BRANCH  20   5
ATOM      2  O   UNL     1      -0.236  -1.781  25.410  0.00  0.00    -0.377 OA
ATOM      5  N   UNL     1      -3.073  -1.858  25.193  0.00  0.00    -0.291 NA
ATOM     21  C   UNL     1      -2.385  -0.757  25.881  0.00  0.00    +0.113 C 
ATOM     22  C   UNL     1      -2.207  -2.417  24.145  0.00  0.00    +0.113 C 
ATOM     23  C   UNL     1      -1.058  -1.251  26.450  0.00  0.00    +0.175 C 
ATOM     24  C   UNL     1      -0.885  -2.872  24.758  0.00  0.00    +0.175 C 
ENDBRANCH  20   5
ENDBRANCH  19  20
ENDBRANCH  10  17
TORSDOF 7
ENDMDL
MODEL 8
REMARK VINA RESULT:      -2.7      3.036      7.144
REMARK  Name = 56774370
REMARK  9 active torsions:
REMARK  status: ('A' for Active; 'I' for Inactive)
REMARK    1  A    between atoms: N_3  and  C_7
REMARK    2  A    between atoms: N_3  and  C_14
REMARK    3  A    between atoms: N_5  and  C_20
REMARK    4  A    between atoms: C_6  and  C_12
REMARK    5  A    between atoms: C_6  and  C_13
REMARK    6  A    between atoms: C_8  and  C_10
REMARK    7  A    between atoms: C_10  and  C_17
REMARK    8  A    between atoms: C_11  and  C_14
REMARK    9  A    between atoms: C_19  and  C_20
REMARK                            x       y       z     vdW  Elec       q    Type
REMARK                         _______ _______ _______ _____ _____    ______ ____
ROOT
ATOM     10  C   UNL     1      -1.057  -1.929  24.698  0.00  0.00    +0.063 C 
ENDROOT
BRANCH  10   8
ATOM      6  C   UNL     1       0.161   0.095  23.551  0.00  0.00    -0.016 C 
ATOM      7  C   UNL     1       0.134   1.348  24.450  0.00  0.00    +0.060 C 
ATOM      8  C   UNL     1      -0.106  -0.732  24.826  0.00  0.00    +0.004 C 
ATOM      9  C   UNL     1      -0.750   0.539  25.421  0.00  0.00    +0.023 C 
ATOM     12  C   UNL     1      -0.917  -0.039  22.498  0.00  0.00    +0.013 C 
ATOM     13  C   UNL     1       1.520  -0.117  22.905  0.00  0.00    +0.013 C 
BRANCH   7   3
ATOM      3  N   UNL     1      -0.672   2.412  23.850  0.00  0.00    -0.312 NA
ATOM     25  H   UNL     1      -1.592   2.514  24.280  0.00  0.00    +0.122 HD
BRANCH   3  14
ATOM     14  C   UNL     1       0.034   3.684  23.969  0.00  0.00    +0.084 C 
BRANCH  14  11
ATOM     11  C   UNL     1      -0.380   4.421  25.202  0.00  0.00    +0.003 C 
ATOM     15  C   UNL     1      -1.507   5.408  25.122  0.00  0.00    +0.005 C 
ATOM     16  C   UNL     1      -1.701   4.103  25.837  0.00  0.00    +0.005 C 
ENDBRANCH  14  11
ENDBRANCH   3  14
ENDBRANCH   7   3
ENDBRANCH  10   8
BRANCH  10  17
ATOM      1  O   UNL     1      -4.563  -1.484  24.183  0.00  0.00    -0.358 OA
ATOM      4  N   UNL     1      -3.360  -2.138  23.947  0.00  0.00    -0.083 NA
ATOM     17  C   UNL     1      -2.463  -1.495  24.700  0.00  0.00    +0.084 A 
ATOM     18  C   UNL     1      -3.036  -0.437  25.426  0.00  0.00    +0.072 A 
ATOM     19  C   UNL     1      -4.358  -0.473  25.065  0.00  0.00    +0.151 A 
BRANCH  19  20
ATOM     20  C   UNL     1      -5.562   0.348  25.439  0.00  0.00    +0.161 C 
BRANCH  20   5
ATOM      2  O   UNL     1      -4.296   4.259  24.595  0.00  0.00    -0.377 OA
ATOM      5  N   UNL     1      -5.499   1.696  24.876  0.00  0.00    -0.291 NA
ATOM     21  C   UNL     1      -4.258   1.882  24.110  0.00  0.00    +0.113 C 
ATOM     22  C   UNL     1      -5.594   2.708  25.936  0.00  0.00    +0.113 C 
ATOM     23  C   UNL     1      -4.208   3.299  23.543  0.00  0.00    +0.175 C 
ATOM     24  C   UNL     1      -5.514   4.104  25.324  0.00  0.00    +0.175 C 
ENDBRANCH  20   5
ENDBRANCH  19  20
ENDBRANCH  10  17
TORSDOF 7
ENDMDL
MODEL 9
REMARK VINA RESULT:      -2.4      1.652      3.416
REMARK  Name = 56774370
REMARK  9 active torsions:
REMARK  status: ('A' for Active; 'I' for Inactive)
REMARK    1  A    between atoms: N_3  and  C_7
REMARK    2  A    between atoms: N_3  and  C_14
REMARK    3  A    between atoms: N_5  and  C_20
REMARK    4  A    between atoms: C_6  and  C_12
REMARK    5  A    between atoms: C_6  and  C_13
REMARK    6  A    between atoms: C_8  and  C_10
REMARK    7  A    between atoms: C_10  and  C_17
REMARK    8  A    between atoms: C_11  and  C_14
REMARK    9  A    between atoms: C_19  and  C_20
REMARK                            x       y       z     vdW  Elec       q    Type
REMARK                         _______ _______ _______ _____ _____    ______ ____
ROOT
ATOM     10  C   UNL     1      -2.837  -0.075  24.769  0.00  0.00    +0.063 C 
ENDROOT
BRANCH  10   8
ATOM      6  C   UNL     1      -4.698   1.777  24.829  0.00  0.00    -0.016 C 
ATOM      7  C   UNL     1      -4.412   2.893  23.803  0.00  0.00    +0.060 C 
ATOM      8  C   UNL     1      -3.760   0.878  23.998  0.00  0.00    +0.004 C 
ATOM      9  C   UNL     1      -3.080   2.173  23.507  0.00  0.00    +0.023 C 
ATOM     12  C   UNL     1      -4.234   1.994  26.253  0.00  0.00    +0.013 C 
ATOM     13  C   UNL     1      -6.162   1.369  24.837  0.00  0.00    +0.013 C 
BRANCH   7   3
ATOM      3  N   UNL     1      -4.125   4.164  24.471  0.00  0.00    -0.312 NA
ATOM     25  H   UNL     1      -4.014   4.073  25.481  0.00  0.00    +0.122 HD
BRANCH   3  14
ATOM     14  C   UNL     1      -2.900   4.735  23.923  0.00  0.00    +0.084 C 
BRANCH  14  11
ATOM     11  C   UNL     1      -1.907   5.027  25.002  0.00  0.00    +0.003 C 
ATOM     15  C   UNL     1      -1.406   3.902  25.860  0.00  0.00    +0.005 C 
ATOM     16  C   UNL     1      -0.496   4.539  24.851  0.00  0.00    +0.005 C 
ENDBRANCH  14  11
ENDBRANCH   3  14
ENDBRANCH   7   3
ENDBRANCH  10   8
BRANCH  10  17
ATOM      1  O   UNL     1       0.617   0.745  24.380  0.00  0.00    -0.358 OA
ATOM      4  N   UNL     1      -0.596   0.822  25.054  0.00  0.00    -0.083 NA
ATOM     17  C   UNL     1      -1.438   0.073  24.338  0.00  0.00    +0.084 A 
ATOM     18  C   UNL     1      -0.820  -0.495  23.210  0.00  0.00    +0.072 A 
ATOM     19  C   UNL     1       0.471  -0.041  23.283  0.00  0.00    +0.151 A 
BRANCH  19  20
ATOM     20  C   UNL     1       1.694  -0.237  22.428  0.00  0.00    +0.161 C 
BRANCH  20   5
ATOM      2  O   UNL     1       5.755  -0.212  23.485  0.00  0.00    -0.377 OA
ATOM      5  N   UNL     1       2.927  -0.085  23.199  0.00  0.00    -0.291 NA
ATOM     21  C   UNL     1       3.807   0.918  22.582  0.00  0.00    +0.113 C 
ATOM     22  C   UNL     1       3.630  -1.370  23.315  0.00  0.00    +0.113 C 
ATOM     23  C   UNL     1       5.091   1.049  23.396  0.00  0.00    +0.175 C 
ATOM     24  C   UNL     1       4.918  -1.183  24.112  0.00  0.00    +0.175 C 
ENDBRANCH  20   5
ENDBRANCH  19  20
ENDBRANCH  10  17
TORSDOF 7
ENDMDL
MODEL 10
REMARK VINA RESULT:      -2.3      3.132      6.161
REMARK  Name = 56774370
REMARK  9 active torsions:
REMARK  status: ('A' for Active; 'I' for Inactive)
REMARK    1  A    between atoms: N_3  and  C_7
REMARK    2  A    between atoms: N_3  and  C_14
REMARK    3  A    between atoms: N_5  and  C_20
REMARK    4  A    between atoms: C_6  and  C_12
REMARK    5  A    between atoms: C_6  and  C_13
REMARK    6  A    between atoms: C_8  and  C_10
REMARK    7  A    between atoms: C_10  and  C_17
REMARK    8  A    between atoms: C_11  and  C_14
REMARK    9  A    between atoms: C_19  and  C_20
REMARK                            x       y       z     vdW  Elec       q    Type
REMARK                         _______ _______ _______ _____ _____    ______ ____
ROOT
ATOM     10  C   UNL     1       0.512   2.198  24.588  0.00  0.00    +0.063 C 
ENDROOT
BRANCH  10   8
ATOM      6  C   UNL     1      -0.734  -0.113  24.611  0.00  0.00    -0.016 C 
ATOM      7  C   UNL     1      -1.853  -0.158  23.550  0.00  0.00    +0.060 C 
ATOM      8  C   UNL     1      -0.114   1.042  23.798  0.00  0.00    +0.004 C 
ATOM      9  C   UNL     1      -1.534   1.324  23.262  0.00  0.00    +0.023 C 
ATOM     12  C   UNL     1      -1.119   0.271  26.023  0.00  0.00    +0.013 C 
ATOM     13  C   UNL     1       0.074  -1.400  24.645  0.00  0.00    +0.013 C 
BRANCH   7   3
ATOM      3  N   UNL     1      -3.173  -0.245  24.177  0.00  0.00    -0.312 NA
ATOM     25  H   UNL     1      -3.669   0.647  24.200  0.00  0.00    +0.122 HD
BRANCH   3  14
ATOM     14  C   UNL     1      -3.994  -1.208  23.451  0.00  0.00    +0.084 C 
BRANCH  14  11
ATOM     11  C   UNL     1      -4.076  -2.510  24.181  0.00  0.00    +0.003 C 
ATOM     15  C   UNL     1      -2.841  -3.350  24.325  0.00  0.00    +0.005 C 
ATOM     16  C   UNL     1      -3.413  -2.644  25.520  0.00  0.00    +0.005 C 
ENDBRANCH  14  11
ENDBRANCH   3  14
ENDBRANCH   7   3
ENDBRANCH  10   8
BRANCH  10  17
ATOM      1  O   UNL     1      -1.383   5.169  25.173  0.00  0.00    -0.358 OA
ATOM      4  N   UNL     1      -0.241   4.505  24.742  0.00  0.00    -0.083 NA
ATOM     17  C   UNL     1      -0.498   3.209  24.941  0.00  0.00    +0.084 A 
ATOM     18  C   UNL     1      -1.774   2.997  25.491  0.00  0.00    +0.072 A 
ATOM     19  C   UNL     1      -2.288   4.261  25.617  0.00  0.00    +0.151 A 
BRANCH  19  20
ATOM     20  C   UNL     1      -3.595   4.807  26.126  0.00  0.00    +0.161 C 
BRANCH  20   5
ATOM      2  O   UNL     1      -5.931   1.476  25.095  0.00  0.00    -0.377 OA
ATOM      5  N   UNL     1      -4.728   3.980  25.714  0.00  0.00    -0.291 NA
ATOM     21  C   UNL     1      -5.078   3.015  26.766  0.00  0.00    +0.113 C 
ATOM     22  C   UNL     1      -4.429   3.273  24.461  0.00  0.00    +0.113 C 
ATOM     23  C   UNL     1      -6.254   2.155  26.310  0.00  0.00    +0.175 C 
ATOM     24  C   UNL     1      -5.621   2.408  24.060  0.00  0.00    +0.175 C 
ENDBRANCH  20   5
ENDBRANCH  19  20
ENDBRANCH  10  17
TORSDOF 7
ENDMDL
