MODEL 1
REMARK VINA RESULT:      -0.0      0.000      0.000
REMARK  Name = 45783658
REMARK  4 active torsions:
REMARK  status: ('A' for Active; 'I' for Inactive)
REMARK    1  A    between atoms: N_2  and  C_8
REMARK    2  A    between atoms: N_6  and  C_24
REMARK    3  A    between atoms: C_9  and  C_18
REMARK    4  A    between atoms: C_19  and  C_20
REMARK                            x       y       z     vdW  Elec       q    Type
REMARK                         _______ _______ _______ _____ _____    ______ ____
ROOT
ATOM      1  O   UNL     1      -2.463   3.159  23.694  0.00  0.00    -0.336 OA
ATOM      3  N   UNL     1      -1.918   1.007  23.982  0.00  0.00    -0.190 NA
ATOM      4  N   UNL     1      -1.077   3.081  23.509  0.00  0.00    -0.056 NA
ATOM     18  C   UNL     1      -2.879   1.896  23.969  0.00  0.00    +0.245 A 
ATOM     19  C   UNL     1      -0.832   1.780  23.695  0.00  0.00    +0.204 A 
ENDROOT
BRANCH  19  20
ATOM      5  N   UNL     1       2.877   1.578  23.514  0.00  0.00    -0.237 NA
ATOM     20  C   UNL     1       0.488   1.223  23.602  0.00  0.00    +0.041 A 
ATOM     21  C   UNL     1       0.681  -0.151  23.510  0.00  0.00    +0.017 A 
ATOM     22  C   UNL     1       1.609   2.038  23.601  0.00  0.00    +0.124 A 
ATOM     23  C   UNL     1       1.971  -0.661  23.419  0.00  0.00    +0.047 A 
ATOM     24  C   UNL     1       3.026   0.238  23.426  0.00  0.00    +0.139 A 
BRANCH  24   6
ATOM      6  N   UNL     1       4.314  -0.267  23.336  0.00  0.00    -0.290 N 
ATOM      7  N   UNL     1       6.476  -0.374  22.843  0.00  0.00    -0.244 NA
ATOM     25  C   UNL     1       4.741  -1.482  23.791  0.00  0.00    +0.114 A 
ATOM     26  C   UNL     1       5.390   0.363  22.775  0.00  0.00    +0.205 A 
ATOM     27  C   UNL     1       6.079  -1.525  23.474  0.00  0.00    +0.130 A 
ENDBRANCH  24   6
ENDBRANCH  19  20
BRANCH  18   9
ATOM      2  N   UNL     1      -4.646   0.991  25.469  0.00  0.00    -0.288 NA
ATOM      9  C   UNL     1      -4.362   1.711  24.212  0.00  0.00    +0.146 C 
ATOM     12  C   UNL     1      -5.946   1.472  25.937  0.00  0.00    +0.085 C 
ATOM     13  C   UNL     1      -5.112   3.049  24.350  0.00  0.00    +0.030 C 
ATOM     14  C   UNL     1      -5.837   2.963  25.686  0.00  0.00    +0.017 C 
BRANCH   2   8
ATOM      8  C   UNL     1      -4.619  -0.462  25.320  0.00  0.00    +0.057 C 
ATOM     10  C   UNL     1      -4.611  -0.833  23.832  0.00  0.00    +0.019 C 
ATOM     11  C   UNL     1      -3.396  -1.039  26.040  0.00  0.00    +0.019 C 
ATOM     15  C   UNL     1      -4.506  -2.344  23.635  0.00  0.00    +0.002 C 
ATOM     16  C   UNL     1      -3.292  -2.550  25.840  0.00  0.00    +0.002 C 
ATOM     17  C   UNL     1      -3.296  -2.925  24.361  0.00  0.00    +0.000 C 
ENDBRANCH   2   8
ENDBRANCH  18   9
TORSDOF 4
ENDMDL
MODEL 2
REMARK VINA RESULT:       3.8      1.548      3.607
REMARK  Name = 45783658
REMARK  4 active torsions:
REMARK  status: ('A' for Active; 'I' for Inactive)
REMARK    1  A    between atoms: N_2  and  C_8
REMARK    2  A    between atoms: N_6  and  C_24
REMARK    3  A    between atoms: C_9  and  C_18
REMARK    4  A    between atoms: C_19  and  C_20
REMARK                            x       y       z     vdW  Elec       q    Type
REMARK                         _______ _______ _______ _____ _____    ______ ____
ROOT
ATOM      1  O   UNL     1      -1.195   0.642  23.184  0.00  0.00    -0.336 OA
ATOM      3  N   UNL     1       0.151  -0.715  24.350  0.00  0.00    -0.190 NA
ATOM      4  N   UNL     1       0.108   0.924  22.755  0.00  0.00    -0.056 NA
ATOM     18  C   UNL     1      -1.081  -0.333  24.123  0.00  0.00    +0.245 A 
ATOM     19  C   UNL     1       0.844   0.084  23.488  0.00  0.00    +0.204 A 
ENDROOT
BRANCH  19  20
ATOM      5  N   UNL     1       4.313  -1.236  23.713  0.00  0.00    -0.237 NA
ATOM     20  C   UNL     1       2.273   0.019  23.384  0.00  0.00    +0.041 A 
ATOM     21  C   UNL     1       3.004   1.090  22.881  0.00  0.00    +0.017 A 
ATOM     22  C   UNL     1       2.969  -1.112  23.782  0.00  0.00    +0.124 A 
ATOM     23  C   UNL     1       4.390   0.999  22.793  0.00  0.00    +0.047 A 
ATOM     24  C   UNL     1       4.990  -0.176  23.219  0.00  0.00    +0.139 A 
BRANCH  24   6
ATOM      6  N   UNL     1       6.370  -0.270  23.133  0.00  0.00    -0.290 N 
ATOM      7  N   UNL     1       8.370  -0.987  22.488  0.00  0.00    -0.244 NA
ATOM     25  C   UNL     1       7.278   0.489  23.815  0.00  0.00    +0.114 A 
ATOM     26  C   UNL     1       7.073  -1.142  22.349  0.00  0.00    +0.205 A 
ATOM     27  C   UNL     1       8.506   0.028  23.401  0.00  0.00    +0.130 A 
ENDBRANCH  24   6
ENDBRANCH  19  20
BRANCH  18   9
ATOM      2  N   UNL     1      -3.555  -0.100  24.247  0.00  0.00    -0.288 NA
ATOM      9  C   UNL     1      -2.369  -0.821  24.751  0.00  0.00    +0.146 C 
ATOM     12  C   UNL     1      -4.675  -1.038  24.329  0.00  0.00    +0.085 C 
ATOM     13  C   UNL     1      -2.654  -2.303  24.446  0.00  0.00    +0.030 C 
ATOM     14  C   UNL     1      -4.045  -2.323  23.829  0.00  0.00    +0.017 C 
BRANCH   2   8
ATOM      8  C   UNL     1      -3.824   1.142  24.967  0.00  0.00    +0.057 C 
ATOM     10  C   UNL     1      -3.455   2.344  24.090  0.00  0.00    +0.019 C 
ATOM     11  C   UNL     1      -5.297   1.194  25.385  0.00  0.00    +0.019 C 
ATOM     15  C   UNL     1      -3.794   3.663  24.782  0.00  0.00    +0.002 C 
ATOM     16  C   UNL     1      -5.635   2.515  26.075  0.00  0.00    +0.002 C 
ATOM     17  C   UNL     1      -5.258   3.714  25.210  0.00  0.00    +0.000 C 
ENDBRANCH   2   8
ENDBRANCH  18   9
TORSDOF 4
ENDMDL
MODEL 3
REMARK VINA RESULT:       4.0      1.968      3.728
REMARK  Name = 45783658
REMARK  4 active torsions:
REMARK  status: ('A' for Active; 'I' for Inactive)
REMARK    1  A    between atoms: N_2  and  C_8
REMARK    2  A    between atoms: N_6  and  C_24
REMARK    3  A    between atoms: C_9  and  C_18
REMARK    4  A    between atoms: C_19  and  C_20
REMARK                            x       y       z     vdW  Elec       q    Type
REMARK                         _______ _______ _______ _____ _____    ______ ____
ROOT
ATOM      1  O   UNL     1      -3.676  -0.445  24.292  0.00  0.00    -0.336 OA
ATOM      3  N   UNL     1      -2.157   1.095  24.869  0.00  0.00    -0.190 NA
ATOM      4  N   UNL     1      -2.434  -0.952  23.887  0.00  0.00    -0.056 NA
ATOM     18  C   UNL     1      -3.423   0.763  24.860  0.00  0.00    +0.245 A 
ATOM     19  C   UNL     1      -1.590   0.013  24.262  0.00  0.00    +0.204 A 
ENDROOT
BRANCH  19  20
ATOM      5  N   UNL     1       1.838  -1.412  24.050  0.00  0.00    -0.237 NA
ATOM     20  C   UNL     1      -0.174  -0.073  24.043  0.00  0.00    +0.041 A 
ATOM     21  C   UNL     1       0.556   1.036  23.632  0.00  0.00    +0.017 A 
ATOM     22  C   UNL     1       0.507  -1.264  24.236  0.00  0.00    +0.124 A 
ATOM     23  C   UNL     1       1.927   0.923  23.429  0.00  0.00    +0.047 A 
ATOM     24  C   UNL     1       2.515  -0.313  23.650  0.00  0.00    +0.139 A 
BRANCH  24   6
ATOM      6  N   UNL     1       3.882  -0.430  23.449  0.00  0.00    -0.290 N 
ATOM      7  N   UNL     1       5.936   0.077  22.779  0.00  0.00    -0.244 NA
ATOM     25  C   UNL     1       4.674  -1.465  23.857  0.00  0.00    +0.114 A 
ATOM     26  C   UNL     1       4.684   0.472  22.807  0.00  0.00    +0.205 A 
ATOM     27  C   UNL     1       5.938  -1.130  23.431  0.00  0.00    +0.130 A 
ENDBRANCH  24   6
ENDBRANCH  19  20
BRANCH  18   9
ATOM      2  N   UNL     1      -4.995   2.662  24.523  0.00  0.00    -0.288 NA
ATOM      9  C   UNL     1      -4.620   1.525  25.387  0.00  0.00    +0.146 C 
ATOM     12  C   UNL     1      -6.438   2.846  24.684  0.00  0.00    +0.085 C 
ATOM     13  C   UNL     1      -5.890   0.657  25.463  0.00  0.00    +0.030 C 
ATOM     14  C   UNL     1      -6.940   1.416  24.665  0.00  0.00    +0.017 C 
BRANCH   2   8
ATOM      8  C   UNL     1      -4.248   3.882  24.821  0.00  0.00    +0.057 C 
ATOM     10  C   UNL     1      -3.519   3.733  26.161  0.00  0.00    +0.019 C 
ATOM     11  C   UNL     1      -3.263   4.180  23.686  0.00  0.00    +0.019 C 
ATOM     15  C   UNL     1      -2.666   4.961  26.470  0.00  0.00    +0.002 C 
ATOM     16  C   UNL     1      -2.409   5.409  23.998  0.00  0.00    +0.002 C 
ATOM     17  C   UNL     1      -1.691   5.270  25.338  0.00  0.00    +0.000 C 
ENDBRANCH   2   8
ENDBRANCH  18   9
TORSDOF 4
ENDMDL
