MODEL 1
REMARK VINA RESULT:      -0.7      0.000      0.000
REMARK  Name = 45783385
REMARK  8 active torsions:
REMARK  status: ('A' for Active; 'I' for Inactive)
REMARK    1  A    between atoms: O_2  and  C_27
REMARK    2  A    between atoms: O_2  and  C_28
REMARK    3  A    between atoms: N_3  and  C_9
REMARK    4  A    between atoms: N_4  and  C_19
REMARK    5  A    between atoms: N_7  and  C_25
REMARK    6  A    between atoms: C_10  and  C_18
REMARK    7  A    between atoms: C_20  and  C_21
REMARK    8  A    between atoms: C_25  and  C_27
REMARK                            x       y       z     vdW  Elec       q    Type
REMARK                         _______ _______ _______ _____ _____    ______ ____
ROOT
ATOM      1  O   UNL     1      -0.774  -2.348  25.318  0.00  0.00    -0.336 OA
ATOM      5  N   UNL     1      -0.914  -0.464  24.114  0.00  0.00    -0.190 NA
ATOM      6  N   UNL     1       0.541  -1.998  24.987  0.00  0.00    -0.056 NA
ATOM     18  C   UNL     1      -1.568  -1.393  24.765  0.00  0.00    +0.245 A 
ATOM     20  C   UNL     1       0.376  -0.878  24.279  0.00  0.00    +0.205 A 
ENDROOT
BRANCH  20  21
ATOM      7  N   UNL     1       0.353   1.955  24.068  0.00  0.00    -0.326 N 
ATOM      8  N   UNL     1       2.507   1.945  23.089  0.00  0.00    -0.240 NA
ATOM     21  C   UNL     1       1.478  -0.149  23.720  0.00  0.00    +0.062 A 
ATOM     22  C   UNL     1       1.483   1.232  23.610  0.00  0.00    +0.130 A 
ATOM     23  C   UNL     1       2.594  -0.843  23.268  0.00  0.00    +0.016 A 
ATOM     24  C   UNL     1       3.668  -0.144  22.725  0.00  0.00    +0.020 A 
ATOM     26  C   UNL     1       3.576   1.237  22.659  0.00  0.00    +0.113 A 
ATOM     29  H   UNL     1      -0.522   1.441  24.097  0.00  0.00    +0.148 HD
BRANCH   7  25
ATOM     25  C   UNL     1       0.268   3.377  23.995  0.00  0.00    +0.131 C 
BRANCH  25  27
ATOM     27  C   UNL     1      -0.591   3.904  25.131  0.00  0.00    +0.178 C 
BRANCH  27   2
ATOM      2  O   UNL     1      -0.905   2.841  26.022  0.00  0.00    -0.381 OA
ATOM     28  C   UNL     1       0.189   2.535  26.875  0.00  0.00    +0.194 C 
ENDBRANCH  27   2
ENDBRANCH  25  27
ENDBRANCH   7  25
ENDBRANCH  20  21
BRANCH  18  10
ATOM      3  N   UNL     1      -3.850  -0.590  24.181  0.00  0.00    -0.288 NA
ATOM     10  C   UNL     1      -3.058  -1.545  24.982  0.00  0.00    +0.146 C 
ATOM     11  C   UNL     1      -5.132  -1.240  23.911  0.00  0.00    +0.085 C 
ATOM     14  C   UNL     1      -3.582  -2.932  24.565  0.00  0.00    +0.030 C 
ATOM     15  C   UNL     1      -4.703  -2.654  23.575  0.00  0.00    +0.017 C 
BRANCH   3   9
ATOM      4  N   UNL     1      -5.372   3.297  24.980  0.00  0.00    -0.305 NA
ATOM      9  C   UNL     1      -4.017   0.707  24.832  0.00  0.00    +0.060 C 
ATOM     12  C   UNL     1      -5.445   0.853  25.364  0.00  0.00    +0.034 C 
ATOM     13  C   UNL     1      -3.701   1.851  23.863  0.00  0.00    +0.034 C 
ATOM     16  C   UNL     1      -5.669   2.245  25.961  0.00  0.00    +0.085 C 
ATOM     17  C   UNL     1      -3.982   3.210  24.510  0.00  0.00    +0.085 C 
ATOM     19  C   UNL     1      -5.638   4.618  25.549  0.00  0.00    +0.104 C 
ENDBRANCH   3   9
ENDBRANCH  18  10
TORSDOF 6
ENDMDL
MODEL 2
REMARK VINA RESULT:       2.1      1.394      4.395
REMARK  Name = 45783385
REMARK  8 active torsions:
REMARK  status: ('A' for Active; 'I' for Inactive)
REMARK    1  A    between atoms: O_2  and  C_27
REMARK    2  A    between atoms: O_2  and  C_28
REMARK    3  A    between atoms: N_3  and  C_9
REMARK    4  A    between atoms: N_4  and  C_19
REMARK    5  A    between atoms: N_7  and  C_25
REMARK    6  A    between atoms: C_10  and  C_18
REMARK    7  A    between atoms: C_20  and  C_21
REMARK    8  A    between atoms: C_25  and  C_27
REMARK                            x       y       z     vdW  Elec       q    Type
REMARK                         _______ _______ _______ _____ _____    ______ ____
ROOT
ATOM      1  O   UNL     1      -1.416   3.633  24.680  0.00  0.00    -0.336 OA
ATOM      5  N   UNL     1      -1.430   1.649  23.640  0.00  0.00    -0.190 NA
ATOM      6  N   UNL     1      -0.074   3.275  24.507  0.00  0.00    -0.056 NA
ATOM     18  C   UNL     1      -2.148   2.621  24.143  0.00  0.00    +0.245 A 
ATOM     20  C   UNL     1      -0.164   2.095  23.887  0.00  0.00    +0.205 A 
ENDROOT
BRANCH  20  21
ATOM      7  N   UNL     1      -0.228  -0.738  23.684  0.00  0.00    -0.326 N 
ATOM      8  N   UNL     1       2.048  -0.788  23.039  0.00  0.00    -0.240 NA
ATOM     21  C   UNL     1       0.991   1.335  23.503  0.00  0.00    +0.062 A 
ATOM     22  C   UNL     1       0.976  -0.046  23.399  0.00  0.00    +0.130 A 
ATOM     23  C   UNL     1       2.179   1.998  23.219  0.00  0.00    +0.016 A 
ATOM     24  C   UNL     1       3.303   1.268  22.845  0.00  0.00    +0.020 A 
ATOM     26  C   UNL     1       3.186  -0.110  22.771  0.00  0.00    +0.113 A 
ATOM     29  H   UNL     1      -0.883  -0.257  24.293  0.00  0.00    +0.148 HD
BRANCH   7  25
ATOM     25  C   UNL     1      -0.338  -2.158  23.605  0.00  0.00    +0.131 C 
BRANCH  25  27
ATOM     27  C   UNL     1      -0.522  -2.742  24.994  0.00  0.00    +0.178 C 
BRANCH  27   2
ATOM      2  O   UNL     1       0.090  -1.888  25.954  0.00  0.00    -0.381 OA
ATOM     28  C   UNL     1      -0.806  -0.879  26.399  0.00  0.00    +0.194 C 
ENDBRANCH  27   2
ENDBRANCH  25  27
ENDBRANCH   7  25
ENDBRANCH  20  21
BRANCH  18  10
ATOM      3  N   UNL     1      -4.247   2.080  25.366  0.00  0.00    -0.288 NA
ATOM     10  C   UNL     1      -3.654   2.771  24.204  0.00  0.00    +0.146 C 
ATOM     11  C   UNL     1      -5.454   2.825  25.719  0.00  0.00    +0.085 C 
ATOM     14  C   UNL     1      -4.099   4.238  24.353  0.00  0.00    +0.030 C 
ATOM     15  C   UNL     1      -4.986   4.261  25.589  0.00  0.00    +0.017 C 
BRANCH   3   9
ATOM      4  N   UNL     1      -3.575  -1.991  24.345  0.00  0.00    -0.305 NA
ATOM      9  C   UNL     1      -4.526   0.668  25.114  0.00  0.00    +0.060 C 
ATOM     12  C   UNL     1      -3.704  -0.212  26.061  0.00  0.00    +0.034 C 
ATOM     13  C   UNL     1      -4.218   0.299  23.659  0.00  0.00    +0.034 C 
ATOM     16  C   UNL     1      -3.907  -1.696  25.745  0.00  0.00    +0.085 C 
ATOM     17  C   UNL     1      -4.404  -1.202  23.423  0.00  0.00    +0.085 C 
ATOM     19  C   UNL     1      -3.727  -3.420  24.073  0.00  0.00    +0.104 C 
ENDBRANCH   3   9
ENDBRANCH  18  10
TORSDOF 6
ENDMDL
MODEL 3
REMARK VINA RESULT:       2.7      1.476      5.990
REMARK  Name = 45783385
REMARK  8 active torsions:
REMARK  status: ('A' for Active; 'I' for Inactive)
REMARK    1  A    between atoms: O_2  and  C_27
REMARK    2  A    between atoms: O_2  and  C_28
REMARK    3  A    between atoms: N_3  and  C_9
REMARK    4  A    between atoms: N_4  and  C_19
REMARK    5  A    between atoms: N_7  and  C_25
REMARK    6  A    between atoms: C_10  and  C_18
REMARK    7  A    between atoms: C_20  and  C_21
REMARK    8  A    between atoms: C_25  and  C_27
REMARK                            x       y       z     vdW  Elec       q    Type
REMARK                         _______ _______ _______ _____ _____    ______ ____
ROOT
ATOM      1  O   UNL     1      -4.337  -1.128  24.000  0.00  0.00    -0.336 OA
ATOM      5  N   UNL     1      -3.008   0.569  24.609  0.00  0.00    -0.190 NA
ATOM      6  N   UNL     1      -5.182  -0.038  24.239  0.00  0.00    -0.056 NA
ATOM     18  C   UNL     1      -3.074  -0.685  24.242  0.00  0.00    +0.245 A 
ATOM     20  C   UNL     1      -4.326   0.924  24.592  0.00  0.00    +0.205 A 
ENDROOT
BRANCH  20  21
ATOM      7  N   UNL     1      -2.602   3.170  24.356  0.00  0.00    -0.326 N 
ATOM      8  N   UNL     1      -4.302   4.615  25.144  0.00  0.00    -0.240 NA
ATOM     21  C   UNL     1      -4.754   2.249  24.938  0.00  0.00    +0.062 A 
ATOM     22  C   UNL     1      -3.926   3.355  24.828  0.00  0.00    +0.130 A 
ATOM     23  C   UNL     1      -6.049   2.448  25.401  0.00  0.00    +0.016 A 
ATOM     24  C   UNL     1      -6.472   3.730  25.737  0.00  0.00    +0.020 A 
ATOM     26  C   UNL     1      -5.568   4.770  25.592  0.00  0.00    +0.113 A 
ATOM     29  H   UNL     1      -2.211   2.241  24.481  0.00  0.00    +0.148 HD
BRANCH   7  25
ATOM     25  C   UNL     1      -1.679   4.247  24.211  0.00  0.00    +0.131 C 
BRANCH  25  27
ATOM     27  C   UNL     1      -0.669   4.222  25.345  0.00  0.00    +0.178 C 
BRANCH  27   2
ATOM      2  O   UNL     1      -1.014   3.193  26.265  0.00  0.00    -0.381 OA
ATOM     28  C   UNL     1       0.137   2.663  26.909  0.00  0.00    +0.194 C 
ENDBRANCH  27   2
ENDBRANCH  25  27
ENDBRANCH   7  25
ENDBRANCH  20  21
BRANCH  18  10
ATOM      3  N   UNL     1      -0.688  -1.253  24.663  0.00  0.00    -0.288 NA
ATOM     10  C   UNL     1      -1.958  -1.691  24.051  0.00  0.00    +0.146 C 
ATOM     11  C   UNL     1       0.029  -2.469  25.043  0.00  0.00    +0.085 C 
ATOM     14  C   UNL     1      -2.262  -3.048  24.711  0.00  0.00    +0.030 C 
ATOM     15  C   UNL     1      -1.080  -3.317  25.631  0.00  0.00    +0.017 C 
BRANCH   3   9
ATOM      4  N   UNL     1       2.622   0.991  23.224  0.00  0.00    -0.305 NA
ATOM      9  C   UNL     1       0.107  -0.395  23.787  0.00  0.00    +0.060 C 
ATOM     12  C   UNL     1       1.362  -1.137  23.318  0.00  0.00    +0.034 C 
ATOM     13  C   UNL     1       0.503   0.901  24.501  0.00  0.00    +0.034 C 
ATOM     16  C   UNL     1       2.259  -0.222  22.480  0.00  0.00    +0.085 C 
ATOM     17  C   UNL     1       1.428   1.749  23.624  0.00  0.00    +0.085 C 
ATOM     19  C   UNL     1       3.518   1.831  22.429  0.00  0.00    +0.104 C 
ENDBRANCH   3   9
ENDBRANCH  18  10
TORSDOF 6
ENDMDL
MODEL 4
REMARK VINA RESULT:       3.0      2.029      5.277
REMARK  Name = 45783385
REMARK  8 active torsions:
REMARK  status: ('A' for Active; 'I' for Inactive)
REMARK    1  A    between atoms: O_2  and  C_27
REMARK    2  A    between atoms: O_2  and  C_28
REMARK    3  A    between atoms: N_3  and  C_9
REMARK    4  A    between atoms: N_4  and  C_19
REMARK    5  A    between atoms: N_7  and  C_25
REMARK    6  A    between atoms: C_10  and  C_18
REMARK    7  A    between atoms: C_20  and  C_21
REMARK    8  A    between atoms: C_25  and  C_27
REMARK                            x       y       z     vdW  Elec       q    Type
REMARK                         _______ _______ _______ _____ _____    ______ ____
ROOT
ATOM      1  O   UNL     1      -4.625   0.550  24.528  0.00  0.00    -0.336 OA
ATOM      5  N   UNL     1      -2.538   1.183  24.019  0.00  0.00    -0.190 NA
ATOM      6  N   UNL     1      -4.544   1.912  24.842  0.00  0.00    -0.056 NA
ATOM     18  C   UNL     1      -3.402   0.200  24.050  0.00  0.00    +0.245 A 
ATOM     20  C   UNL     1      -3.284   2.213  24.513  0.00  0.00    +0.205 A 
ENDROOT
BRANCH  20  21
ATOM      7  N   UNL     1      -0.711   2.654  25.633  0.00  0.00    -0.326 N 
ATOM      8  N   UNL     1      -0.948   4.993  25.373  0.00  0.00    -0.240 NA
ATOM     21  C   UNL     1      -2.740   3.531  24.670  0.00  0.00    +0.062 A 
ATOM     22  C   UNL     1      -1.487   3.763  25.214  0.00  0.00    +0.130 A 
ATOM     23  C   UNL     1      -3.488   4.630  24.263  0.00  0.00    +0.016 A 
ATOM     24  C   UNL     1      -2.967   5.912  24.411  0.00  0.00    +0.020 A 
ATOM     26  C   UNL     1      -1.704   6.038  24.967  0.00  0.00    +0.113 A 
ATOM     29  H   UNL     1      -1.229   1.811  25.865  0.00  0.00    +0.148 HD
BRANCH   7  25
ATOM     25  C   UNL     1       0.588   2.794  26.204  0.00  0.00    +0.131 C 
BRANCH  25  27
ATOM     27  C   UNL     1       0.559   2.389  27.668  0.00  0.00    +0.178 C 
BRANCH  27   2
ATOM      2  O   UNL     1       1.802   2.719  28.276  0.00  0.00    -0.381 OA
ATOM     28  C   UNL     1       1.789   2.442  29.670  0.00  0.00    +0.194 C 
ENDBRANCH  27   2
ENDBRANCH  25  27
ENDBRANCH   7  25
ENDBRANCH  20  21
BRANCH  18  10
ATOM      3  N   UNL     1      -2.151  -1.926  24.378  0.00  0.00    -0.288 NA
ATOM     10  C   UNL     1      -3.228  -1.245  23.633  0.00  0.00    +0.146 C 
ATOM     11  C   UNL     1      -2.521  -3.339  24.442  0.00  0.00    +0.085 C 
ATOM     14  C   UNL     1      -4.484  -2.095  23.899  0.00  0.00    +0.030 C 
ATOM     15  C   UNL     1      -4.002  -3.262  24.750  0.00  0.00    +0.017 C 
BRANCH   3   9
ATOM      4  N   UNL     1       1.436   0.030  23.203  0.00  0.00    -0.305 NA
ATOM      9  C   UNL     1      -0.829  -1.730  23.785  0.00  0.00    +0.060 C 
ATOM     12  C   UNL     1       0.176  -1.308  24.861  0.00  0.00    +0.034 C 
ATOM     13  C   UNL     1      -0.877  -0.677  22.674  0.00  0.00    +0.034 C 
ATOM     16  C   UNL     1       1.543  -1.001  24.244  0.00  0.00    +0.085 C 
ATOM     17  C   UNL     1       0.524  -0.391  22.129  0.00  0.00    +0.085 C 
ATOM     19  C   UNL     1       2.756   0.347  22.658  0.00  0.00    +0.104 C 
ENDBRANCH   3   9
ENDBRANCH  18  10
TORSDOF 6
ENDMDL
MODEL 5
REMARK VINA RESULT:       3.2      1.898      5.623
REMARK  Name = 45783385
REMARK  8 active torsions:
REMARK  status: ('A' for Active; 'I' for Inactive)
REMARK    1  A    between atoms: O_2  and  C_27
REMARK    2  A    between atoms: O_2  and  C_28
REMARK    3  A    between atoms: N_3  and  C_9
REMARK    4  A    between atoms: N_4  and  C_19
REMARK    5  A    between atoms: N_7  and  C_25
REMARK    6  A    between atoms: C_10  and  C_18
REMARK    7  A    between atoms: C_20  and  C_21
REMARK    8  A    between atoms: C_25  and  C_27
REMARK                            x       y       z     vdW  Elec       q    Type
REMARK                         _______ _______ _______ _____ _____    ______ ____
ROOT
ATOM      1  O   UNL     1      -6.033   1.217  24.687  0.00  0.00    -0.336 OA
ATOM      5  N   UNL     1      -3.888   0.835  25.208  0.00  0.00    -0.190 NA
ATOM      6  N   UNL     1      -5.747  -0.078  24.238  0.00  0.00    -0.056 NA
ATOM     18  C   UNL     1      -4.885   1.683  25.245  0.00  0.00    +0.245 A 
ATOM     20  C   UNL     1      -4.465  -0.231  24.582  0.00  0.00    +0.205 A 
ENDROOT
BRANCH  20  21
ATOM      7  N   UNL     1      -1.625  -0.286  24.553  0.00  0.00    -0.326 N 
ATOM      8  N   UNL     1      -1.629  -2.596  24.044  0.00  0.00    -0.240 NA
ATOM     21  C   UNL     1      -3.732  -1.434  24.312  0.00  0.00    +0.062 A 
ATOM     22  C   UNL     1      -2.347  -1.478  24.295  0.00  0.00    +0.130 A 
ATOM     23  C   UNL     1      -4.424  -2.612  24.057  0.00  0.00    +0.016 A 
ATOM     24  C   UNL     1      -3.721  -3.783  23.795  0.00  0.00    +0.020 A 
ATOM     26  C   UNL     1      -2.336  -3.722  23.800  0.00  0.00    +0.113 A 
ATOM     29  H   UNL     1      -2.118   0.582  24.367  0.00  0.00    +0.148 HD
BRANCH   7  25
ATOM     25  C   UNL     1      -0.200  -0.234  24.556  0.00  0.00    +0.131 C 
BRANCH  25  27
ATOM     27  C   UNL     1       0.303   0.297  23.224  0.00  0.00    +0.178 C 
BRANCH  27   2
ATOM      2  O   UNL     1       1.417  -0.477  22.795  0.00  0.00    -0.381 OA
ATOM     28  C   UNL     1       2.607   0.299  22.757  0.00  0.00    +0.194 C 
ENDBRANCH  27   2
ENDBRANCH  25  27
ENDBRANCH   7  25
ENDBRANCH  20  21
BRANCH  18  10
ATOM      3  N   UNL     1      -4.230   4.068  24.966  0.00  0.00    -0.288 NA
ATOM     10  C   UNL     1      -4.932   3.085  25.815  0.00  0.00    +0.146 C 
ATOM     11  C   UNL     1      -4.899   5.351  25.177  0.00  0.00    +0.085 C 
ATOM     14  C   UNL     1      -6.368   3.630  25.934  0.00  0.00    +0.030 C 
ATOM     15  C   UNL     1      -6.359   4.948  25.174  0.00  0.00    +0.017 C 
BRANCH   3   9
ATOM      4  N   UNL     1      -0.256   2.789  25.766  0.00  0.00    -0.305 NA
ATOM      9  C   UNL     1      -2.796   4.143  25.241  0.00  0.00    +0.060 C 
ATOM     12  C   UNL     1      -2.008   3.429  24.139  0.00  0.00    +0.034 C 
ATOM     13  C   UNL     1      -2.466   3.527  26.603  0.00  0.00    +0.034 C 
ATOM     16  C   UNL     1      -0.511   3.411  24.460  0.00  0.00    +0.085 C 
ATOM     17  C   UNL     1      -0.953   3.505  26.843  0.00  0.00    +0.085 C 
ATOM     19  C   UNL     1       1.181   2.734  26.036  0.00  0.00    +0.104 C 
ENDBRANCH   3   9
ENDBRANCH  18  10
TORSDOF 6
ENDMDL
