MODEL 1
REMARK VINA RESULT:       7.3      0.000      0.000
REMARK  Name = 40724405
REMARK  4 active torsions:
REMARK  status: ('A' for Active; 'I' for Inactive)
REMARK    1  A    between atoms: N_4  and  C_14
REMARK    2  A    between atoms: N_7  and  C_21
REMARK    3  A    between atoms: N_8  and  C_26
REMARK    4  A    between atoms: C_25  and  C_33
REMARK                            x       y       z     vdW  Elec       q    Type
REMARK                         _______ _______ _______ _____ _____    ______ ____
ROOT
ATOM      1  O   UNL     1      -3.919   5.415  23.135  0.00  0.00    -0.268 OA
ATOM      4  N   UNL     1      -0.144   2.244  24.060  0.00  0.00    -0.298 NA
ATOM      5  N   UNL     1      -2.836   3.889  24.545  0.00  0.00    -0.310 N 
ATOM      9  C   UNL     1      -0.473   4.306  25.447  0.00  0.00    +0.024 C 
ATOM     10  C   UNL     1      -1.659   2.250  26.045  0.00  0.00    +0.052 C 
ATOM     11  C   UNL     1      -0.939   3.466  26.625  0.00  0.00    +0.017 C 
ATOM     12  C   UNL     1       0.471   3.484  24.546  0.00  0.00    +0.090 C 
ATOM     13  C   UNL     1      -0.676   1.439  25.169  0.00  0.00    +0.094 C 
ATOM     15  C   UNL     1      -1.708   4.818  24.700  0.00  0.00    +0.130 C 
ATOM     16  C   UNL     1      -2.883   2.661  25.227  0.00  0.00    +0.047 A 
ATOM     21  C   UNL     1      -3.980   1.877  25.121  0.00  0.00    +0.055 A 
ATOM     22  C   UNL     1      -3.899   4.343  23.743  0.00  0.00    +0.252 A 
ATOM     23  C   UNL     1      -5.099   2.299  24.313  0.00  0.00    +0.030 A 
ATOM     24  C   UNL     1      -5.083   3.454  23.646  0.00  0.00    +0.072 A 
ENDROOT
BRANCH   4  14
ATOM      2  O   UNL     1       4.233  -2.070  23.857  0.00  0.00    -0.276 OA
ATOM      6  N   UNL     1       3.186  -0.157  23.056  0.00  0.00    -0.302 N 
ATOM     14  C   UNL     1       0.799   1.470  23.257  0.00  0.00    +0.060 C 
ATOM     17  C   UNL     1       0.821   0.011  23.731  0.00  0.00    +0.038 C 
ATOM     18  C   UNL     1       2.202   2.086  23.354  0.00  0.00    +0.038 C 
ATOM     19  C   UNL     1       1.871  -0.795  22.968  0.00  0.00    +0.109 C 
ATOM     20  C   UNL     1       3.226   1.239  22.598  0.00  0.00    +0.109 C 
ATOM     25  C   UNL     1       4.283  -0.887  23.511  0.00  0.00    +0.212 C 
ATOM     33  C   UNL     1       5.602  -0.158  23.576  0.00  0.00    +0.109 C 
ENDBRANCH   4  14
BRANCH  21   7
ATOM      3  O   UNL     1      -3.023  -0.620  24.107  0.00  0.00    -0.253 OA
ATOM      7  N   UNL     1      -4.103   0.655  25.725  0.00  0.00    -0.268 N 
ATOM      8  N   UNL     1      -3.887  -1.610  26.018  0.00  0.00    -0.296 N 
ATOM     29  C   UNL     1      -3.616  -0.530  25.181  0.00  0.00    +0.304 C 
ATOM     34  H   UNL     1      -4.757   0.565  26.497  0.00  0.00    +0.156 HD
ATOM     35  H   UNL     1      -4.311  -1.420  26.921  0.00  0.00    +0.151 HD
BRANCH   8  26
ATOM     26  C   UNL     1      -3.495  -2.966  25.702  0.00  0.00    +0.074 C 
ATOM     27  C   UNL     1      -3.786  -3.295  24.234  0.00  0.00    +0.022 C 
ATOM     28  C   UNL     1      -2.020  -3.206  26.043  0.00  0.00    +0.022 C 
ATOM     30  C   UNL     1      -2.836  -2.579  23.273  0.00  0.00    +0.002 C 
ATOM     31  C   UNL     1      -1.072  -2.490  25.080  0.00  0.00    +0.002 C 
ATOM     32  C   UNL     1      -1.375  -2.843  23.627  0.00  0.00    +0.000 C 
ENDBRANCH   8  26
ENDBRANCH  21   7
TORSDOF 3
ENDMDL
