MODEL 1
REMARK VINA RESULT:      -0.6      0.000      0.000
REMARK  Name = 7675150
REMARK  4 active torsions:
REMARK  status: ('A' for Active; 'I' for Inactive)
REMARK    1  A    between atoms: N_5  and  C_14
REMARK    2  A    between atoms: C_14  and  C_16
REMARK    3  A    between atoms: C_14  and  C_17
REMARK    4  A    between atoms: C_15  and  C_18
REMARK                            x       y       z     vdW  Elec       q    Type
REMARK                         _______ _______ _______ _____ _____    ______ ____
ROOT
ATOM      1  O   UNL     1      -1.124  -0.910  23.744  0.00  0.00    -0.273 OA
ATOM      2  O   UNL     1       2.364   2.100  23.570  0.00  0.00    -0.252 OA
ATOM      3  O   UNL     1      -3.504   5.028  25.677  0.00  0.00    -0.270 OA
ATOM      4  N   UNL     1       0.245   2.168  24.565  0.00  0.00    -0.271 N 
ATOM      5  N   UNL     1       0.853   0.314  23.500  0.00  0.00    -0.217 N 
ATOM      6  N   UNL     1      -2.277   3.334  24.687  0.00  0.00    -0.294 N 
ATOM      8  C   UNL     1      -0.905   1.303  24.713  0.00  0.00    +0.181 C 
ATOM      9  C   UNL     1      -2.142   1.972  24.133  0.00  0.00    +0.140 C 
ATOM     10  C   UNL     1       0.160   3.540  25.035  0.00  0.00    +0.129 C 
ATOM     11  C   UNL     1      -1.103   4.197  24.477  0.00  0.00    +0.127 C 
ATOM     12  C   UNL     1      -0.439   0.087  23.932  0.00  0.00    +0.246 C 
ATOM     13  C   UNL     1       1.289   1.582  23.850  0.00  0.00    +0.312 C 
ATOM     15  C   UNL     1      -3.429   3.857  25.299  0.00  0.00    +0.248 C 
ENDROOT
BRANCH  15  18
ATOM      7  N   UNL     1      -6.497   2.316  26.770  0.00  0.00    -0.263 NA
ATOM     18  C   UNL     1      -4.558   2.952  25.484  0.00  0.00    +0.055 A 
ATOM     23  C   UNL     1      -4.779   1.902  24.604  0.00  0.00    +0.016 A 
ATOM     24  C   UNL     1      -5.433   3.119  26.541  0.00  0.00    +0.123 A 
ATOM     26  C   UNL     1      -5.864   1.056  24.807  0.00  0.00    +0.020 A 
ATOM     27  C   UNL     1      -6.685   1.304  25.894  0.00  0.00    +0.111 A 
ENDBRANCH  15  18
BRANCH   5  14
ATOM     14  C   UNL     1       1.625  -0.638  22.726  0.00  0.00    +0.113 C 
ATOM     17  C   UNL     1       1.327  -0.487  21.236  0.00  0.00    +0.034 C 
BRANCH  14  16
ATOM     16  C   UNL     1       3.102  -0.527  23.035  0.00  0.00    -0.027 A 
ATOM     19  C   UNL     1       3.699  -1.484  23.838  0.00  0.00    +0.005 A 
ATOM     20  C   UNL     1       3.826   0.530  22.509  0.00  0.00    +0.005 A 
ATOM     21  C   UNL     1       5.060  -1.381  24.123  0.00  0.00    +0.000 A 
ATOM     22  C   UNL     1       5.187   0.632  22.794  0.00  0.00    +0.000 A 
ATOM     25  C   UNL     1       5.805  -0.323  23.601  0.00  0.00    +0.000 A 
ENDBRANCH  14  16
ENDBRANCH   5  14
TORSDOF 3
ENDMDL
MODEL 2
REMARK VINA RESULT:       1.8      1.859      8.295
REMARK  Name = 7675150
REMARK  4 active torsions:
REMARK  status: ('A' for Active; 'I' for Inactive)
REMARK    1  A    between atoms: N_5  and  C_14
REMARK    2  A    between atoms: C_14  and  C_16
REMARK    3  A    between atoms: C_14  and  C_17
REMARK    4  A    between atoms: C_15  and  C_18
REMARK                            x       y       z     vdW  Elec       q    Type
REMARK                         _______ _______ _______ _____ _____    ______ ____
ROOT
ATOM      1  O   UNL     1       0.535   2.861  26.220  0.00  0.00    -0.273 OA
ATOM      2  O   UNL     1      -3.305   1.968  23.831  0.00  0.00    -0.252 OA
ATOM      3  O   UNL     1       2.195  -1.257  21.226  0.00  0.00    -0.270 OA
ATOM      4  N   UNL     1      -1.191   0.965  23.885  0.00  0.00    -0.271 N 
ATOM      5  N   UNL     1      -1.585   2.673  25.252  0.00  0.00    -0.217 N 
ATOM      6  N   UNL     1       1.167   0.337  22.551  0.00  0.00    -0.294 N 
ATOM      8  C   UNL     1       0.062   1.127  24.591  0.00  0.00    +0.181 C 
ATOM      9  C   UNL     1       1.192   1.374  23.603  0.00  0.00    +0.140 C 
ATOM     10  C   UNL     1      -1.268   0.004  22.798  0.00  0.00    +0.129 C 
ATOM     11  C   UNL     1      -0.109   0.234  21.826  0.00  0.00    +0.127 C 
ATOM     12  C   UNL     1      -0.265   2.325  25.464  0.00  0.00    +0.246 C 
ATOM     13  C   UNL     1      -2.169   1.878  24.279  0.00  0.00    +0.312 C 
ATOM     15  C   UNL     1       2.258  -0.459  22.162  0.00  0.00    +0.248 C 
ENDROOT
BRANCH  15  18
ATOM      7  N   UNL     1       5.128  -1.297  24.401  0.00  0.00    -0.263 NA
ATOM     18  C   UNL     1       3.496  -0.315  22.922  0.00  0.00    +0.055 A 
ATOM     23  C   UNL     1       4.205   0.877  22.905  0.00  0.00    +0.016 A 
ATOM     24  C   UNL     1       3.990  -1.364  23.675  0.00  0.00    +0.123 A 
ATOM     26  C   UNL     1       5.381   0.983  23.640  0.00  0.00    +0.020 A 
ATOM     27  C   UNL     1       5.796  -0.123  24.364  0.00  0.00    +0.111 A 
ENDBRANCH  15  18
BRANCH   5  14
ATOM     14  C   UNL     1      -2.249   3.773  25.923  0.00  0.00    +0.113 C 
ATOM     17  C   UNL     1      -1.762   5.112  25.373  0.00  0.00    +0.034 C 
BRANCH  14  16
ATOM     16  C   UNL     1      -3.754   3.630  25.854  0.00  0.00    -0.027 A 
ATOM     19  C   UNL     1      -4.338   2.435  26.236  0.00  0.00    +0.005 A 
ATOM     20  C   UNL     1      -4.514   4.698  25.411  0.00  0.00    +0.005 A 
ATOM     21  C   UNL     1      -5.724   2.304  26.172  0.00  0.00    +0.000 A 
ATOM     22  C   UNL     1      -5.900   4.567  25.346  0.00  0.00    +0.000 A 
ATOM     25  C   UNL     1      -6.507   3.370  25.727  0.00  0.00    +0.000 A 
ENDBRANCH  14  16
ENDBRANCH   5  14
TORSDOF 3
ENDMDL
MODEL 3
REMARK VINA RESULT:       1.8      1.849      8.339
REMARK  Name = 7675150
REMARK  4 active torsions:
REMARK  status: ('A' for Active; 'I' for Inactive)
REMARK    1  A    between atoms: N_5  and  C_14
REMARK    2  A    between atoms: C_14  and  C_16
REMARK    3  A    between atoms: C_14  and  C_17
REMARK    4  A    between atoms: C_15  and  C_18
REMARK                            x       y       z     vdW  Elec       q    Type
REMARK                         _______ _______ _______ _____ _____    ______ ____
ROOT
ATOM      1  O   UNL     1       0.515   2.909  26.217  0.00  0.00    -0.273 OA
ATOM      2  O   UNL     1      -3.327   1.895  23.881  0.00  0.00    -0.252 OA
ATOM      3  O   UNL     1       2.215  -1.264  21.282  0.00  0.00    -0.270 OA
ATOM      4  N   UNL     1      -1.192   0.936  23.933  0.00  0.00    -0.271 N 
ATOM      5  N   UNL     1      -1.609   2.660  25.273  0.00  0.00    -0.217 N 
ATOM      6  N   UNL     1       1.166   0.333  22.588  0.00  0.00    -0.294 N 
ATOM      8  C   UNL     1       0.063   1.137  24.624  0.00  0.00    +0.181 C 
ATOM      9  C   UNL     1       1.179   1.388  23.622  0.00  0.00    +0.140 C 
ATOM     10  C   UNL     1      -1.259  -0.046  22.864  0.00  0.00    +0.129 C 
ATOM     11  C   UNL     1      -0.114   0.190  21.878  0.00  0.00    +0.127 C 
ATOM     12  C   UNL     1      -0.281   2.344  25.478  0.00  0.00    +0.246 C 
ATOM     13  C   UNL     1      -2.185   1.836  24.319  0.00  0.00    +0.312 C 
ATOM     15  C   UNL     1       2.270  -0.448  22.204  0.00  0.00    +0.248 C 
ENDROOT
BRANCH  15  18
ATOM      7  N   UNL     1       5.310   1.193  23.623  0.00  0.00    -0.263 NA
ATOM     18  C   UNL     1       3.511  -0.265  22.949  0.00  0.00    +0.055 A 
ATOM     23  C   UNL     1       4.070  -1.312  23.668  0.00  0.00    +0.016 A 
ATOM     24  C   UNL     1       4.159   0.956  22.955  0.00  0.00    +0.123 A 
ATOM     26  C   UNL     1       5.254  -1.106  24.368  0.00  0.00    +0.020 A 
ATOM     27  C   UNL     1       5.828   0.153  24.314  0.00  0.00    +0.111 A 
ENDBRANCH  15  18
BRANCH   5  14
ATOM     14  C   UNL     1      -2.289   3.758  25.930  0.00  0.00    +0.113 C 
ATOM     17  C   UNL     1      -1.816   5.098  25.370  0.00  0.00    +0.034 C 
BRANCH  14  16
ATOM     16  C   UNL     1      -3.792   3.597  25.855  0.00  0.00    -0.027 A 
ATOM     19  C   UNL     1      -4.565   4.660  25.423  0.00  0.00    +0.005 A 
ATOM     20  C   UNL     1      -4.361   2.389  26.221  0.00  0.00    +0.005 A 
ATOM     21  C   UNL     1      -5.950   4.512  25.355  0.00  0.00    +0.000 A 
ATOM     22  C   UNL     1      -5.746   2.241  26.152  0.00  0.00    +0.000 A 
ATOM     25  C   UNL     1      -6.541   3.301  25.719  0.00  0.00    +0.000 A 
ENDBRANCH  14  16
ENDBRANCH   5  14
TORSDOF 3
ENDMDL
