MODEL 1
REMARK VINA RESULT:      -5.4      0.000      0.000
REMARK  Name = 75536598
REMARK  7 active torsions:
REMARK  status: ('A' for Active; 'I' for Inactive)
REMARK    1  A    between atoms: O_3  and  C_8
REMARK    2  A    between atoms: N_5  and  C_7
REMARK    3  A    between atoms: N_5  and  C_12
REMARK    4  A    between atoms: N_6  and  C_11
REMARK    5  A    between atoms: C_9  and  C_11
REMARK    6  A    between atoms: C_12  and  C_13
REMARK    7  A    between atoms: C_14  and  C_17
REMARK                            x       y       z     vdW  Elec       q    Type
REMARK                         _______ _______ _______ _____ _____    ______ ____
ROOT
ATOM      2  O   UNL     1      -3.134   4.366  23.795  0.00  0.00    -0.371 OA
ATOM      7  C   UNL     1      -4.573   3.303  25.358  0.00  0.00    +0.111 C 
ATOM      8  C   UNL     1      -3.211   3.505  25.997  0.00  0.00    +0.164 C 
ATOM      9  C   UNL     1      -2.638   4.612  25.122  0.00  0.00    +0.165 C 
ATOM     10  C   UNL     1      -4.237   3.447  23.883  0.00  0.00    +0.181 C 
ENDROOT
BRANCH   8   3
ATOM      3  O   UNL     1      -3.298   3.896  27.353  0.00  0.00    -0.388 OA
ATOM     25  H   UNL     1      -4.235   3.890  27.614  0.00  0.00    +0.210 HD
ENDBRANCH   8   3
BRANCH   7   5
ATOM      5  N   UNL     1      -5.183   2.022  25.677  0.00  0.00    -0.305 NA
ATOM     24  H   UNL     1      -6.140   2.180  25.994  0.00  0.00    +0.123 HD
BRANCH   5  12
ATOM     12  C   UNL     1      -5.210   1.149  24.509  0.00  0.00    +0.116 C 
BRANCH  12  13
ATOM     13  C   UNL     1      -4.458  -0.132  24.751  0.00  0.00    -0.034 A 
ATOM     15  C   UNL     1      -4.508  -1.160  23.809  0.00  0.00    +0.005 A 
ATOM     16  C   UNL     1      -3.710  -0.292  25.917  0.00  0.00    +0.005 A 
ATOM     18  C   UNL     1      -3.812  -2.348  24.033  0.00  0.00    +0.000 A 
ATOM     19  C   UNL     1      -3.013  -1.480  26.142  0.00  0.00    +0.000 A 
ATOM     20  C   UNL     1      -3.064  -2.507  25.200  0.00  0.00    +0.000 A 
ENDBRANCH  12  13
ENDBRANCH   5  12
ENDBRANCH   7   5
BRANCH   9  11
ATOM     11  C   UNL     1      -1.120   4.638  25.106  0.00  0.00    +0.138 C 
BRANCH  11   6
ATOM      4  O   UNL     1       0.440   2.499  26.218  0.00  0.00    -0.270 OA
ATOM      6  N   UNL     1      -0.586   3.511  24.398  0.00  0.00    -0.308 N 
ATOM     14  C   UNL     1       0.163   2.516  25.021  0.00  0.00    +0.251 C 
ATOM     26  H   UNL     1      -0.763   3.466  23.401  0.00  0.00    +0.149 HD
BRANCH  14  17
ATOM      1  S   UNL     1      -0.312   0.050  23.878  0.00  0.00    -0.092 S 
ATOM     17  C   UNL     1       0.668   1.429  24.144  0.00  0.00    +0.074 A 
ATOM     21  C   UNL     1       1.868   1.348  23.471  0.00  0.00    +0.021 A 
ATOM     22  C   UNL     1       1.984   0.138  22.728  0.00  0.00    +0.008 A 
ATOM     23  C   UNL     1       0.868  -0.660  22.860  0.00  0.00    +0.046 A 
ENDBRANCH  14  17
ENDBRANCH  11   6
ENDBRANCH   9  11
TORSDOF 7
ENDMDL
MODEL 2
REMARK VINA RESULT:      -5.3      2.518      3.193
REMARK  Name = 75536598
REMARK  7 active torsions:
REMARK  status: ('A' for Active; 'I' for Inactive)
REMARK    1  A    between atoms: O_3  and  C_8
REMARK    2  A    between atoms: N_5  and  C_7
REMARK    3  A    between atoms: N_5  and  C_12
REMARK    4  A    between atoms: N_6  and  C_11
REMARK    5  A    between atoms: C_9  and  C_11
REMARK    6  A    between atoms: C_12  and  C_13
REMARK    7  A    between atoms: C_14  and  C_17
REMARK                            x       y       z     vdW  Elec       q    Type
REMARK                         _______ _______ _______ _____ _____    ______ ____
ROOT
ATOM      2  O   UNL     1      -1.836   1.925  22.567  0.00  0.00    -0.371 OA
ATOM      7  C   UNL     1      -2.644   2.375  24.755  0.00  0.00    +0.111 C 
ATOM      8  C   UNL     1      -1.604   1.272  24.828  0.00  0.00    +0.164 C 
ATOM      9  C   UNL     1      -0.854   1.489  23.522  0.00  0.00    +0.165 C 
ATOM     10  C   UNL     1      -3.013   2.343  23.281  0.00  0.00    +0.181 C 
ENDROOT
BRANCH   8   3
ATOM      3  O   UNL     1      -0.755   1.397  25.952  0.00  0.00    -0.388 OA
ATOM     25  H   UNL     1      -0.265   2.233  25.873  0.00  0.00    +0.210 HD
ENDBRANCH   8   3
BRANCH   7   5
ATOM      5  N   UNL     1      -3.786   2.160  25.629  0.00  0.00    -0.305 NA
ATOM     24  H   UNL     1      -4.226   3.059  25.828  0.00  0.00    +0.123 HD
BRANCH   5  12
ATOM     12  C   UNL     1      -4.769   1.283  25.002  0.00  0.00    +0.116 C 
BRANCH  12  13
ATOM     13  C   UNL     1      -4.294  -0.145  24.955  0.00  0.00    -0.034 A 
ATOM     15  C   UNL     1      -4.489  -0.907  23.803  0.00  0.00    +0.005 A 
ATOM     16  C   UNL     1      -3.661  -0.707  26.063  0.00  0.00    +0.005 A 
ATOM     18  C   UNL     1      -4.051  -2.231  23.759  0.00  0.00    +0.000 A 
ATOM     19  C   UNL     1      -3.222  -2.030  26.020  0.00  0.00    +0.000 A 
ATOM     20  C   UNL     1      -3.417  -2.792  24.868  0.00  0.00    +0.000 A 
ENDBRANCH  12  13
ENDBRANCH   5  12
ENDBRANCH   7   5
BRANCH   9  11
ATOM     11  C   UNL     1      -0.163   0.237  23.012  0.00  0.00    +0.138 C 
BRANCH  11   6
ATOM      4  O   UNL     1       2.076  -0.253  21.282  0.00  0.00    -0.270 OA
ATOM      6  N   UNL     1       1.221   0.213  23.388  0.00  0.00    -0.308 N 
ATOM     14  C   UNL     1       2.245  -0.034  22.479  0.00  0.00    +0.251 C 
ATOM     26  H   UNL     1       1.434   0.372  24.367  0.00  0.00    +0.149 HD
BRANCH  14  17
ATOM      1  S   UNL     1       4.187  -1.464  23.820  0.00  0.00    -0.092 S 
ATOM     17  C   UNL     1       3.623  -0.052  23.033  0.00  0.00    +0.074 A 
ATOM     21  C   UNL     1       4.575   0.945  23.015  0.00  0.00    +0.021 A 
ATOM     22  C   UNL     1       5.783   0.543  23.654  0.00  0.00    +0.008 A 
ATOM     23  C   UNL     1       5.709  -0.746  24.138  0.00  0.00    +0.046 A 
ENDBRANCH  14  17
ENDBRANCH  11   6
ENDBRANCH   9  11
TORSDOF 7
ENDMDL
MODEL 3
REMARK VINA RESULT:      -4.7      2.605      6.232
REMARK  Name = 75536598
REMARK  7 active torsions:
REMARK  status: ('A' for Active; 'I' for Inactive)
REMARK    1  A    between atoms: O_3  and  C_8
REMARK    2  A    between atoms: N_5  and  C_7
REMARK    3  A    between atoms: N_5  and  C_12
REMARK    4  A    between atoms: N_6  and  C_11
REMARK    5  A    between atoms: C_9  and  C_11
REMARK    6  A    between atoms: C_12  and  C_13
REMARK    7  A    between atoms: C_14  and  C_17
REMARK                            x       y       z     vdW  Elec       q    Type
REMARK                         _______ _______ _______ _____ _____    ______ ____
ROOT
ATOM      2  O   UNL     1      -1.742  -2.406  23.897  0.00  0.00    -0.371 OA
ATOM      7  C   UNL     1      -0.063  -0.952  24.740  0.00  0.00    +0.111 C 
ATOM      8  C   UNL     1      -1.308  -0.823  25.600  0.00  0.00    +0.164 C 
ATOM      9  C   UNL     1      -2.022  -2.128  25.280  0.00  0.00    +0.165 C 
ATOM     10  C   UNL     1      -0.632  -1.592  23.483  0.00  0.00    +0.181 C 
ENDROOT
BRANCH   8   3
ATOM      3  O   UNL     1      -1.009  -0.708  26.977  0.00  0.00    -0.388 OA
ATOM     25  H   UNL     1      -0.079  -0.439  27.067  0.00  0.00    +0.210 HD
ENDBRANCH   8   3
BRANCH   7   5
ATOM      5  N   UNL     1       0.600   0.315  24.479  0.00  0.00    -0.305 NA
ATOM     24  H   UNL     1       1.496   0.133  24.026  0.00  0.00    +0.123 HD
BRANCH   5  12
ATOM     12  C   UNL     1      -0.207   1.161  23.608  0.00  0.00    +0.116 C 
BRANCH  12  13
ATOM     13  C   UNL     1      -0.621   2.436  24.292  0.00  0.00    -0.034 A 
ATOM     15  C   UNL     1      -1.272   2.386  25.525  0.00  0.00    +0.005 A 
ATOM     16  C   UNL     1      -0.356   3.667  23.694  0.00  0.00    +0.005 A 
ATOM     18  C   UNL     1      -1.657   3.568  26.159  0.00  0.00    +0.000 A 
ATOM     19  C   UNL     1      -0.741   4.849  24.328  0.00  0.00    +0.000 A 
ATOM     20  C   UNL     1      -1.391   4.799  25.560  0.00  0.00    +0.000 A 
ENDBRANCH  12  13
ENDBRANCH   5  12
ENDBRANCH   7   5
BRANCH   9  11
ATOM     11  C   UNL     1      -3.523  -2.059  25.495  0.00  0.00    +0.138 C 
BRANCH  11   6
ATOM      4  O   UNL     1      -4.023  -0.280  23.298  0.00  0.00    -0.270 OA
ATOM      6  N   UNL     1      -3.977  -0.701  25.580  0.00  0.00    -0.308 N 
ATOM     14  C   UNL     1      -4.194   0.092  24.456  0.00  0.00    +0.251 C 
ATOM     26  H   UNL     1      -4.125  -0.321  26.508  0.00  0.00    +0.149 HD
BRANCH  14  17
ATOM      1  S   UNL     1      -5.768   1.783  25.965  0.00  0.00    -0.092 S 
ATOM     17  C   UNL     1      -4.638   1.486  24.714  0.00  0.00    +0.074 A 
ATOM     21  C   UNL     1      -4.265   2.645  24.069  0.00  0.00    +0.021 A 
ATOM     22  C   UNL     1      -4.914   3.792  24.611  0.00  0.00    +0.008 A 
ATOM     23  C   UNL     1      -5.761   3.466  25.648  0.00  0.00    +0.046 A 
ENDBRANCH  14  17
ENDBRANCH  11   6
ENDBRANCH   9  11
TORSDOF 7
ENDMDL
MODEL 4
REMARK VINA RESULT:      -4.7      2.731      6.981
REMARK  Name = 75536598
REMARK  7 active torsions:
REMARK  status: ('A' for Active; 'I' for Inactive)
REMARK    1  A    between atoms: O_3  and  C_8
REMARK    2  A    between atoms: N_5  and  C_7
REMARK    3  A    between atoms: N_5  and  C_12
REMARK    4  A    between atoms: N_6  and  C_11
REMARK    5  A    between atoms: C_9  and  C_11
REMARK    6  A    between atoms: C_12  and  C_13
REMARK    7  A    between atoms: C_14  and  C_17
REMARK                            x       y       z     vdW  Elec       q    Type
REMARK                         _______ _______ _______ _____ _____    ______ ____
ROOT
ATOM      2  O   UNL     1      -1.706  -2.650  23.904  0.00  0.00    -0.371 OA
ATOM      7  C   UNL     1      -0.044  -1.027  24.399  0.00  0.00    +0.111 C 
ATOM      8  C   UNL     1      -1.256  -0.779  25.279  0.00  0.00    +0.164 C 
ATOM      9  C   UNL     1      -1.938  -2.139  25.228  0.00  0.00    +0.165 C 
ATOM     10  C   UNL     1      -0.641  -1.893  23.302  0.00  0.00    +0.181 C 
ENDROOT
BRANCH   8   3
ATOM      3  O   UNL     1      -0.905  -0.414  26.600  0.00  0.00    -0.388 OA
ATOM     25  H   UNL     1       0.054  -0.255  26.628  0.00  0.00    +0.210 HD
ENDBRANCH   8   3
BRANCH   7   5
ATOM      5  N   UNL     1       0.565   0.191  23.889  0.00  0.00    -0.305 NA
ATOM     24  H   UNL     1       1.156   0.596  24.616  0.00  0.00    +0.123 HD
BRANCH   5  12
ATOM     12  C   UNL     1       1.385  -0.084  22.714  0.00  0.00    +0.116 C 
BRANCH  12  13
ATOM     13  C   UNL     1       2.850  -0.135  23.054  0.00  0.00    -0.034 A 
ATOM     15  C   UNL     1       3.655   0.986  22.846  0.00  0.00    +0.005 A 
ATOM     16  C   UNL     1       3.406  -1.303  23.575  0.00  0.00    +0.005 A 
ATOM     18  C   UNL     1       5.013   0.939  23.159  0.00  0.00    +0.000 A 
ATOM     19  C   UNL     1       4.764  -1.351  23.889  0.00  0.00    +0.000 A 
ATOM     20  C   UNL     1       5.567  -0.230  23.681  0.00  0.00    +0.000 A 
ENDBRANCH  12  13
ENDBRANCH   5  12
ENDBRANCH   7   5
BRANCH   9  11
ATOM     11  C   UNL     1      -3.431  -2.071  25.496  0.00  0.00    +0.138 C 
BRANCH  11   6
ATOM      4  O   UNL     1      -3.992  -0.181  23.409  0.00  0.00    -0.270 OA
ATOM      6  N   UNL     1      -3.871  -0.716  25.664  0.00  0.00    -0.308 N 
ATOM     14  C   UNL     1      -4.120   0.133  24.589  0.00  0.00    +0.251 C 
ATOM     26  H   UNL     1      -3.984  -0.383  26.614  0.00  0.00    +0.149 HD
BRANCH  14  17
ATOM      1  S   UNL     1      -3.470   2.815  24.630  0.00  0.00    -0.092 S 
ATOM     17  C   UNL     1      -4.544   1.515  24.931  0.00  0.00    +0.074 A 
ATOM     21  C   UNL     1      -5.731   1.943  25.484  0.00  0.00    +0.021 A 
ATOM     22  C   UNL     1      -5.760   3.357  25.661  0.00  0.00    +0.008 A 
ATOM     23  C   UNL     1      -4.593   3.956  25.239  0.00  0.00    +0.046 A 
ENDBRANCH  14  17
ENDBRANCH  11   6
ENDBRANCH   9  11
TORSDOF 7
ENDMDL
MODEL 5
REMARK VINA RESULT:      -4.5      1.991      4.263
REMARK  Name = 75536598
REMARK  7 active torsions:
REMARK  status: ('A' for Active; 'I' for Inactive)
REMARK    1  A    between atoms: O_3  and  C_8
REMARK    2  A    between atoms: N_5  and  C_7
REMARK    3  A    between atoms: N_5  and  C_12
REMARK    4  A    between atoms: N_6  and  C_11
REMARK    5  A    between atoms: C_9  and  C_11
REMARK    6  A    between atoms: C_12  and  C_13
REMARK    7  A    between atoms: C_14  and  C_17
REMARK                            x       y       z     vdW  Elec       q    Type
REMARK                         _______ _______ _______ _____ _____    ______ ____
ROOT
ATOM      2  O   UNL     1       0.154   3.478  23.635  0.00  0.00    -0.371 OA
ATOM      7  C   UNL     1      -0.855   3.912  25.741  0.00  0.00    +0.111 C 
ATOM      8  C   UNL     1      -0.529   2.432  25.643  0.00  0.00    +0.164 C 
ATOM      9  C   UNL     1       0.533   2.438  24.552  0.00  0.00    +0.165 C 
ATOM     10  C   UNL     1      -0.813   4.326  24.279  0.00  0.00    +0.181 C 
ENDROOT
BRANCH   8   3
ATOM      3  O   UNL     1      -0.035   1.902  26.857  0.00  0.00    -0.388 OA
ATOM     25  H   UNL     1       0.806   1.449  26.674  0.00  0.00    +0.210 HD
ENDBRANCH   8   3
BRANCH   7   5
ATOM      5  N   UNL     1      -2.137   4.186  26.370  0.00  0.00    -0.305 NA
ATOM     24  H   UNL     1      -2.025   4.954  27.032  0.00  0.00    +0.123 HD
BRANCH   5  12
ATOM     12  C   UNL     1      -3.139   4.561  25.378  0.00  0.00    +0.116 C 
BRANCH  12  13
ATOM     13  C   UNL     1      -4.203   3.507  25.232  0.00  0.00    -0.034 A 
ATOM     15  C   UNL     1      -4.268   2.736  24.071  0.00  0.00    +0.005 A 
ATOM     16  C   UNL     1      -5.128   3.303  26.256  0.00  0.00    +0.005 A 
ATOM     18  C   UNL     1      -5.255   1.760  23.935  0.00  0.00    +0.000 A 
ATOM     19  C   UNL     1      -6.116   2.327  26.120  0.00  0.00    +0.000 A 
ATOM     20  C   UNL     1      -6.179   1.556  24.960  0.00  0.00    +0.000 A 
ENDBRANCH  12  13
ENDBRANCH   5  12
ENDBRANCH   7   5
BRANCH   9  11
ATOM     11  C   UNL     1       0.640   1.116  23.813  0.00  0.00    +0.138 C 
BRANCH  11   6
ATOM      4  O   UNL     1       0.093  -1.432  25.018  0.00  0.00    -0.270 OA
ATOM      6  N   UNL     1      -0.613   0.418  23.807  0.00  0.00    -0.308 N 
ATOM     14  C   UNL     1      -0.788  -0.820  24.420  0.00  0.00    +0.251 C 
ATOM     26  H   UNL     1      -1.384   0.858  23.318  0.00  0.00    +0.149 HD
BRANCH  14  17
ATOM      1  S   UNL     1      -2.329  -3.103  24.584  0.00  0.00    -0.092 S 
ATOM     17  C   UNL     1      -2.140  -1.425  24.302  0.00  0.00    +0.074 A 
ATOM     21  C   UNL     1      -3.334  -0.817  23.982  0.00  0.00    +0.021 A 
ATOM     22  C   UNL     1      -4.419  -1.740  23.969  0.00  0.00    +0.008 A 
ATOM     23  C   UNL     1      -4.012  -3.020  24.280  0.00  0.00    +0.046 A 
ENDBRANCH  14  17
ENDBRANCH  11   6
ENDBRANCH   9  11
TORSDOF 7
ENDMDL
MODEL 6
REMARK VINA RESULT:      -4.5      1.610      4.641
REMARK  Name = 75536598
REMARK  7 active torsions:
REMARK  status: ('A' for Active; 'I' for Inactive)
REMARK    1  A    between atoms: O_3  and  C_8
REMARK    2  A    between atoms: N_5  and  C_7
REMARK    3  A    between atoms: N_5  and  C_12
REMARK    4  A    between atoms: N_6  and  C_11
REMARK    5  A    between atoms: C_9  and  C_11
REMARK    6  A    between atoms: C_12  and  C_13
REMARK    7  A    between atoms: C_14  and  C_17
REMARK                            x       y       z     vdW  Elec       q    Type
REMARK                         _______ _______ _______ _____ _____    ______ ____
ROOT
ATOM      2  O   UNL     1      -4.263   3.625  26.784  0.00  0.00    -0.371 OA
ATOM      7  C   UNL     1      -2.473   4.355  25.404  0.00  0.00    +0.111 C 
ATOM      8  C   UNL     1      -3.523   3.683  24.538  0.00  0.00    +0.164 C 
ATOM      9  C   UNL     1      -4.747   3.775  25.438  0.00  0.00    +0.165 C 
ATOM     10  C   UNL     1      -2.839   3.830  26.783  0.00  0.00    +0.181 C 
ENDROOT
BRANCH   8   3
ATOM      3  O   UNL     1      -3.722   4.350  23.307  0.00  0.00    -0.388 OA
ATOM     25  H   UNL     1      -2.859   4.448  22.869  0.00  0.00    +0.210 HD
ENDBRANCH   8   3
BRANCH   7   5
ATOM      5  N   UNL     1      -1.107   4.032  25.021  0.00  0.00    -0.305 NA
ATOM     24  H   UNL     1      -0.528   4.865  25.127  0.00  0.00    +0.123 HD
BRANCH   5  12
ATOM     12  C   UNL     1      -0.564   2.969  25.860  0.00  0.00    +0.116 C 
BRANCH  12  13
ATOM     13  C   UNL     1      -0.216   1.746  25.056  0.00  0.00    -0.034 A 
ATOM     15  C   UNL     1      -0.724   0.500  25.424  0.00  0.00    +0.005 A 
ATOM     16  C   UNL     1       0.618   1.856  23.943  0.00  0.00    +0.005 A 
ATOM     18  C   UNL     1      -0.401  -0.635  24.680  0.00  0.00    +0.000 A 
ATOM     19  C   UNL     1       0.942   0.722  23.198  0.00  0.00    +0.000 A 
ATOM     20  C   UNL     1       0.433  -0.523  23.567  0.00  0.00    +0.000 A 
ENDBRANCH  12  13
ENDBRANCH   5  12
ENDBRANCH   7   5
BRANCH   9  11
ATOM     11  C   UNL     1      -5.788   2.709  25.146  0.00  0.00    +0.138 C 
BRANCH  11   6
ATOM      4  O   UNL     1      -4.028   1.232  23.424  0.00  0.00    -0.270 OA
ATOM      6  N   UNL     1      -5.267   1.392  25.379  0.00  0.00    -0.308 N 
ATOM     14  C   UNL     1      -4.416   0.750  24.485  0.00  0.00    +0.251 C 
ATOM     26  H   UNL     1      -5.558   0.926  26.231  0.00  0.00    +0.149 HD
BRANCH  14  17
ATOM      1  S   UNL     1      -4.072  -1.871  23.691  0.00  0.00    -0.092 S 
ATOM     17  C   UNL     1      -3.986  -0.622  24.860  0.00  0.00    +0.074 A 
ATOM     21  C   UNL     1      -3.503  -1.077  26.067  0.00  0.00    +0.021 A 
ATOM     22  C   UNL     1      -3.198  -2.468  26.031  0.00  0.00    +0.008 A 
ATOM     23  C   UNL     1      -3.460  -3.025  24.798  0.00  0.00    +0.046 A 
ENDBRANCH  14  17
ENDBRANCH  11   6
ENDBRANCH   9  11
TORSDOF 7
ENDMDL
MODEL 7
REMARK VINA RESULT:      -4.4      2.060      4.749
REMARK  Name = 75536598
REMARK  7 active torsions:
REMARK  status: ('A' for Active; 'I' for Inactive)
REMARK    1  A    between atoms: O_3  and  C_8
REMARK    2  A    between atoms: N_5  and  C_7
REMARK    3  A    between atoms: N_5  and  C_12
REMARK    4  A    between atoms: N_6  and  C_11
REMARK    5  A    between atoms: C_9  and  C_11
REMARK    6  A    between atoms: C_12  and  C_13
REMARK    7  A    between atoms: C_14  and  C_17
REMARK                            x       y       z     vdW  Elec       q    Type
REMARK                         _______ _______ _______ _____ _____    ______ ____
ROOT
ATOM      2  O   UNL     1       0.087   3.771  25.988  0.00  0.00    -0.371 OA
ATOM      7  C   UNL     1       0.333   1.729  24.799  0.00  0.00    +0.111 C 
ATOM      8  C   UNL     1      -0.761   2.553  24.146  0.00  0.00    +0.164 C 
ATOM      9  C   UNL     1      -0.422   3.947  24.655  0.00  0.00    +0.165 C 
ATOM     10  C   UNL     1       0.428   2.385  26.167  0.00  0.00    +0.181 C 
ENDROOT
BRANCH   8   3
ATOM      3  O   UNL     1      -0.727   2.484  22.734  0.00  0.00    -0.388 OA
ATOM     25  H   UNL     1      -0.436   3.346  22.392  0.00  0.00    +0.210 HD
ENDBRANCH   8   3
BRANCH   7   5
ATOM      5  N   UNL     1       0.029   0.309  24.873  0.00  0.00    -0.305 NA
ATOM     24  H   UNL     1       0.845  -0.187  25.232  0.00  0.00    +0.123 HD
BRANCH   5  12
ATOM     12  C   UNL     1      -1.103   0.059  25.758  0.00  0.00    +0.116 C 
BRANCH  12  13
ATOM     13  C   UNL     1      -2.114  -0.860  25.128  0.00  0.00    -0.034 A 
ATOM     15  C   UNL     1      -3.400  -0.398  24.850  0.00  0.00    +0.005 A 
ATOM     16  C   UNL     1      -1.766  -2.176  24.825  0.00  0.00    +0.005 A 
ATOM     18  C   UNL     1      -4.338  -1.251  24.267  0.00  0.00    +0.000 A 
ATOM     19  C   UNL     1      -2.703  -3.030  24.241  0.00  0.00    +0.000 A 
ATOM     20  C   UNL     1      -3.988  -2.567  23.963  0.00  0.00    +0.000 A 
ENDBRANCH  12  13
ENDBRANCH   5  12
ENDBRANCH   7   5
BRANCH   9  11
ATOM     11  C   UNL     1      -1.616   4.884  24.681  0.00  0.00    +0.138 C 
BRANCH  11   6
ATOM      4  O   UNL     1      -3.053   3.974  26.995  0.00  0.00    -0.270 OA
ATOM      6  N   UNL     1      -2.852   4.155  24.690  0.00  0.00    -0.308 N 
ATOM     14  C   UNL     1      -3.480   3.752  25.865  0.00  0.00    +0.251 C 
ATOM     26  H   UNL     1      -3.256   3.923  23.790  0.00  0.00    +0.149 HD
BRANCH  14  17
ATOM      1  S   UNL     1      -5.168   2.400  24.151  0.00  0.00    -0.092 S 
ATOM     17  C   UNL     1      -4.740   2.981  25.704  0.00  0.00    +0.074 A 
ATOM     21  C   UNL     1      -5.674   2.641  26.658  0.00  0.00    +0.021 A 
ATOM     22  C   UNL     1      -6.753   1.892  26.107  0.00  0.00    +0.008 A 
ATOM     23  C   UNL     1      -6.605   1.689  24.752  0.00  0.00    +0.046 A 
ENDBRANCH  14  17
ENDBRANCH  11   6
ENDBRANCH   9  11
TORSDOF 7
ENDMDL
MODEL 8
REMARK VINA RESULT:      -4.0     18.284     20.565
REMARK  Name = 75536598
REMARK  7 active torsions:
REMARK  status: ('A' for Active; 'I' for Inactive)
REMARK    1  A    between atoms: O_3  and  C_8
REMARK    2  A    between atoms: N_5  and  C_7
REMARK    3  A    between atoms: N_5  and  C_12
REMARK    4  A    between atoms: N_6  and  C_11
REMARK    5  A    between atoms: C_9  and  C_11
REMARK    6  A    between atoms: C_12  and  C_13
REMARK    7  A    between atoms: C_14  and  C_17
REMARK                            x       y       z     vdW  Elec       q    Type
REMARK                         _______ _______ _______ _____ _____    ______ ____
ROOT
ATOM      2  O   UNL     1      15.775  -8.900  26.611  0.00  0.00    -0.371 OA
ATOM      7  C   UNL     1      16.847  -6.783  26.515  0.00  0.00    +0.111 C 
ATOM      8  C   UNL     1      16.366  -7.030  27.934  0.00  0.00    +0.164 C 
ATOM      9  C   UNL     1      16.218  -8.545  27.932  0.00  0.00    +0.165 C 
ATOM     10  C   UNL     1      16.010  -7.784  25.735  0.00  0.00    +0.181 C 
ENDROOT
BRANCH   8   3
ATOM      3  O   UNL     1      17.293  -6.591  28.907  0.00  0.00    -0.388 OA
ATOM     25  H   UNL     1      18.126  -6.368  28.458  0.00  0.00    +0.210 HD
ENDBRANCH   8   3
BRANCH   7   5
ATOM      5  N   UNL     1      16.655  -5.413  26.065  0.00  0.00    -0.305 NA
ATOM     24  H   UNL     1      16.978  -4.776  26.793  0.00  0.00    +0.123 HD
BRANCH   5  12
ATOM     12  C   UNL     1      17.405  -5.152  24.842  0.00  0.00    +0.116 C 
BRANCH  12  13
ATOM     13  C   UNL     1      17.291  -3.715  24.410  0.00  0.00    -0.034 A 
ATOM     15  C   UNL     1      17.149  -2.709  25.366  0.00  0.00    +0.005 A 
ATOM     16  C   UNL     1      17.324  -3.389  23.055  0.00  0.00    +0.005 A 
ATOM     18  C   UNL     1      17.041  -1.376  24.966  0.00  0.00    +0.000 A 
ATOM     19  C   UNL     1      17.217  -2.057  22.654  0.00  0.00    +0.000 A 
ATOM     20  C   UNL     1      17.075  -1.051  23.610  0.00  0.00    +0.000 A 
ENDBRANCH  12  13
ENDBRANCH   5  12
ENDBRANCH   7   5
BRANCH   9  11
ATOM     11  C   UNL     1      15.222  -9.052  28.960  0.00  0.00    +0.138 C 
BRANCH  11   6
ATOM      4  O   UNL     1      12.879  -9.150  30.617  0.00  0.00    -0.270 OA
ATOM      6  N   UNL     1      14.672  -7.973  29.730  0.00  0.00    -0.308 N 
ATOM     14  C   UNL     1      13.526  -8.112  30.508  0.00  0.00    +0.251 C 
ATOM     26  H   UNL     1      15.147  -7.080  29.676  0.00  0.00    +0.149 HD
BRANCH  14  17
ATOM      1  S   UNL     1      11.599  -6.943  32.101  0.00  0.00    -0.092 S 
ATOM     17  C   UNL     1      13.069  -6.893  31.224  0.00  0.00    +0.074 A 
ATOM     21  C   UNL     1      13.673  -5.657  31.299  0.00  0.00    +0.021 A 
ATOM     22  C   UNL     1      12.919  -4.740  32.087  0.00  0.00    +0.008 A 
ATOM     23  C   UNL     1      11.767  -5.309  32.585  0.00  0.00    +0.046 A 
ENDBRANCH  14  17
ENDBRANCH  11   6
ENDBRANCH   9  11
TORSDOF 7
ENDMDL
MODEL 9
REMARK VINA RESULT:      -4.0      2.947      4.811
REMARK  Name = 75536598
REMARK  7 active torsions:
REMARK  status: ('A' for Active; 'I' for Inactive)
REMARK    1  A    between atoms: O_3  and  C_8
REMARK    2  A    between atoms: N_5  and  C_7
REMARK    3  A    between atoms: N_5  and  C_12
REMARK    4  A    between atoms: N_6  and  C_11
REMARK    5  A    between atoms: C_9  and  C_11
REMARK    6  A    between atoms: C_12  and  C_13
REMARK    7  A    between atoms: C_14  and  C_17
REMARK                            x       y       z     vdW  Elec       q    Type
REMARK                         _______ _______ _______ _____ _____    ______ ____
ROOT
ATOM      2  O   UNL     1      -0.743  -0.251  25.542  0.00  0.00    -0.371 OA
ATOM      7  C   UNL     1      -2.924  -1.177  25.717  0.00  0.00    +0.111 C 
ATOM      8  C   UNL     1      -2.398  -1.410  24.312  0.00  0.00    +0.164 C 
ATOM      9  C   UNL     1      -0.899  -1.262  24.531  0.00  0.00    +0.165 C 
ATOM     10  C   UNL     1      -2.008  -0.063  26.199  0.00  0.00    +0.181 C 
ENDROOT
BRANCH   8   3
ATOM      3  O   UNL     1      -2.735  -2.688  23.809  0.00  0.00    -0.388 OA
ATOM     25  H   UNL     1      -2.361  -3.359  24.404  0.00  0.00    +0.210 HD
ENDBRANCH   8   3
BRANCH   7   5
ATOM      5  N   UNL     1      -4.331  -0.811  25.761  0.00  0.00    -0.305 NA
ATOM     24  H   UNL     1      -4.488  -0.194  26.558  0.00  0.00    +0.123 HD
BRANCH   5  12
ATOM     12  C   UNL     1      -4.732  -0.119  24.541  0.00  0.00    +0.116 C 
BRANCH  12  13
ATOM     13  C   UNL     1      -4.697   1.376  24.709  0.00  0.00    -0.034 A 
ATOM     15  C   UNL     1      -3.753   2.134  24.017  0.00  0.00    +0.005 A 
ATOM     16  C   UNL     1      -5.607   2.004  25.559  0.00  0.00    +0.005 A 
ATOM     18  C   UNL     1      -3.720   3.520  24.173  0.00  0.00    +0.000 A 
ATOM     19  C   UNL     1      -5.575   3.390  25.716  0.00  0.00    +0.000 A 
ATOM     20  C   UNL     1      -4.631   4.147  25.023  0.00  0.00    +0.000 A 
ENDBRANCH  12  13
ENDBRANCH   5  12
ENDBRANCH   7   5
BRANCH   9  11
ATOM     11  C   UNL     1      -0.147  -0.855  23.278  0.00  0.00    +0.138 C 
BRANCH  11   6
ATOM      4  O   UNL     1       1.902  -0.232  21.365  0.00  0.00    -0.270 OA
ATOM      6  N   UNL     1       1.240  -0.617  23.555  0.00  0.00    -0.308 N 
ATOM     14  C   UNL     1       2.168  -0.320  22.561  0.00  0.00    +0.251 C 
ATOM     26  H   UNL     1       1.535  -0.687  24.523  0.00  0.00    +0.149 HD
BRANCH  14  17
ATOM      1  S   UNL     1       4.378  -1.414  23.799  0.00  0.00    -0.092 S 
ATOM     17  C   UNL     1       3.571  -0.127  23.009  0.00  0.00    +0.074 A 
ATOM     21  C   UNL     1       4.373   0.986  22.885  0.00  0.00    +0.021 A 
ATOM     22  C   UNL     1       5.666   0.779  23.444  0.00  0.00    +0.008 A 
ATOM     23  C   UNL     1       5.805  -0.484  23.976  0.00  0.00    +0.046 A 
ENDBRANCH  14  17
ENDBRANCH  11   6
ENDBRANCH   9  11
TORSDOF 7
ENDMDL
MODEL 10
REMARK VINA RESULT:      -3.6      2.336      4.740
REMARK  Name = 75536598
REMARK  7 active torsions:
REMARK  status: ('A' for Active; 'I' for Inactive)
REMARK    1  A    between atoms: O_3  and  C_8
REMARK    2  A    between atoms: N_5  and  C_7
REMARK    3  A    between atoms: N_5  and  C_12
REMARK    4  A    between atoms: N_6  and  C_11
REMARK    5  A    between atoms: C_9  and  C_11
REMARK    6  A    between atoms: C_12  and  C_13
REMARK    7  A    between atoms: C_14  and  C_17
REMARK                            x       y       z     vdW  Elec       q    Type
REMARK                         _______ _______ _______ _____ _____    ______ ____
ROOT
ATOM      2  O   UNL     1      -0.959  -0.376  26.182  0.00  0.00    -0.371 OA
ATOM      7  C   UNL     1      -2.465  -2.053  25.432  0.00  0.00    +0.111 C 
ATOM      8  C   UNL     1      -1.597  -1.611  24.268  0.00  0.00    +0.164 C 
ATOM      9  C   UNL     1      -0.416  -0.992  25.002  0.00  0.00    +0.165 C 
ATOM     10  C   UNL     1      -2.283  -0.895  26.400  0.00  0.00    +0.181 C 
ENDROOT
BRANCH   8   3
ATOM      3  O   UNL     1      -1.200  -2.689  23.443  0.00  0.00    -0.388 OA
ATOM     25  H   UNL     1      -2.000  -3.104  23.078  0.00  0.00    +0.210 HD
ENDBRANCH   8   3
BRANCH   7   5
ATOM      5  N   UNL     1      -3.856  -2.275  25.071  0.00  0.00    -0.305 NA
ATOM     24  H   UNL     1      -4.453  -1.938  25.827  0.00  0.00    +0.123 HD
BRANCH   5  12
ATOM     12  C   UNL     1      -4.200  -1.565  23.845  0.00  0.00    +0.116 C 
BRANCH  12  13
ATOM     13  C   UNL     1      -4.384  -0.090  24.085  0.00  0.00    -0.034 A 
ATOM     15  C   UNL     1      -5.303   0.353  25.035  0.00  0.00    +0.005 A 
ATOM     16  C   UNL     1      -3.636   0.834  23.356  0.00  0.00    +0.005 A 
ATOM     18  C   UNL     1      -5.474   1.720  25.257  0.00  0.00    +0.000 A 
ATOM     19  C   UNL     1      -3.806   2.200  23.577  0.00  0.00    +0.000 A 
ATOM     20  C   UNL     1      -4.725   2.643  24.528  0.00  0.00    +0.000 A 
ENDBRANCH  12  13
ENDBRANCH   5  12
ENDBRANCH   7   5
BRANCH   9  11
ATOM     11  C   UNL     1       0.326   0.045  24.178  0.00  0.00    +0.138 C 
BRANCH  11   6
ATOM      4  O   UNL     1       0.900   2.110  26.088  0.00  0.00    -0.270 OA
ATOM      6  N   UNL     1      -0.304   1.330  24.265  0.00  0.00    -0.308 N 
ATOM     14  C   UNL     1       0.039   2.274  25.228  0.00  0.00    +0.251 C 
ATOM     26  H   UNL     1      -1.038   1.530  23.594  0.00  0.00    +0.149 HD
BRANCH  14  17
ATOM      1  S   UNL     1      -2.131   3.695  26.171  0.00  0.00    -0.092 S 
ATOM     17  C   UNL     1      -0.727   3.547  25.201  0.00  0.00    +0.074 A 
ATOM     21  C   UNL     1      -0.475   4.692  24.479  0.00  0.00    +0.021 A 
ATOM     22  C   UNL     1      -1.446   5.705  24.725  0.00  0.00    +0.008 A 
ATOM     23  C   UNL     1      -2.405   5.296  25.626  0.00  0.00    +0.046 A 
ENDBRANCH  14  17
ENDBRANCH  11   6
ENDBRANCH   9  11
TORSDOF 7
ENDMDL
