MODEL 1
REMARK VINA RESULT:       0.5      0.000      0.000
REMARK  Name = 26763084
REMARK  8 active torsions:
REMARK  status: ('A' for Active; 'I' for Inactive)
REMARK    1  A    between atoms: O_3  and  C_23
REMARK    2  A    between atoms: O_3  and  C_28
REMARK    3  A    between atoms: N_7  and  C_11
REMARK    4  A    between atoms: C_10  and  C_15
REMARK    5  A    between atoms: C_15  and  C_17
REMARK    6  A    between atoms: C_17  and  C_20
REMARK    7  A    between atoms: C_18  and  C_23
REMARK    8  A    between atoms: C_24  and  C_25
REMARK                            x       y       z     vdW  Elec       q    Type
REMARK                         _______ _______ _______ _____ _____    ______ ____
ROOT
ATOM      1  O   UNL     1      -2.096  -2.943  26.093  0.00  0.00    -0.274 OA
ATOM      5  N   UNL     1      -2.881  -0.466  23.553  0.00  0.00    -0.285 NA
ATOM      6  N   UNL     1      -3.286  -1.013  26.273  0.00  0.00    -0.313 N 
ATOM      9  C   UNL     1      -2.613  -1.828  24.024  0.00  0.00    +0.145 C 
ATOM     10  C   UNL     1      -4.004   0.172  24.234  0.00  0.00    +0.075 C 
ATOM     11  C   UNL     1      -0.672  -0.811  22.958  0.00  0.00    +0.089 C 
ATOM     12  C   UNL     1      -1.239  -2.155  23.425  0.00  0.00    +0.052 C 
ATOM     13  C   UNL     1      -1.602   0.235  23.558  0.00  0.00    +0.107 C 
ATOM     14  C   UNL     1      -3.771   0.240  25.738  0.00  0.00    +0.123 C 
ATOM     16  C   UNL     1      -2.612  -1.966  25.545  0.00  0.00    +0.230 C 
ATOM     32  H   UNL     1      -3.318  -1.132  27.281  0.00  0.00    +0.149 HD
ENDROOT
BRANCH  11   7
ATOM      4  O   UNL     1       1.559  -0.403  21.203  0.00  0.00    -0.270 OA
ATOM      7  N   UNL     1       0.697  -0.616  23.345  0.00  0.00    -0.307 N 
ATOM     24  C   UNL     1       1.715  -0.424  22.421  0.00  0.00    +0.244 C 
ATOM     33  H   UNL     1       0.920  -0.733  24.328  0.00  0.00    +0.149 HD
BRANCH  24  25
ATOM     25  C   UNL     1       3.081  -0.263  22.981  0.00  0.00    +0.037 A 
ATOM     26  C   UNL     1       3.684  -1.318  23.665  0.00  0.00    +0.013 A 
ATOM     27  C   UNL     1       3.762   0.943  22.820  0.00  0.00    +0.013 A 
ATOM     29  C   UNL     1       4.968  -1.167  24.189  0.00  0.00    +0.001 A 
ATOM     30  C   UNL     1       5.046   1.095  23.344  0.00  0.00    +0.001 A 
ATOM     31  C   UNL     1       5.648   0.039  24.029  0.00  0.00    +0.000 A 
ENDBRANCH  24  25
ENDBRANCH  11   7
BRANCH  10  15
ATOM     15  C   UNL     1      -4.326   1.555  23.665  0.00  0.00    +0.029 C 
BRANCH  15  17
ATOM     17  C   UNL     1      -5.229   2.363  24.584  0.00  0.00    +0.097 C 
BRANCH  17  20
ATOM      2  O   UNL     1      -4.831   3.355  26.711  0.00  0.00    -0.276 OA
ATOM      8  N   UNL     1      -3.218   3.668  25.082  0.00  0.00    -0.296 N 
ATOM     18  C   UNL     1      -2.355   4.553  25.869  0.00  0.00    +0.102 C 
ATOM     19  C   UNL     1      -1.426   5.177  24.825  0.00  0.00    +0.026 C 
ATOM     20  C   UNL     1      -4.418   3.173  25.565  0.00  0.00    +0.216 C 
ATOM     21  C   UNL     1      -2.690   3.477  23.733  0.00  0.00    +0.108 C 
ATOM     22  C   UNL     1      -1.296   4.084  23.769  0.00  0.00    +0.021 C 
BRANCH  18  23
ATOM     23  C   UNL     1      -1.586   3.777  26.936  0.00  0.00    +0.181 C 
BRANCH  23   3
ATOM      3  O   UNL     1      -1.168   2.544  26.383  0.00  0.00    -0.381 OA
ATOM     28  C   UNL     1       0.244   2.383  26.460  0.00  0.00    +0.194 C 
ENDBRANCH  23   3
ENDBRANCH  18  23
ENDBRANCH  17  20
ENDBRANCH  15  17
ENDBRANCH  10  15
TORSDOF 7
ENDMDL
MODEL 2
REMARK VINA RESULT:       0.6      1.180      1.839
REMARK  Name = 26763084
REMARK  8 active torsions:
REMARK  status: ('A' for Active; 'I' for Inactive)
REMARK    1  A    between atoms: O_3  and  C_23
REMARK    2  A    between atoms: O_3  and  C_28
REMARK    3  A    between atoms: N_7  and  C_11
REMARK    4  A    between atoms: C_10  and  C_15
REMARK    5  A    between atoms: C_15  and  C_17
REMARK    6  A    between atoms: C_17  and  C_20
REMARK    7  A    between atoms: C_18  and  C_23
REMARK    8  A    between atoms: C_24  and  C_25
REMARK                            x       y       z     vdW  Elec       q    Type
REMARK                         _______ _______ _______ _____ _____    ______ ____
ROOT
ATOM      1  O   UNL     1      -1.982  -3.366  26.115  0.00  0.00    -0.274 OA
ATOM      5  N   UNL     1      -3.121  -0.777  23.835  0.00  0.00    -0.285 NA
ATOM      6  N   UNL     1      -3.298  -1.556  26.522  0.00  0.00    -0.313 N 
ATOM      9  C   UNL     1      -2.720  -2.144  24.178  0.00  0.00    +0.145 C 
ATOM     10  C   UNL     1      -4.240  -0.284  24.633  0.00  0.00    +0.075 C 
ATOM     11  C   UNL     1      -0.938  -0.897  23.079  0.00  0.00    +0.089 C 
ATOM     12  C   UNL     1      -1.369  -2.313  23.472  0.00  0.00    +0.052 C 
ATOM     13  C   UNL     1      -1.902   0.023  23.817  0.00  0.00    +0.107 C 
ATOM     14  C   UNL     1      -3.911  -0.310  26.120  0.00  0.00    +0.123 C 
ATOM     16  C   UNL     1      -2.605  -2.394  25.680  0.00  0.00    +0.230 C 
ATOM     32  H   UNL     1      -3.254  -1.753  27.517  0.00  0.00    +0.149 HD
ENDROOT
BRANCH  11   7
ATOM      4  O   UNL     1       1.216  -0.584  21.212  0.00  0.00    -0.270 OA
ATOM      7  N   UNL     1       0.436  -0.622  23.396  0.00  0.00    -0.307 N 
ATOM     24  C   UNL     1       1.414  -0.486  22.420  0.00  0.00    +0.244 C 
ATOM     33  H   UNL     1       0.696  -0.639  24.376  0.00  0.00    +0.149 HD
BRANCH  24  25
ATOM     25  C   UNL     1       2.792  -0.228  22.912  0.00  0.00    +0.037 A 
ATOM     26  C   UNL     1       3.509  -1.244  23.542  0.00  0.00    +0.013 A 
ATOM     27  C   UNL     1       3.369   1.029  22.740  0.00  0.00    +0.013 A 
ATOM     29  C   UNL     1       4.804  -1.003  24.003  0.00  0.00    +0.001 A 
ATOM     30  C   UNL     1       4.664   1.272  23.200  0.00  0.00    +0.001 A 
ATOM     31  C   UNL     1       5.381   0.255  23.832  0.00  0.00    +0.000 A 
ENDBRANCH  24  25
ENDBRANCH  11   7
BRANCH  10  15
ATOM     15  C   UNL     1      -4.703   1.107  24.197  0.00  0.00    +0.029 C 
BRANCH  15  17
ATOM     17  C   UNL     1      -4.107   2.212  25.056  0.00  0.00    +0.097 C 
BRANCH  17  20
ATOM      2  O   UNL     1      -3.309   3.640  23.326  0.00  0.00    -0.276 OA
ATOM      8  N   UNL     1      -1.744   2.805  24.811  0.00  0.00    -0.296 N 
ATOM     18  C   UNL     1      -0.567   3.378  24.153  0.00  0.00    +0.102 C 
ATOM     19  C   UNL     1       0.605   2.613  24.774  0.00  0.00    +0.026 C 
ATOM     20  C   UNL     1      -3.026   2.955  24.309  0.00  0.00    +0.216 C 
ATOM     21  C   UNL     1      -1.363   2.004  25.972  0.00  0.00    +0.108 C 
ATOM     22  C   UNL     1       0.115   2.299  26.183  0.00  0.00    +0.021 C 
BRANCH  18  23
ATOM     23  C   UNL     1      -0.469   4.882  24.395  0.00  0.00    +0.181 C 
BRANCH  23   3
ATOM      3  O   UNL     1      -1.377   5.233  25.422  0.00  0.00    -0.381 OA
ATOM     28  C   UNL     1      -2.157   6.370  25.071  0.00  0.00    +0.194 C 
ENDBRANCH  23   3
ENDBRANCH  18  23
ENDBRANCH  17  20
ENDBRANCH  15  17
ENDBRANCH  10  15
TORSDOF 7
ENDMDL
MODEL 3
REMARK VINA RESULT:       0.8      1.851      4.867
REMARK  Name = 26763084
REMARK  8 active torsions:
REMARK  status: ('A' for Active; 'I' for Inactive)
REMARK    1  A    between atoms: O_3  and  C_23
REMARK    2  A    between atoms: O_3  and  C_28
REMARK    3  A    between atoms: N_7  and  C_11
REMARK    4  A    between atoms: C_10  and  C_15
REMARK    5  A    between atoms: C_15  and  C_17
REMARK    6  A    between atoms: C_17  and  C_20
REMARK    7  A    between atoms: C_18  and  C_23
REMARK    8  A    between atoms: C_24  and  C_25
REMARK                            x       y       z     vdW  Elec       q    Type
REMARK                         _______ _______ _______ _____ _____    ______ ____
ROOT
ATOM      1  O   UNL     1      -0.782   5.707  25.003  0.00  0.00    -0.274 OA
ATOM      5  N   UNL     1      -3.012   2.940  25.755  0.00  0.00    -0.285 NA
ATOM      6  N   UNL     1      -2.768   5.147  24.045  0.00  0.00    -0.313 N 
ATOM      9  C   UNL     1      -2.029   3.970  26.104  0.00  0.00    +0.145 C 
ATOM     10  C   UNL     1      -4.218   3.477  25.132  0.00  0.00    +0.075 C 
ATOM     11  C   UNL     1      -1.025   1.760  25.877  0.00  0.00    +0.089 C 
ATOM     12  C   UNL     1      -0.762   3.167  26.423  0.00  0.00    +0.052 C 
ATOM     13  C   UNL     1      -2.287   1.899  25.035  0.00  0.00    +0.107 C 
ATOM     14  C   UNL     1      -3.886   4.249  23.862  0.00  0.00    +0.123 C 
ATOM     16  C   UNL     1      -1.786   4.991  24.995  0.00  0.00    +0.230 C 
ATOM     32  H   UNL     1      -2.620   5.857  23.334  0.00  0.00    +0.149 HD
ENDROOT
BRANCH  11   7
ATOM      4  O   UNL     1       0.050   2.828  23.442  0.00  0.00    -0.270 OA
ATOM      7  N   UNL     1       0.081   1.234  25.127  0.00  0.00    -0.307 N 
ATOM     24  C   UNL     1       0.534   1.821  23.953  0.00  0.00    +0.244 C 
ATOM     33  H   UNL     1       0.458   0.342  25.426  0.00  0.00    +0.149 HD
BRANCH  24  25
ATOM     25  C   UNL     1       1.670   1.141  23.282  0.00  0.00    +0.037 A 
ATOM     26  C   UNL     1       1.446  -0.002  22.515  0.00  0.00    +0.013 A 
ATOM     27  C   UNL     1       2.963   1.648  23.416  0.00  0.00    +0.013 A 
ATOM     29  C   UNL     1       2.514  -0.640  21.883  0.00  0.00    +0.001 A 
ATOM     30  C   UNL     1       4.031   1.011  22.785  0.00  0.00    +0.001 A 
ATOM     31  C   UNL     1       3.806  -0.134  22.018  0.00  0.00    +0.000 A 
ENDBRANCH  24  25
ENDBRANCH  11   7
BRANCH  10  15
ATOM     15  C   UNL     1      -5.269   2.399  24.861  0.00  0.00    +0.029 C 
BRANCH  15  17
ATOM     17  C   UNL     1      -4.878   1.050  25.446  0.00  0.00    +0.097 C 
BRANCH  17  20
ATOM      2  O   UNL     1      -3.972   0.631  23.285  0.00  0.00    -0.276 OA
ATOM      8  N   UNL     1      -3.730  -1.035  24.873  0.00  0.00    -0.296 N 
ATOM     18  C   UNL     1      -3.099  -2.018  23.989  0.00  0.00    +0.102 C 
ATOM     19  C   UNL     1      -3.212  -3.331  24.766  0.00  0.00    +0.026 C 
ATOM     20  C   UNL     1      -4.155   0.206  24.427  0.00  0.00    +0.216 C 
ATOM     21  C   UNL     1      -3.925  -1.579  26.215  0.00  0.00    +0.108 C 
ATOM     22  C   UNL     1      -3.148  -2.887  26.223  0.00  0.00    +0.021 C 
BRANCH  18  23
ATOM     23  C   UNL     1      -1.648  -1.647  23.689  0.00  0.00    +0.181 C 
BRANCH  23   3
ATOM      3  O   UNL     1      -1.000  -1.341  24.909  0.00  0.00    -0.381 OA
ATOM     28  C   UNL     1       0.128  -2.179  25.133  0.00  0.00    +0.194 C 
ENDBRANCH  23   3
ENDBRANCH  18  23
ENDBRANCH  17  20
ENDBRANCH  15  17
ENDBRANCH  10  15
TORSDOF 7
ENDMDL
MODEL 4
REMARK VINA RESULT:       3.0      1.961      3.358
REMARK  Name = 26763084
REMARK  8 active torsions:
REMARK  status: ('A' for Active; 'I' for Inactive)
REMARK    1  A    between atoms: O_3  and  C_23
REMARK    2  A    between atoms: O_3  and  C_28
REMARK    3  A    between atoms: N_7  and  C_11
REMARK    4  A    between atoms: C_10  and  C_15
REMARK    5  A    between atoms: C_15  and  C_17
REMARK    6  A    between atoms: C_17  and  C_20
REMARK    7  A    between atoms: C_18  and  C_23
REMARK    8  A    between atoms: C_24  and  C_25
REMARK                            x       y       z     vdW  Elec       q    Type
REMARK                         _______ _______ _______ _____ _____    ______ ____
ROOT
ATOM      1  O   UNL     1      -0.583  -1.861  25.851  0.00  0.00    -0.274 OA
ATOM      5  N   UNL     1      -0.741   1.250  23.981  0.00  0.00    -0.285 NA
ATOM      6  N   UNL     1      -0.938   0.258  26.596  0.00  0.00    -0.313 N 
ATOM      9  C   UNL     1      -0.933  -0.193  24.152  0.00  0.00    +0.145 C 
ATOM     10  C   UNL     1      -1.443   2.050  24.980  0.00  0.00    +0.075 C 
ATOM     11  C   UNL     1       1.079   0.337  22.882  0.00  0.00    +0.089 C 
ATOM     12  C   UNL     1       0.126  -0.811  23.231  0.00  0.00    +0.052 C 
ATOM     13  C   UNL     1       0.693   1.465  23.831  0.00  0.00    +0.107 C 
ATOM     14  C   UNL     1      -0.995   1.689  26.390  0.00  0.00    +0.123 C 
ATOM     16  C   UNL     1      -0.771  -0.669  25.594  0.00  0.00    +0.230 C 
ATOM     32  H   UNL     1      -0.872  -0.072  27.554  0.00  0.00    +0.149 HD
ENDROOT
BRANCH  11   7
ATOM      4  O   UNL     1       3.323   2.122  22.898  0.00  0.00    -0.270 OA
ATOM      7  N   UNL     1       2.463  -0.030  22.998  0.00  0.00    -0.307 N 
ATOM     24  C   UNL     1       3.486   0.908  22.997  0.00  0.00    +0.244 C 
ATOM     33  H   UNL     1       2.681  -1.020  22.969  0.00  0.00    +0.149 HD
BRANCH  24  25
ATOM     25  C   UNL     1       4.865   0.367  23.097  0.00  0.00    +0.037 A 
ATOM     26  C   UNL     1       5.616   0.579  24.253  0.00  0.00    +0.013 A 
ATOM     27  C   UNL     1       5.409  -0.356  22.036  0.00  0.00    +0.013 A 
ATOM     29  C   UNL     1       6.911   0.070  24.348  0.00  0.00    +0.001 A 
ATOM     30  C   UNL     1       6.703  -0.867  22.130  0.00  0.00    +0.001 A 
ATOM     31  C   UNL     1       7.455  -0.653  23.286  0.00  0.00    +0.000 A 
ENDBRANCH  24  25
ENDBRANCH  11   7
BRANCH  10  15
ATOM     15  C   UNL     1      -1.307   3.553  24.729  0.00  0.00    +0.029 C 
BRANCH  15  17
ATOM     17  C   UNL     1      -2.600   4.175  24.223  0.00  0.00    +0.097 C 
BRANCH  17  20
ATOM      2  O   UNL     1      -3.449   2.665  22.590  0.00  0.00    -0.276 OA
ATOM      8  N   UNL     1      -4.516   2.709  24.642  0.00  0.00    -0.296 N 
ATOM     18  C   UNL     1      -5.579   1.761  24.298  0.00  0.00    +0.102 C 
ATOM     19  C   UNL     1      -6.612   1.955  25.411  0.00  0.00    +0.026 C 
ATOM     20  C   UNL     1      -3.554   3.115  23.731  0.00  0.00    +0.216 C 
ATOM     21  C   UNL     1      -4.678   3.215  26.003  0.00  0.00    +0.108 C 
ATOM     22  C   UNL     1      -5.765   2.344  26.616  0.00  0.00    +0.021 C 
BRANCH  18  23
ATOM     23  C   UNL     1      -5.052   0.329  24.242  0.00  0.00    +0.181 C 
BRANCH  23   3
ATOM      3  O   UNL     1      -4.308   0.077  25.418  0.00  0.00    -0.381 OA
ATOM     28  C   UNL     1      -3.952  -1.297  25.533  0.00  0.00    +0.194 C 
ENDBRANCH  23   3
ENDBRANCH  18  23
ENDBRANCH  17  20
ENDBRANCH  15  17
ENDBRANCH  10  15
TORSDOF 7
ENDMDL
MODEL 5
REMARK VINA RESULT:       3.1      2.749      3.901
REMARK  Name = 26763084
REMARK  8 active torsions:
REMARK  status: ('A' for Active; 'I' for Inactive)
REMARK    1  A    between atoms: O_3  and  C_23
REMARK    2  A    between atoms: O_3  and  C_28
REMARK    3  A    between atoms: N_7  and  C_11
REMARK    4  A    between atoms: C_10  and  C_15
REMARK    5  A    between atoms: C_15  and  C_17
REMARK    6  A    between atoms: C_17  and  C_20
REMARK    7  A    between atoms: C_18  and  C_23
REMARK    8  A    between atoms: C_24  and  C_25
REMARK                            x       y       z     vdW  Elec       q    Type
REMARK                         _______ _______ _______ _____ _____    ______ ____
ROOT
ATOM      1  O   UNL     1      -0.621  -3.113  24.988  0.00  0.00    -0.274 OA
ATOM      5  N   UNL     1      -2.583  -0.212  24.018  0.00  0.00    -0.285 NA
ATOM      6  N   UNL     1      -2.867  -2.775  25.119  0.00  0.00    -0.313 N 
ATOM      9  C   UNL     1      -1.455  -1.140  23.891  0.00  0.00    +0.145 C 
ATOM     10  C   UNL     1      -3.885  -0.868  23.934  0.00  0.00    +0.075 C 
ATOM     11  C   UNL     1      -0.838   0.932  25.018  0.00  0.00    +0.089 C 
ATOM     12  C   UNL     1      -0.247  -0.303  24.329  0.00  0.00    +0.052 C 
ATOM     13  C   UNL     1      -2.317   0.610  25.192  0.00  0.00    +0.107 C 
ATOM     14  C   UNL     1      -4.037  -1.932  25.013  0.00  0.00    +0.123 C 
ATOM     16  C   UNL     1      -1.599  -2.405  24.735  0.00  0.00    +0.230 C 
ATOM     32  H   UNL     1      -2.962  -3.639  25.643  0.00  0.00    +0.149 HD
ENDROOT
BRANCH  11   7
ATOM      4  O   UNL     1       0.558   3.353  25.662  0.00  0.00    -0.270 OA
ATOM      7  N   UNL     1      -0.192   1.242  26.263  0.00  0.00    -0.307 N 
ATOM     24  C   UNL     1       0.462   2.446  26.485  0.00  0.00    +0.244 C 
ATOM     33  H   UNL     1      -0.133   0.497  26.949  0.00  0.00    +0.149 HD
BRANCH  24  25
ATOM     25  C   UNL     1       1.102   2.603  27.815  0.00  0.00    +0.037 A 
ATOM     26  C   UNL     1       2.432   3.011  27.907  0.00  0.00    +0.013 A 
ATOM     27  C   UNL     1       0.372   2.344  28.975  0.00  0.00    +0.013 A 
ATOM     29  C   UNL     1       3.033   3.159  29.157  0.00  0.00    +0.001 A 
ATOM     30  C   UNL     1       0.971   2.493  30.225  0.00  0.00    +0.001 A 
ATOM     31  C   UNL     1       2.303   2.900  30.316  0.00  0.00    +0.000 A 
ENDBRANCH  24  25
ENDBRANCH  11   7
BRANCH  10  15
ATOM     15  C   UNL     1      -5.046   0.126  23.974  0.00  0.00    +0.029 C 
BRANCH  15  17
ATOM     17  C   UNL     1      -5.499   0.430  25.394  0.00  0.00    +0.097 C 
BRANCH  17  20
ATOM      2  O   UNL     1      -5.921   2.370  26.708  0.00  0.00    -0.276 OA
ATOM      8  N   UNL     1      -4.733   2.663  24.744  0.00  0.00    -0.296 N 
ATOM     18  C   UNL     1      -4.637   4.123  24.822  0.00  0.00    +0.102 C 
ATOM     19  C   UNL     1      -4.216   4.536  23.409  0.00  0.00    +0.026 C 
ATOM     20  C   UNL     1      -5.412   1.908  25.686  0.00  0.00    +0.216 C 
ATOM     21  C   UNL     1      -4.114   2.157  23.520  0.00  0.00    +0.108 C 
ATOM     22  C   UNL     1      -3.383   3.353  22.929  0.00  0.00    +0.021 C 
BRANCH  18  23
ATOM     23  C   UNL     1      -3.625   4.560  25.878  0.00  0.00    +0.181 C 
BRANCH  23   3
ATOM      3  O   UNL     1      -2.327   4.224  25.423  0.00  0.00    -0.381 OA
ATOM     28  C   UNL     1      -1.535   5.383  25.186  0.00  0.00    +0.194 C 
ENDBRANCH  23   3
ENDBRANCH  18  23
ENDBRANCH  17  20
ENDBRANCH  15  17
ENDBRANCH  10  15
TORSDOF 7
ENDMDL
MODEL 6
REMARK VINA RESULT:       3.3      2.121      4.957
REMARK  Name = 26763084
REMARK  8 active torsions:
REMARK  status: ('A' for Active; 'I' for Inactive)
REMARK    1  A    between atoms: O_3  and  C_23
REMARK    2  A    between atoms: O_3  and  C_28
REMARK    3  A    between atoms: N_7  and  C_11
REMARK    4  A    between atoms: C_10  and  C_15
REMARK    5  A    between atoms: C_15  and  C_17
REMARK    6  A    between atoms: C_17  and  C_20
REMARK    7  A    between atoms: C_18  and  C_23
REMARK    8  A    between atoms: C_24  and  C_25
REMARK                            x       y       z     vdW  Elec       q    Type
REMARK                         _______ _______ _______ _____ _____    ______ ____
ROOT
ATOM      1  O   UNL     1      -2.537   6.154  23.424  0.00  0.00    -0.274 OA
ATOM      5  N   UNL     1      -2.924   3.834  26.192  0.00  0.00    -0.285 NA
ATOM      6  N   UNL     1      -4.299   4.818  23.957  0.00  0.00    -0.313 N 
ATOM      9  C   UNL     1      -2.416   5.055  25.561  0.00  0.00    +0.145 C 
ATOM     10  C   UNL     1      -4.380   3.730  26.167  0.00  0.00    +0.075 C 
ATOM     11  C   UNL     1      -0.742   3.286  25.650  0.00  0.00    +0.089 C 
ATOM     12  C   UNL     1      -0.913   4.790  25.416  0.00  0.00    +0.052 C 
ATOM     13  C   UNL     1      -2.159   2.726  25.632  0.00  0.00    +0.107 C 
ATOM     14  C   UNL     1      -4.911   3.767  24.740  0.00  0.00    +0.123 C 
ATOM     16  C   UNL     1      -3.065   5.368  24.214  0.00  0.00    +0.230 C 
ATOM     32  H   UNL     1      -4.745   5.063  23.078  0.00  0.00    +0.149 HD
ENDROOT
BRANCH  11   7
ATOM      4  O   UNL     1      -0.343   0.469  25.287  0.00  0.00    -0.270 OA
ATOM      7  N   UNL     1       0.108   2.661  24.676  0.00  0.00    -0.307 N 
ATOM     24  C   UNL     1       0.239   1.283  24.574  0.00  0.00    +0.244 C 
ATOM     33  H   UNL     1       0.706   3.269  24.127  0.00  0.00    +0.149 HD
BRANCH  24  25
ATOM     25  C   UNL     1       1.178   0.794  23.533  0.00  0.00    +0.037 A 
ATOM     26  C   UNL     1       2.497   1.245  23.514  0.00  0.00    +0.013 A 
ATOM     27  C   UNL     1       0.741  -0.120  22.574  0.00  0.00    +0.013 A 
ATOM     29  C   UNL     1       3.380   0.784  22.537  0.00  0.00    +0.001 A 
ATOM     30  C   UNL     1       1.623  -0.581  21.596  0.00  0.00    +0.001 A 
ATOM     31  C   UNL     1       2.942  -0.128  21.577  0.00  0.00    +0.000 A 
ENDBRANCH  24  25
ENDBRANCH  11   7
BRANCH  10  15
ATOM     15  C   UNL     1      -4.893   2.497  26.912  0.00  0.00    +0.029 C 
BRANCH  15  17
ATOM     17  C   UNL     1      -5.959   1.747  26.127  0.00  0.00    +0.097 C 
BRANCH  17  20
ATOM      2  O   UNL     1      -5.691   1.741  23.761  0.00  0.00    -0.276 OA
ATOM      8  N   UNL     1      -4.562   0.113  24.956  0.00  0.00    -0.296 N 
ATOM     18  C   UNL     1      -4.011  -0.593  23.796  0.00  0.00    +0.102 C 
ATOM     19  C   UNL     1      -3.547  -1.933  24.373  0.00  0.00    +0.026 C 
ATOM     20  C   UNL     1      -5.400   1.209  24.833  0.00  0.00    +0.216 C 
ATOM     21  C   UNL     1      -4.190  -0.550  26.204  0.00  0.00    +0.108 C 
ATOM     22  C   UNL     1      -3.148  -1.583  25.802  0.00  0.00    +0.021 C 
BRANCH  18  23
ATOM     23  C   UNL     1      -2.865   0.190  23.159  0.00  0.00    +0.181 C 
BRANCH  23   3
ATOM      3  O   UNL     1      -3.368   1.431  22.702  0.00  0.00    -0.381 OA
ATOM     28  C   UNL     1      -2.366   2.195  22.041  0.00  0.00    +0.194 C 
ENDBRANCH  23   3
ENDBRANCH  18  23
ENDBRANCH  17  20
ENDBRANCH  15  17
ENDBRANCH  10  15
TORSDOF 7
ENDMDL
MODEL 7
REMARK VINA RESULT:       3.4      1.934      4.859
REMARK  Name = 26763084
REMARK  8 active torsions:
REMARK  status: ('A' for Active; 'I' for Inactive)
REMARK    1  A    between atoms: O_3  and  C_23
REMARK    2  A    between atoms: O_3  and  C_28
REMARK    3  A    between atoms: N_7  and  C_11
REMARK    4  A    between atoms: C_10  and  C_15
REMARK    5  A    between atoms: C_15  and  C_17
REMARK    6  A    between atoms: C_17  and  C_20
REMARK    7  A    between atoms: C_18  and  C_23
REMARK    8  A    between atoms: C_24  and  C_25
REMARK                            x       y       z     vdW  Elec       q    Type
REMARK                         _______ _______ _______ _____ _____    ______ ____
ROOT
ATOM      1  O   UNL     1      -1.309   5.936  23.696  0.00  0.00    -0.274 OA
ATOM      5  N   UNL     1      -2.858   3.805  26.197  0.00  0.00    -0.285 NA
ATOM      6  N   UNL     1      -3.380   4.998  23.715  0.00  0.00    -0.313 N 
ATOM      9  C   UNL     1      -1.969   4.883  25.756  0.00  0.00    +0.145 C 
ATOM     10  C   UNL     1      -4.248   3.998  25.794  0.00  0.00    +0.075 C 
ATOM     11  C   UNL     1      -0.767   2.814  26.218  0.00  0.00    +0.089 C 
ATOM     12  C   UNL     1      -0.564   4.316  25.996  0.00  0.00    +0.052 C 
ATOM     13  C   UNL     1      -2.214   2.553  25.818  0.00  0.00    +0.107 C 
ATOM     14  C   UNL     1      -4.373   4.111  24.281  0.00  0.00    +0.123 C 
ATOM     16  C   UNL     1      -2.170   5.291  24.298  0.00  0.00    +0.230 C 
ATOM     32  H   UNL     1      -3.526   5.309  22.759  0.00  0.00    +0.149 HD
ENDROOT
BRANCH  11   7
ATOM      4  O   UNL     1      -0.221   2.983  23.407  0.00  0.00    -0.270 OA
ATOM      7  N   UNL     1       0.162   2.007  25.477  0.00  0.00    -0.307 N 
ATOM     24  C   UNL     1       0.361   2.162  24.112  0.00  0.00    +0.244 C 
ATOM     33  H   UNL     1       0.596   1.234  25.969  0.00  0.00    +0.149 HD
BRANCH  24  25
ATOM     25  C   UNL     1       1.337   1.233  23.487  0.00  0.00    +0.037 A 
ATOM     26  C   UNL     1       2.677   1.602  23.372  0.00  0.00    +0.013 A 
ATOM     27  C   UNL     1       0.914  -0.010  23.018  0.00  0.00    +0.013 A 
ATOM     29  C   UNL     1       3.594   0.729  22.786  0.00  0.00    +0.001 A 
ATOM     30  C   UNL     1       1.830  -0.884  22.433  0.00  0.00    +0.001 A 
ATOM     31  C   UNL     1       3.171  -0.514  22.317  0.00  0.00    +0.000 A 
ENDBRANCH  24  25
ENDBRANCH  11   7
BRANCH  10  15
ATOM     15  C   UNL     1      -5.174   2.912  26.343  0.00  0.00    +0.029 C 
BRANCH  15  17
ATOM     17  C   UNL     1      -5.722   2.010  25.247  0.00  0.00    +0.097 C 
BRANCH  17  20
ATOM      2  O   UNL     1      -5.411  -0.189  26.105  0.00  0.00    -0.276 OA
ATOM      8  N   UNL     1      -4.067   0.454  24.335  0.00  0.00    -0.296 N 
ATOM     18  C   UNL     1      -3.257  -0.767  24.288  0.00  0.00    +0.102 C 
ATOM     19  C   UNL     1      -2.055  -0.373  23.426  0.00  0.00    +0.026 C 
ATOM     20  C   UNL     1      -5.060   0.655  25.279  0.00  0.00    +0.216 C 
ATOM     21  C   UNL     1      -3.618   1.424  23.339  0.00  0.00    +0.108 C 
ATOM     22  C   UNL     1      -2.632   0.661  22.467  0.00  0.00    +0.021 C 
BRANCH  18  23
ATOM     23  C   UNL     1      -4.040  -1.933  23.689  0.00  0.00    +0.181 C 
BRANCH  23   3
ATOM      3  O   UNL     1      -3.638  -3.125  24.337  0.00  0.00    -0.381 OA
ATOM     28  C   UNL     1      -3.180  -2.878  25.661  0.00  0.00    +0.194 C 
ENDBRANCH  23   3
ENDBRANCH  18  23
ENDBRANCH  17  20
ENDBRANCH  15  17
ENDBRANCH  10  15
TORSDOF 7
ENDMDL
