MODEL 1
REMARK VINA RESULT:      -4.3      0.000      0.000
REMARK  Name = 44715973
REMARK  7 active torsions:
REMARK  status: ('A' for Active; 'I' for Inactive)
REMARK    1  A    between atoms: N_3  and  C_15
REMARK    2  A    between atoms: N_4  and  C_17
REMARK    3  A    between atoms: N_4  and  C_19
REMARK    4  A    between atoms: C_9  and  C_16
REMARK    5  A    between atoms: C_10  and  C_15
REMARK    6  A    between atoms: C_17  and  C_21
REMARK    7  A    between atoms: C_20  and  C_22
REMARK                            x       y       z     vdW  Elec       q    Type
REMARK                         _______ _______ _______ _____ _____    ______ ____
ROOT
ATOM      2  N   UNL     1      -5.601  -9.895  11.410  0.00  0.00    -0.297 NA
ATOM      8  C   UNL     1      -4.705  -8.624   9.324  0.00  0.00    +0.005 C 
ATOM      9  C   UNL     1      -5.866  -7.860   9.991  0.00  0.00    +0.092 C 
ATOM     10  C   UNL     1      -4.219  -9.403  11.663  0.00  0.00    +0.078 C 
ATOM     11  C   UNL     1      -3.600  -8.792  10.384  0.00  0.00    +0.025 C 
ATOM     12  C   UNL     1      -5.172 -10.043   8.953  0.00  0.00    +0.020 C 
ATOM     13  C   UNL     1      -6.467  -8.725  11.115  0.00  0.00    +0.097 C 
ATOM     14  C   UNL     1      -5.629 -10.779  10.222  0.00  0.00    +0.085 C 
ENDROOT
BRANCH   9  16
ATOM      1  O   UNL     1      -6.640  -6.610   8.143  0.00  0.00    -0.275 OA
ATOM      4  N   UNL     1      -8.148  -8.101   9.094  0.00  0.00    -0.301 N 
ATOM     16  C   UNL     1      -6.912  -7.463   8.991  0.00  0.00    +0.220 C 
ATOM     19  C   UNL     1      -9.253  -7.810   8.188  0.00  0.00    +0.132 C 
BRANCH   4  17
ATOM     17  C   UNL     1      -8.427  -9.108  10.115  0.00  0.00    +0.134 C 
BRANCH  17  21
ATOM     21  C   UNL     1      -9.899  -9.342  10.181  0.00  0.00    -0.016 C 
ATOM     23  C   UNL     1     -10.573  -9.536  11.320  0.00  0.00    +0.005 C 
ENDBRANCH  17  21
ENDBRANCH   4  17
ENDBRANCH   9  16
BRANCH  10  15
ATOM     15  C   UNL     1      -3.321 -10.486  12.264  0.00  0.00    +0.164 C 
BRANCH  15   3
ATOM      3  N   UNL     1      -3.492 -10.580  13.755  0.00  0.00    -0.250 N 
ATOM      5  N   UNL     1      -2.424 -10.690  14.561  0.00  0.00    -0.065 NA
ATOM      6  N   UNL     1      -2.876 -10.752  15.809  0.00  0.00    -0.128 NA
ATOM     18  C   UNL     1      -4.654 -10.570  14.461  0.00  0.00    +0.140 A 
ATOM     20  C   UNL     1      -4.241 -10.680  15.765  0.00  0.00    +0.131 A 
BRANCH  20  22
ATOM      7  N   UNL     1      -6.421 -10.715  16.649  0.00  0.00    -0.253 NA
ATOM     22  C   UNL     1      -5.094 -10.716  16.909  0.00  0.00    +0.092 A 
ATOM     24  C   UNL     1      -4.553 -10.747  18.184  0.00  0.00    +0.030 A 
ATOM     25  C   UNL     1      -5.430 -10.780  19.262  0.00  0.00    +0.004 A 
ATOM     26  C   UNL     1      -7.243 -10.748  17.722  0.00  0.00    +0.111 A 
ATOM     27  C   UNL     1      -6.802 -10.781  19.036  0.00  0.00    +0.020 A 
ENDBRANCH  20  22
ENDBRANCH  15   3
ENDBRANCH  10  15
TORSDOF 6
ENDMDL
MODEL 2
REMARK VINA RESULT:      -3.4      1.497      2.447
REMARK  Name = 44715973
REMARK  7 active torsions:
REMARK  status: ('A' for Active; 'I' for Inactive)
REMARK    1  A    between atoms: N_3  and  C_15
REMARK    2  A    between atoms: N_4  and  C_17
REMARK    3  A    between atoms: N_4  and  C_19
REMARK    4  A    between atoms: C_9  and  C_16
REMARK    5  A    between atoms: C_10  and  C_15
REMARK    6  A    between atoms: C_17  and  C_21
REMARK    7  A    between atoms: C_20  and  C_22
REMARK                            x       y       z     vdW  Elec       q    Type
REMARK                         _______ _______ _______ _____ _____    ______ ____
ROOT
ATOM      2  N   UNL     1      -5.418  -9.324  11.727  0.00  0.00    -0.297 NA
ATOM      8  C   UNL     1      -6.000  -9.693   9.218  0.00  0.00    +0.005 C 
ATOM      9  C   UNL     1      -6.460  -8.304   9.702  0.00  0.00    +0.092 C 
ATOM     10  C   UNL     1      -4.172  -9.392  10.916  0.00  0.00    +0.078 C 
ATOM     11  C   UNL     1      -4.480  -9.777   9.449  0.00  0.00    +0.025 C 
ATOM     12  C   UNL     1      -6.637 -10.780  10.103  0.00  0.00    +0.020 C 
ATOM     13  C   UNL     1      -6.243  -8.196  11.223  0.00  0.00    +0.097 C 
ATOM     14  C   UNL     1      -6.213 -10.563  11.564  0.00  0.00    +0.085 C 
ENDROOT
BRANCH   9  16
ATOM      1  O   UNL     1      -8.765  -8.816   9.721  0.00  0.00    -0.275 OA
ATOM      4  N   UNL     1      -8.136  -6.899   8.566  0.00  0.00    -0.301 N 
ATOM     16  C   UNL     1      -7.890  -8.036   9.336  0.00  0.00    +0.220 C 
ATOM     19  C   UNL     1      -9.478  -6.521   8.140  0.00  0.00    +0.132 C 
BRANCH   4  17
ATOM     17  C   UNL     1      -7.068  -6.002   8.132  0.00  0.00    +0.134 C 
BRANCH  17  21
ATOM     21  C   UNL     1      -7.434  -4.600   8.485  0.00  0.00    -0.016 C 
ATOM     23  C   UNL     1      -6.598  -3.736   9.072  0.00  0.00    +0.005 C 
ENDBRANCH  17  21
ENDBRANCH   4  17
ENDBRANCH   9  16
BRANCH  10  15
ATOM     15  C   UNL     1      -3.127 -10.321  11.537  0.00  0.00    +0.164 C 
BRANCH  15   3
ATOM      3  N   UNL     1      -3.277 -10.397  13.031  0.00  0.00    -0.250 N 
ATOM      5  N   UNL     1      -2.197 -10.393  13.829  0.00  0.00    -0.065 NA
ATOM      6  N   UNL     1      -2.631 -10.469  15.082  0.00  0.00    -0.128 NA
ATOM     18  C   UNL     1      -4.429 -10.477  13.748  0.00  0.00    +0.140 A 
ATOM     20  C   UNL     1      -3.997 -10.521  15.050  0.00  0.00    +0.131 A 
BRANCH  20  22
ATOM      7  N   UNL     1      -4.191 -10.690  17.389  0.00  0.00    -0.253 NA
ATOM     22  C   UNL     1      -4.835 -10.609  16.204  0.00  0.00    +0.092 A 
ATOM     24  C   UNL     1      -6.213 -10.608  16.068  0.00  0.00    +0.030 A 
ATOM     25  C   UNL     1      -6.981 -10.695  17.224  0.00  0.00    +0.004 A 
ATOM     26  C   UNL     1      -4.969 -10.774  18.491  0.00  0.00    +0.111 A 
ATOM     27  C   UNL     1      -6.355 -10.780  18.462  0.00  0.00    +0.020 A 
ENDBRANCH  20  22
ENDBRANCH  15   3
ENDBRANCH  10  15
TORSDOF 6
ENDMDL
MODEL 3
REMARK VINA RESULT:      -3.3     14.918     17.369
REMARK  Name = 44715973
REMARK  7 active torsions:
REMARK  status: ('A' for Active; 'I' for Inactive)
REMARK    1  A    between atoms: N_3  and  C_15
REMARK    2  A    between atoms: N_4  and  C_17
REMARK    3  A    between atoms: N_4  and  C_19
REMARK    4  A    between atoms: C_9  and  C_16
REMARK    5  A    between atoms: C_10  and  C_15
REMARK    6  A    between atoms: C_17  and  C_21
REMARK    7  A    between atoms: C_20  and  C_22
REMARK                            x       y       z     vdW  Elec       q    Type
REMARK                         _______ _______ _______ _____ _____    ______ ____
ROOT
ATOM      2  N   UNL     1      -3.761  -0.850  24.525  0.00  0.00    -0.297 NA
ATOM      8  C   UNL     1      -2.855   1.587  24.616  0.00  0.00    +0.005 C 
ATOM      9  C   UNL     1      -4.074   1.407  25.542  0.00  0.00    +0.092 C 
ATOM     10  C   UNL     1      -2.415  -0.826  25.159  0.00  0.00    +0.078 C 
ATOM     11  C   UNL     1      -1.782   0.583  25.074  0.00  0.00    +0.025 C 
ATOM     12  C   UNL     1      -3.240   1.190  23.179  0.00  0.00    +0.020 C 
ATOM     13  C   UNL     1      -4.672   0.003  25.331  0.00  0.00    +0.097 C 
ATOM     14  C   UNL     1      -3.705  -0.275  23.162  0.00  0.00    +0.085 C 
ENDROOT
BRANCH   9  16
ATOM      1  O   UNL     1      -6.196   2.168  24.834  0.00  0.00    -0.275 OA
ATOM      4  N   UNL     1      -4.741   3.776  25.670  0.00  0.00    -0.301 N 
ATOM     16  C   UNL     1      -5.103   2.476  25.315  0.00  0.00    +0.220 C 
ATOM     19  C   UNL     1      -5.643   4.910  25.503  0.00  0.00    +0.132 C 
BRANCH   4  17
ATOM     17  C   UNL     1      -3.434   4.098  26.237  0.00  0.00    +0.134 C 
BRANCH  17  21
ATOM     21  C   UNL     1      -2.645   4.873  25.236  0.00  0.00    -0.016 C 
ATOM     23  C   UNL     1      -1.311   4.833  25.145  0.00  0.00    +0.005 C 
ENDBRANCH  17  21
ENDBRANCH   4  17
ENDBRANCH   9  16
BRANCH  10  15
ATOM     15  C   UNL     1      -1.487  -1.899  24.584  0.00  0.00    +0.164 C 
BRANCH  15   3
ATOM      3  N   UNL     1      -0.281  -1.290  23.926  0.00  0.00    -0.250 N 
ATOM      5  N   UNL     1      -0.399  -0.611  22.773  0.00  0.00    -0.065 NA
ATOM      6  N   UNL     1       0.816  -0.194  22.434  0.00  0.00    -0.128 NA
ATOM     18  C   UNL     1       1.009  -1.327  24.356  0.00  0.00    +0.140 A 
ATOM     20  C   UNL     1       1.690  -0.625  23.393  0.00  0.00    +0.131 A 
BRANCH  20  22
ATOM      7  N   UNL     1       3.872  -1.378  23.849  0.00  0.00    -0.253 NA
ATOM     22  C   UNL     1       3.096  -0.374  23.383  0.00  0.00    +0.092 A 
ATOM     24  C   UNL     1       3.587   0.835  22.919  0.00  0.00    +0.030 A 
ATOM     25  C   UNL     1       4.964   1.026  22.932  0.00  0.00    +0.004 A 
ATOM     26  C   UNL     1       5.206  -1.157  23.847  0.00  0.00    +0.111 A 
ATOM     27  C   UNL     1       5.796   0.016  23.403  0.00  0.00    +0.020 A 
ENDBRANCH  20  22
ENDBRANCH  15   3
ENDBRANCH  10  15
TORSDOF 6
ENDMDL
MODEL 4
REMARK VINA RESULT:      -1.9      3.932      5.657
REMARK  Name = 44715973
REMARK  7 active torsions:
REMARK  status: ('A' for Active; 'I' for Inactive)
REMARK    1  A    between atoms: N_3  and  C_15
REMARK    2  A    between atoms: N_4  and  C_17
REMARK    3  A    between atoms: N_4  and  C_19
REMARK    4  A    between atoms: C_9  and  C_16
REMARK    5  A    between atoms: C_10  and  C_15
REMARK    6  A    between atoms: C_17  and  C_21
REMARK    7  A    between atoms: C_20  and  C_22
REMARK                            x       y       z     vdW  Elec       q    Type
REMARK                         _______ _______ _______ _____ _____    ______ ____
ROOT
ATOM      2  N   UNL     1      -5.732  -9.362  10.738  0.00  0.00    -0.297 NA
ATOM      8  C   UNL     1      -7.400  -9.956   8.831  0.00  0.00    +0.005 C 
ATOM      9  C   UNL     1      -7.452  -8.455   9.174  0.00  0.00    +0.092 C 
ATOM     10  C   UNL     1      -4.989  -9.762   9.511  0.00  0.00    +0.078 C 
ATOM     11  C   UNL     1      -5.953 -10.281   8.418  0.00  0.00    +0.025 C 
ATOM     12  C   UNL     1      -7.687 -10.781  10.100  0.00  0.00    +0.020 C 
ATOM     13  C   UNL     1      -6.574  -8.182  10.410  0.00  0.00    +0.097 C 
ATOM     14  C   UNL     1      -6.639 -10.447  11.173  0.00  0.00    +0.085 C 
ENDROOT
BRANCH   9  16
ATOM      1  O   UNL     1      -9.643  -8.706  10.020  0.00  0.00    -0.275 OA
ATOM      4  N   UNL     1      -9.196  -6.742   8.861  0.00  0.00    -0.301 N 
ATOM     16  C   UNL     1      -8.861  -7.987   9.394  0.00  0.00    +0.220 C 
ATOM     19  C   UNL     1     -10.529  -6.168   8.999  0.00  0.00    +0.132 C 
BRANCH   4  17
ATOM     17  C   UNL     1      -8.237  -5.922   8.125  0.00  0.00    +0.134 C 
BRANCH  17  21
ATOM     21  C   UNL     1      -8.467  -4.486   8.457  0.00  0.00    -0.016 C 
ATOM     23  C   UNL     1      -7.493  -3.635   8.800  0.00  0.00    +0.005 C 
ENDBRANCH  17  21
ENDBRANCH   4  17
ENDBRANCH   9  16
BRANCH  10  15
ATOM     15  C   UNL     1      -3.878 -10.770   9.812  0.00  0.00    +0.164 C 
BRANCH  15   3
ATOM      3  N   UNL     1      -2.826 -10.181  10.710  0.00  0.00    -0.250 N 
ATOM      5  N   UNL     1      -2.820 -10.448  12.025  0.00  0.00    -0.065 NA
ATOM      6  N   UNL     1      -1.790  -9.799  12.556  0.00  0.00    -0.128 NA
ATOM     18  C   UNL     1      -1.804  -9.355  10.361  0.00  0.00    +0.140 A 
ATOM     20  C   UNL     1      -1.157  -9.123  11.550  0.00  0.00    +0.131 A 
BRANCH  20  22
ATOM      7  N   UNL     1       1.117  -8.731  11.088  0.00  0.00    -0.253 NA
ATOM     22  C   UNL     1       0.001  -8.306  11.722  0.00  0.00    +0.092 A 
ATOM     24  C   UNL     1      -0.061  -7.161  12.499  0.00  0.00    +0.030 A 
ATOM     25  C   UNL     1       1.096  -6.402  12.634  0.00  0.00    +0.004 A 
ATOM     26  C   UNL     1       2.222  -7.968  11.242  0.00  0.00    +0.111 A 
ATOM     27  C   UNL     1       2.264  -6.806  11.996  0.00  0.00    +0.020 A 
ENDBRANCH  20  22
ENDBRANCH  15   3
ENDBRANCH  10  15
TORSDOF 6
ENDMDL
MODEL 5
REMARK VINA RESULT:      -1.3     14.802     17.297
REMARK  Name = 44715973
REMARK  7 active torsions:
REMARK  status: ('A' for Active; 'I' for Inactive)
REMARK    1  A    between atoms: N_3  and  C_15
REMARK    2  A    between atoms: N_4  and  C_17
REMARK    3  A    between atoms: N_4  and  C_19
REMARK    4  A    between atoms: C_9  and  C_16
REMARK    5  A    between atoms: C_10  and  C_15
REMARK    6  A    between atoms: C_17  and  C_21
REMARK    7  A    between atoms: C_20  and  C_22
REMARK                            x       y       z     vdW  Elec       q    Type
REMARK                         _______ _______ _______ _____ _____    ______ ____
ROOT
ATOM      2  N   UNL     1      -2.097   0.450  24.664  0.00  0.00    -0.297 NA
ATOM      8  C   UNL     1      -4.591  -0.286  24.753  0.00  0.00    +0.005 C 
ATOM      9  C   UNL     1      -4.455   1.176  24.285  0.00  0.00    +0.092 C 
ATOM     10  C   UNL     1      -2.365  -0.582  23.626  0.00  0.00    +0.078 C 
ATOM     11  C   UNL     1      -3.794  -1.159  23.767  0.00  0.00    +0.025 C 
ATOM     12  C   UNL     1      -3.913  -0.449  26.126  0.00  0.00    +0.020 C 
ATOM     13  C   UNL     1      -2.983   1.614  24.404  0.00  0.00    +0.097 C 
ATOM     14  C   UNL     1      -2.429  -0.067  26.011  0.00  0.00    +0.085 C 
ENDROOT
BRANCH   9  16
ATOM      1  O   UNL     1      -6.373   1.627  25.587  0.00  0.00    -0.275 OA
ATOM      4  N   UNL     1      -4.985   3.432  25.121  0.00  0.00    -0.301 N 
ATOM     16  C   UNL     1      -5.360   2.090  25.057  0.00  0.00    +0.220 C 
ATOM     19  C   UNL     1      -5.773   4.429  25.837  0.00  0.00    +0.132 C 
BRANCH   4  17
ATOM     17  C   UNL     1      -3.775   3.938  24.477  0.00  0.00    +0.134 C 
BRANCH  17  21
ATOM     21  C   UNL     1      -2.831   4.424  25.525  0.00  0.00    -0.016 C 
ATOM     23  C   UNL     1      -1.660   5.013  25.259  0.00  0.00    +0.005 C 
ENDBRANCH  17  21
ENDBRANCH   4  17
ENDBRANCH   9  16
BRANCH  10  15
ATOM     15  C   UNL     1      -1.307  -1.687  23.624  0.00  0.00    +0.164 C 
BRANCH  15   3
ATOM      3  N   UNL     1       0.036  -1.163  23.199  0.00  0.00    -0.250 N 
ATOM      5  N   UNL     1       0.193  -0.561  22.010  0.00  0.00    -0.065 NA
ATOM      6  N   UNL     1       1.469  -0.207  21.911  0.00  0.00    -0.128 NA
ATOM     18  C   UNL     1       1.205  -1.212  23.893  0.00  0.00    +0.140 A 
ATOM     20  C   UNL     1       2.104  -0.599  23.057  0.00  0.00    +0.131 A 
BRANCH  20  22
ATOM      7  N   UNL     1       4.151  -1.462  23.830  0.00  0.00    -0.253 NA
ATOM     22  C   UNL     1       3.490  -0.395  23.329  0.00  0.00    +0.092 A 
ATOM     24  C   UNL     1       4.078   0.834  23.080  0.00  0.00    +0.030 A 
ATOM     25  C   UNL     1       5.432   0.978  23.364  0.00  0.00    +0.004 A 
ATOM     26  C   UNL     1       5.465  -1.286  24.094  0.00  0.00    +0.111 A 
ATOM     27  C   UNL     1       6.145  -0.097  23.881  0.00  0.00    +0.020 A 
ENDBRANCH  20  22
ENDBRANCH  15   3
ENDBRANCH  10  15
TORSDOF 6
ENDMDL
