MODEL 1
REMARK VINA RESULT:      -1.8      0.000      0.000
REMARK  Name = 28963185
REMARK  10 active torsions:
REMARK  status: ('A' for Active; 'I' for Inactive)
REMARK    1  A    between atoms: S_1  and  N_6
REMARK    2  A    between atoms: S_1  and  C_24
REMARK    3  A    between atoms: O_2  and  C_11
REMARK    4  A    between atoms: N_6  and  C_15
REMARK    5  A    between atoms: N_7  and  C_23
REMARK    6  A    between atoms: C_8  and  C_18
REMARK    7  A    between atoms: C_10  and  C_20
REMARK    8  A    between atoms: C_13  and  C_19
REMARK    9  A    between atoms: C_19  and  C_21
REMARK   10  A    between atoms: C_19  and  C_22
REMARK                            x       y       z     vdW  Elec       q    Type
REMARK                         _______ _______ _______ _____ _____    ______ ____
ROOT
ATOM      8  C   UNL     1      -2.054  -0.840  25.139  0.00  0.00    -0.027 C 
ATOM      9  C   UNL     1      -2.207   0.303  24.079  0.00  0.00    +0.028 C 
ATOM     10  C   UNL     1      -0.838   1.042  23.853  0.00  0.00    +0.011 C 
ATOM     11  C   UNL     1      -3.416   1.222  24.413  0.00  0.00    +0.122 C 
ATOM     12  C   UNL     1      -3.387  -1.618  25.254  0.00  0.00    +0.007 C 
ATOM     13  C   UNL     1      -4.726   0.428  24.632  0.00  0.00    +0.029 C 
ATOM     14  C   UNL     1      -0.971  -1.834  24.657  0.00  0.00    +0.008 C 
ATOM     15  C   UNL     1       0.257   0.020  23.444  0.00  0.00    +0.079 C 
ATOM     16  C   UNL     1      -4.565  -0.726  25.621  0.00  0.00    +0.007 C 
ATOM     17  C   UNL     1       0.373  -1.169  24.396  0.00  0.00    +0.021 C 
ATOM     18  C   UNL     1      -1.667  -0.302  26.540  0.00  0.00    +0.011 C 
ATOM     20  C   UNL     1      -0.913   2.161  22.801  0.00  0.00    +0.009 C 
ENDROOT
BRANCH  11   2
ATOM      2  O   UNL     1      -3.658   2.109  23.318  0.00  0.00    -0.391 OA
ATOM     31  H   UNL     1      -4.619   2.160  23.176  0.00  0.00    +0.210 HD
ENDBRANCH  11   2
BRANCH  15   6
ATOM      6  N   UNL     1       1.594   0.672  23.403  0.00  0.00    -0.191 NA
ATOM     30  H   UNL     1       1.806   1.379  24.115  0.00  0.00    +0.148 HD
BRANCH   6   1
ATOM      1  S   UNL     1       2.833  -0.058  22.496  0.00  0.00    +0.027 S 
ATOM      4  O   UNL     1       2.403  -0.248  21.125  0.00  0.00    -0.158 OA
ATOM      5  O   UNL     1       3.362  -1.167  23.268  0.00  0.00    -0.158 OA
ATOM     24  C   UNL     1       4.059   1.230  22.512  0.00  0.00    +0.214 C 
ENDBRANCH   6   1
ENDBRANCH  15   6
BRANCH  13  19
ATOM     19  C   UNL     1      -5.873   1.337  25.088  0.00  0.00    +0.077 C 
ATOM     21  C   UNL     1      -6.538   1.989  23.881  0.00  0.00    +0.017 C 
BRANCH  19  22
ATOM      3  O   UNL     1      -5.815   2.531  27.194  0.00  0.00    -0.276 OA
ATOM      7  N   UNL     1      -4.309   3.133  25.537  0.00  0.00    -0.312 N 
ATOM     22  C   UNL     1      -5.349   2.384  26.067  0.00  0.00    +0.216 C 
ATOM     32  H   UNL     1      -3.974   2.930  24.602  0.00  0.00    +0.149 HD
BRANCH   7  23
ATOM     23  C   UNL     1      -3.649   4.188  26.275  0.00  0.00    +0.073 C 
ATOM     25  C   UNL     1      -2.458   3.642  27.070  0.00  0.00    +0.022 C 
ATOM     26  C   UNL     1      -3.222   5.327  25.345  0.00  0.00    +0.022 C 
ATOM     27  C   UNL     1      -1.282   3.258  26.171  0.00  0.00    +0.002 C 
ATOM     28  C   UNL     1      -2.044   4.939  24.449  0.00  0.00    +0.002 C 
ATOM     29  C   UNL     1      -0.868   4.411  25.262  0.00  0.00    +0.000 C 
ENDBRANCH   7  23
ENDBRANCH  19  22
ENDBRANCH  13  19
TORSDOF 6
ENDMDL
MODEL 2
REMARK VINA RESULT:      -0.2      2.596      6.673
REMARK  Name = 28963185
REMARK  10 active torsions:
REMARK  status: ('A' for Active; 'I' for Inactive)
REMARK    1  A    between atoms: S_1  and  N_6
REMARK    2  A    between atoms: S_1  and  C_24
REMARK    3  A    between atoms: O_2  and  C_11
REMARK    4  A    between atoms: N_6  and  C_15
REMARK    5  A    between atoms: N_7  and  C_23
REMARK    6  A    between atoms: C_8  and  C_18
REMARK    7  A    between atoms: C_10  and  C_20
REMARK    8  A    between atoms: C_13  and  C_19
REMARK    9  A    between atoms: C_19  and  C_21
REMARK   10  A    between atoms: C_19  and  C_22
REMARK                            x       y       z     vdW  Elec       q    Type
REMARK                         _______ _______ _______ _____ _____    ______ ____
ROOT
ATOM      8  C   UNL     1      -0.814   3.207  25.060  0.00  0.00    -0.027 C 
ATOM      9  C   UNL     1      -1.507   2.639  23.775  0.00  0.00    +0.028 C 
ATOM     10  C   UNL     1      -3.061   2.872  23.828  0.00  0.00    +0.011 C 
ATOM     11  C   UNL     1      -1.059   1.176  23.494  0.00  0.00    +0.122 C 
ATOM     12  C   UNL     1       0.720   3.064  24.925  0.00  0.00    +0.007 C 
ATOM     13  C   UNL     1       0.480   1.019  23.467  0.00  0.00    +0.029 C 
ATOM     14  C   UNL     1      -1.136   4.716  25.181  0.00  0.00    +0.008 C 
ATOM     15  C   UNL     1      -3.366   4.381  24.027  0.00  0.00    +0.079 C 
ATOM     16  C   UNL     1       1.164   1.627  24.690  0.00  0.00    +0.007 C 
ATOM     17  C   UNL     1      -2.630   5.005  25.211  0.00  0.00    +0.021 C 
ATOM     18  C   UNL     1      -1.272   2.482  26.350  0.00  0.00    +0.011 C 
ATOM     20  C   UNL     1      -3.800   2.359  22.581  0.00  0.00    +0.009 C 
ENDROOT
BRANCH  11   2
ATOM      2  O   UNL     1      -1.532   0.771  22.208  0.00  0.00    -0.391 OA
ATOM     31  H   UNL     1      -0.946   0.068  21.878  0.00  0.00    +0.210 HD
ENDBRANCH  11   2
BRANCH  15   6
ATOM      6  N   UNL     1      -4.820   4.596  24.260  0.00  0.00    -0.191 NA
ATOM     30  H   UNL     1      -5.390   4.921  23.472  0.00  0.00    +0.148 HD
BRANCH   6   1
ATOM      1  S   UNL     1      -5.539   3.903  25.636  0.00  0.00    +0.027 S 
ATOM      4  O   UNL     1      -6.674   4.700  26.061  0.00  0.00    -0.158 OA
ATOM      5  O   UNL     1      -4.484   3.558  26.570  0.00  0.00    -0.158 OA
ATOM     24  C   UNL     1      -6.161   2.383  24.955  0.00  0.00    +0.214 C 
ENDBRANCH   6   1
ENDBRANCH  15   6
BRANCH  13  19
ATOM     19  C   UNL     1       0.900  -0.448  23.321  0.00  0.00    +0.077 C 
ATOM     21  C   UNL     1       0.669  -0.921  21.889  0.00  0.00    +0.017 C 
BRANCH  19  22
ATOM      3  O   UNL     1       0.678  -1.868  25.270  0.00  0.00    -0.276 OA
ATOM      7  N   UNL     1      -1.220  -1.385  24.029  0.00  0.00    -0.312 N 
ATOM     22  C   UNL     1       0.134  -1.310  24.320  0.00  0.00    +0.216 C 
ATOM     32  H   UNL     1      -1.588  -0.875  23.234  0.00  0.00    +0.149 HD
BRANCH   7  23
ATOM     23  C   UNL     1      -2.152  -2.145  24.832  0.00  0.00    +0.073 C 
ATOM     25  C   UNL     1      -2.698  -1.301  25.989  0.00  0.00    +0.022 C 
ATOM     26  C   UNL     1      -3.287  -2.711  23.973  0.00  0.00    +0.022 C 
ATOM     27  C   UNL     1      -3.672  -0.222  25.516  0.00  0.00    +0.002 C 
ATOM     28  C   UNL     1      -4.260  -1.628  23.503  0.00  0.00    +0.002 C 
ATOM     29  C   UNL     1      -4.799  -0.810  24.672  0.00  0.00    +0.000 C 
ENDBRANCH   7  23
ENDBRANCH  19  22
ENDBRANCH  13  19
TORSDOF 6
ENDMDL
