MODEL 1
REMARK VINA RESULT:      -5.5      0.000      0.000
REMARK  Name = 75536804
REMARK  7 active torsions:
REMARK  status: ('A' for Active; 'I' for Inactive)
REMARK    1  A    between atoms: O_2  and  C_9
REMARK    2  A    between atoms: N_4  and  C_8
REMARK    3  A    between atoms: N_4  and  C_13
REMARK    4  A    between atoms: N_5  and  C_12
REMARK    5  A    between atoms: C_10  and  C_12
REMARK    6  A    between atoms: C_13  and  C_14
REMARK    7  A    between atoms: C_15  and  C_18
REMARK                            x       y       z     vdW  Elec       q    Type
REMARK                         _______ _______ _______ _____ _____    ______ ____
ROOT
ATOM      1  O   UNL     1      -4.216   3.672  26.812  0.00  0.00    -0.371 OA
ATOM      8  C   UNL     1      -2.392   4.365  25.459  0.00  0.00    +0.111 C 
ATOM      9  C   UNL     1      -3.461   3.756  24.572  0.00  0.00    +0.164 C 
ATOM     10  C   UNL     1      -4.686   3.871  25.468  0.00  0.00    +0.165 C 
ATOM     11  C   UNL     1      -2.786   3.823  26.822  0.00  0.00    +0.181 C 
ENDROOT
BRANCH   9   2
ATOM      2  O   UNL     1      -3.629   4.460  23.356  0.00  0.00    -0.388 OA
ATOM     26  H   UNL     1      -4.201   5.227  23.524  0.00  0.00    +0.210 HD
ENDBRANCH   9   2
BRANCH   8   4
ATOM      4  N   UNL     1      -1.037   4.002  25.075  0.00  0.00    -0.305 NA
ATOM     25  H   UNL     1      -0.428   4.812  25.196  0.00  0.00    +0.123 HD
BRANCH   4  13
ATOM     13  C   UNL     1      -0.534   2.906  25.893  0.00  0.00    +0.116 C 
BRANCH  13  14
ATOM      6  N   UNL     1       0.402  -0.562  23.529  0.00  0.00    -0.263 NA
ATOM     14  C   UNL     1      -0.207   1.692  25.065  0.00  0.00    -0.031 A 
ATOM     16  C   UNL     1      -0.733   0.452  25.408  0.00  0.00    +0.024 A 
ATOM     17  C   UNL     1       0.623   1.807  23.956  0.00  0.00    +0.024 A 
ATOM     19  C   UNL     1      -0.401  -0.635  24.614  0.00  0.00    +0.111 A 
ATOM     20  C   UNL     1       0.894   0.660  23.227  0.00  0.00    +0.111 A 
ENDBRANCH  13  14
ENDBRANCH   4  13
ENDBRANCH   8   4
BRANCH  10  12
ATOM     12  C   UNL     1      -5.765   2.853  25.145  0.00  0.00    +0.138 C 
BRANCH  12   5
ATOM      3  O   UNL     1      -4.037   1.426  23.351  0.00  0.00    -0.270 OA
ATOM      5  N   UNL     1      -5.283   1.512  25.306  0.00  0.00    -0.309 N 
ATOM     15  C   UNL     1      -4.445   0.897  24.381  0.00  0.00    +0.244 C 
ATOM     27  H   UNL     1      -5.637   0.993  26.102  0.00  0.00    +0.149 HD
BRANCH  15  18
ATOM      7  N   UNL     1      -3.317  -3.144  25.238  0.00  0.00    -0.263 NA
ATOM     18  C   UNL     1      -4.055  -0.505  24.680  0.00  0.00    +0.040 A 
ATOM     21  C   UNL     1      -3.621  -0.854  25.953  0.00  0.00    +0.033 A 
ATOM     22  C   UNL     1      -4.121  -1.475  23.685  0.00  0.00    +0.033 A 
ATOM     23  C   UNL     1      -3.267  -2.174  26.179  0.00  0.00    +0.111 A 
ATOM     24  C   UNL     1      -3.744  -2.767  24.012  0.00  0.00    +0.111 A 
ENDBRANCH  15  18
ENDBRANCH  12   5
ENDBRANCH  10  12
TORSDOF 7
ENDMDL
MODEL 2
REMARK VINA RESULT:      -5.3      1.975      5.002
REMARK  Name = 75536804
REMARK  7 active torsions:
REMARK  status: ('A' for Active; 'I' for Inactive)
REMARK    1  A    between atoms: O_2  and  C_9
REMARK    2  A    between atoms: N_4  and  C_8
REMARK    3  A    between atoms: N_4  and  C_13
REMARK    4  A    between atoms: N_5  and  C_12
REMARK    5  A    between atoms: C_10  and  C_12
REMARK    6  A    between atoms: C_13  and  C_14
REMARK    7  A    between atoms: C_15  and  C_18
REMARK                            x       y       z     vdW  Elec       q    Type
REMARK                         _______ _______ _______ _____ _____    ______ ____
ROOT
ATOM      1  O   UNL     1      -1.670  -2.458  23.780  0.00  0.00    -0.371 OA
ATOM      8  C   UNL     1      -0.038  -0.983  24.675  0.00  0.00    +0.111 C 
ATOM      9  C   UNL     1      -1.290  -0.910  25.528  0.00  0.00    +0.164 C 
ATOM     10  C   UNL     1      -1.967  -2.225  25.167  0.00  0.00    +0.165 C 
ATOM     11  C   UNL     1      -0.580  -1.602  23.398  0.00  0.00    +0.181 C 
ENDROOT
BRANCH   9   2
ATOM      2  O   UNL     1      -1.005  -0.826  26.911  0.00  0.00    -0.388 OA
ATOM     26  H   UNL     1      -0.448  -1.584  27.155  0.00  0.00    +0.210 HD
ENDBRANCH   9   2
BRANCH   8   4
ATOM      4  N   UNL     1       0.594   0.308  24.454  0.00  0.00    -0.305 NA
ATOM     25  H   UNL     1       1.492   0.164  23.990  0.00  0.00    +0.123 HD
BRANCH   4  13
ATOM     13  C   UNL     1      -0.237   1.165  23.618  0.00  0.00    +0.116 C 
BRANCH  13  14
ATOM      6  N   UNL     1      -1.410   4.756  25.674  0.00  0.00    -0.263 NA
ATOM     14  C   UNL     1      -0.648   2.422  24.338  0.00  0.00    -0.031 A 
ATOM     16  C   UNL     1      -0.440   3.663  23.748  0.00  0.00    +0.024 A 
ATOM     17  C   UNL     1      -1.237   2.345  25.595  0.00  0.00    +0.024 A 
ATOM     19  C   UNL     1      -0.835   4.790  24.451  0.00  0.00    +0.111 A 
ATOM     20  C   UNL     1      -1.597   3.531  26.216  0.00  0.00    +0.111 A 
ENDBRANCH  13  14
ENDBRANCH   4  13
ENDBRANCH   8   4
BRANCH  10  12
ATOM     12  C   UNL     1      -3.472  -2.202  25.374  0.00  0.00    +0.138 C 
BRANCH  12   5
ATOM      3  O   UNL     1      -3.920  -0.307  23.264  0.00  0.00    -0.270 OA
ATOM      5  N   UNL     1      -3.959  -0.861  25.516  0.00  0.00    -0.309 N 
ATOM     15  C   UNL     1      -4.146  -0.008  24.433  0.00  0.00    +0.244 C 
ATOM     27  H   UNL     1      -4.102  -0.526  26.463  0.00  0.00    +0.149 HD
BRANCH  15  18
ATOM      7  N   UNL     1      -5.545   3.933  25.351  0.00  0.00    -0.263 NA
ATOM     18  C   UNL     1      -4.633   1.359  24.750  0.00  0.00    +0.040 A 
ATOM     21  C   UNL     1      -4.161   2.453  24.033  0.00  0.00    +0.033 A 
ATOM     22  C   UNL     1      -5.560   1.552  25.768  0.00  0.00    +0.033 A 
ATOM     23  C   UNL     1      -4.643   3.707  24.370  0.00  0.00    +0.111 A 
ATOM     24  C   UNL     1      -5.981   2.846  26.027  0.00  0.00    +0.111 A 
ENDBRANCH  15  18
ENDBRANCH  12   5
ENDBRANCH  10  12
TORSDOF 7
ENDMDL
MODEL 3
REMARK VINA RESULT:      -5.3      1.455      4.702
REMARK  Name = 75536804
REMARK  7 active torsions:
REMARK  status: ('A' for Active; 'I' for Inactive)
REMARK    1  A    between atoms: O_2  and  C_9
REMARK    2  A    between atoms: N_4  and  C_8
REMARK    3  A    between atoms: N_4  and  C_13
REMARK    4  A    between atoms: N_5  and  C_12
REMARK    5  A    between atoms: C_10  and  C_12
REMARK    6  A    between atoms: C_13  and  C_14
REMARK    7  A    between atoms: C_15  and  C_18
REMARK                            x       y       z     vdW  Elec       q    Type
REMARK                         _______ _______ _______ _____ _____    ______ ____
ROOT
ATOM      1  O   UNL     1      -3.064   4.143  23.680  0.00  0.00    -0.371 OA
ATOM      8  C   UNL     1      -4.480   3.113  25.284  0.00  0.00    +0.111 C 
ATOM      9  C   UNL     1      -3.145   3.426  25.933  0.00  0.00    +0.164 C 
ATOM     10  C   UNL     1      -2.609   4.500  24.996  0.00  0.00    +0.165 C 
ATOM     11  C   UNL     1      -4.120   3.176  23.809  0.00  0.00    +0.181 C 
ENDROOT
BRANCH   9   2
ATOM      2  O   UNL     1      -3.279   3.902  27.258  0.00  0.00    -0.388 OA
ATOM     26  H   UNL     1      -3.444   3.142  27.841  0.00  0.00    +0.210 HD
ENDBRANCH   9   2
BRANCH   8   4
ATOM      4  N   UNL     1      -5.033   1.827  25.678  0.00  0.00    -0.305 NA
ATOM     25  H   UNL     1      -5.975   1.967  26.044  0.00  0.00    +0.123 HD
BRANCH   4  13
ATOM     13  C   UNL     1      -5.098   0.913  24.544  0.00  0.00    +0.116 C 
BRANCH  13  14
ATOM      6  N   UNL     1      -2.370  -2.383  24.982  0.00  0.00    -0.263 NA
ATOM     14  C   UNL     1      -4.143  -0.240  24.697  0.00  0.00    -0.031 A 
ATOM     16  C   UNL     1      -4.370  -1.430  24.014  0.00  0.00    +0.024 A 
ATOM     17  C   UNL     1      -3.030  -0.120  25.522  0.00  0.00    +0.024 A 
ATOM     19  C   UNL     1      -3.462  -2.461  24.190  0.00  0.00    +0.111 A 
ATOM     20  C   UNL     1      -2.182  -1.210  25.629  0.00  0.00    +0.111 A 
ENDBRANCH  13  14
ENDBRANCH   4  13
ENDBRANCH   8   4
BRANCH  10  12
ATOM     12  C   UNL     1      -1.094   4.604  25.005  0.00  0.00    +0.138 C 
BRANCH  12   5
ATOM      3  O   UNL     1       0.388   2.400  26.094  0.00  0.00    -0.270 OA
ATOM      5  N   UNL     1      -0.492   3.530  24.269  0.00  0.00    -0.309 N 
ATOM     15  C   UNL     1       0.212   2.499  24.882  0.00  0.00    +0.244 C 
ATOM     27  H   UNL     1      -0.542   3.587  23.258  0.00  0.00    +0.149 HD
BRANCH  15  18
ATOM      7  N   UNL     1       1.903  -0.451  22.281  0.00  0.00    -0.263 NA
ATOM     18  C   UNL     1       0.798   1.476  23.979  0.00  0.00    +0.040 A 
ATOM     21  C   UNL     1       0.022   0.413  23.530  0.00  0.00    +0.033 A 
ATOM     22  C   UNL     1       2.126   1.576  23.579  0.00  0.00    +0.033 A 
ATOM     23  C   UNL     1       0.616  -0.515  22.691  0.00  0.00    +0.111 A 
ATOM     24  C   UNL     1       2.626   0.595  22.738  0.00  0.00    +0.111 A 
ENDBRANCH  15  18
ENDBRANCH  12   5
ENDBRANCH  10  12
TORSDOF 7
ENDMDL
MODEL 4
REMARK VINA RESULT:      -5.3      2.622      5.147
REMARK  Name = 75536804
REMARK  7 active torsions:
REMARK  status: ('A' for Active; 'I' for Inactive)
REMARK    1  A    between atoms: O_2  and  C_9
REMARK    2  A    between atoms: N_4  and  C_8
REMARK    3  A    between atoms: N_4  and  C_13
REMARK    4  A    between atoms: N_5  and  C_12
REMARK    5  A    between atoms: C_10  and  C_12
REMARK    6  A    between atoms: C_13  and  C_14
REMARK    7  A    between atoms: C_15  and  C_18
REMARK                            x       y       z     vdW  Elec       q    Type
REMARK                         _______ _______ _______ _____ _____    ______ ____
ROOT
ATOM      1  O   UNL     1      -1.730  -2.692  23.933  0.00  0.00    -0.371 OA
ATOM      8  C   UNL     1      -0.035  -1.103  24.427  0.00  0.00    +0.111 C 
ATOM      9  C   UNL     1      -1.237  -0.833  25.312  0.00  0.00    +0.164 C 
ATOM     10  C   UNL     1      -1.948  -2.179  25.259  0.00  0.00    +0.165 C 
ATOM     11  C   UNL     1      -0.653  -1.954  23.331  0.00  0.00    +0.181 C 
ENDROOT
BRANCH   9   2
ATOM      2  O   UNL     1      -0.875  -0.481  26.633  0.00  0.00    -0.388 OA
ATOM     26  H   UNL     1      -0.591   0.448  26.634  0.00  0.00    +0.210 HD
ENDBRANCH   9   2
BRANCH   8   4
ATOM      4  N   UNL     1       0.598   0.104  23.920  0.00  0.00    -0.305 NA
ATOM     25  H   UNL     1       1.199   0.495  24.646  0.00  0.00    +0.123 HD
BRANCH   4  13
ATOM     13  C   UNL     1       1.408  -0.183  22.742  0.00  0.00    +0.116 C 
BRANCH  13  14
ATOM      6  N   UNL     1       5.611  -0.194  23.653  0.00  0.00    -0.263 NA
ATOM     14  C   UNL     1       2.879  -0.187  23.060  0.00  0.00    -0.031 A 
ATOM     16  C   UNL     1       3.475  -1.325  23.593  0.00  0.00    +0.024 A 
ATOM     17  C   UNL     1       3.647   0.947  22.824  0.00  0.00    +0.024 A 
ATOM     19  C   UNL     1       4.832  -1.277  23.869  0.00  0.00    +0.111 A 
ATOM     20  C   UNL     1       4.997   0.893  23.135  0.00  0.00    +0.111 A 
ENDBRANCH  13  14
ENDBRANCH   4  13
ENDBRANCH   8   4
BRANCH  10  12
ATOM     12  C   UNL     1      -3.438  -2.083  25.534  0.00  0.00    +0.138 C 
BRANCH  12   5
ATOM      3  O   UNL     1      -3.966  -0.270  23.372  0.00  0.00    -0.270 OA
ATOM      5  N   UNL     1      -3.862  -0.717  25.645  0.00  0.00    -0.309 N 
ATOM     15  C   UNL     1      -4.095   0.092  24.538  0.00  0.00    +0.244 C 
ATOM     27  H   UNL     1      -3.922  -0.335  26.583  0.00  0.00    +0.149 HD
BRANCH  15  18
ATOM      7  N   UNL     1      -5.270   4.125  25.362  0.00  0.00    -0.263 NA
ATOM     18  C   UNL     1      -4.503   1.492  24.822  0.00  0.00    +0.040 A 
ATOM     21  C   UNL     1      -3.712   2.551  24.393  0.00  0.00    +0.033 A 
ATOM     22  C   UNL     1      -5.677   1.748  25.522  0.00  0.00    +0.033 A 
ATOM     23  C   UNL     1      -4.136   3.837  24.685  0.00  0.00    +0.111 A 
ATOM     24  C   UNL     1      -6.013   3.070  25.764  0.00  0.00    +0.111 A 
ENDBRANCH  15  18
ENDBRANCH  12   5
ENDBRANCH  10  12
TORSDOF 7
ENDMDL
MODEL 5
REMARK VINA RESULT:      -4.8      2.003      4.503
REMARK  Name = 75536804
REMARK  7 active torsions:
REMARK  status: ('A' for Active; 'I' for Inactive)
REMARK    1  A    between atoms: O_2  and  C_9
REMARK    2  A    between atoms: N_4  and  C_8
REMARK    3  A    between atoms: N_4  and  C_13
REMARK    4  A    between atoms: N_5  and  C_12
REMARK    5  A    between atoms: C_10  and  C_12
REMARK    6  A    between atoms: C_13  and  C_14
REMARK    7  A    between atoms: C_15  and  C_18
REMARK                            x       y       z     vdW  Elec       q    Type
REMARK                         _______ _______ _______ _____ _____    ______ ____
ROOT
ATOM      1  O   UNL     1       0.029   3.371  23.604  0.00  0.00    -0.371 OA
ATOM      8  C   UNL     1      -0.913   3.869  25.727  0.00  0.00    +0.111 C 
ATOM      9  C   UNL     1      -0.472   2.418  25.711  0.00  0.00    +0.164 C 
ATOM     10  C   UNL     1       0.533   2.430  24.566  0.00  0.00    +0.165 C 
ATOM     11  C   UNL     1      -0.973   4.182  24.241  0.00  0.00    +0.181 C 
ENDROOT
BRANCH   9   2
ATOM      2  O   UNL     1       0.122   2.013  26.929  0.00  0.00    -0.388 OA
ATOM     26  H   UNL     1      -0.525   1.481  27.422  0.00  0.00    +0.210 HD
ENDBRANCH   9   2
BRANCH   8   4
ATOM      4  N   UNL     1      -2.181   4.086  26.404  0.00  0.00    -0.305 NA
ATOM     25  H   UNL     1      -2.057   4.801  27.122  0.00  0.00    +0.123 HD
BRANCH   4  13
ATOM     13  C   UNL     1      -3.207   4.531  25.468  0.00  0.00    +0.116 C 
BRANCH  13  14
ATOM      6  N   UNL     1      -6.303   1.588  24.970  0.00  0.00    -0.263 NA
ATOM     14  C   UNL     1      -4.291   3.501  25.293  0.00  0.00    -0.031 A 
ATOM     16  C   UNL     1      -5.246   3.318  26.287  0.00  0.00    +0.024 A 
ATOM     17  C   UNL     1      -4.340   2.729  24.138  0.00  0.00    +0.024 A 
ATOM     19  C   UNL     1      -6.222   2.357  26.078  0.00  0.00    +0.111 A 
ATOM     20  C   UNL     1      -5.357   1.794  24.026  0.00  0.00    +0.111 A 
ENDBRANCH  13  14
ENDBRANCH   4  13
ENDBRANCH   8   4
BRANCH  10  12
ATOM     12  C   UNL     1       0.714   1.072  23.911  0.00  0.00    +0.138 C 
BRANCH  12   5
ATOM      3  O   UNL     1       0.115  -1.390  25.262  0.00  0.00    -0.270 OA
ATOM      5  N   UNL     1      -0.523   0.347  23.862  0.00  0.00    -0.309 N 
ATOM     15  C   UNL     1      -0.726  -0.844  24.552  0.00  0.00    +0.244 C 
ATOM     27  H   UNL     1      -1.238   0.707  23.240  0.00  0.00    +0.149 HD
BRANCH  15  18
ATOM      7  N   UNL     1      -4.553  -2.696  24.052  0.00  0.00    -0.263 NA
ATOM     18  C   UNL     1      -2.054  -1.487  24.377  0.00  0.00    +0.040 A 
ATOM     21  C   UNL     1      -3.154  -0.726  23.999  0.00  0.00    +0.033 A 
ATOM     22  C   UNL     1      -2.202  -2.852  24.592  0.00  0.00    +0.033 A 
ATOM     23  C   UNL     1      -4.370  -1.372  23.852  0.00  0.00    +0.111 A 
ATOM     24  C   UNL     1      -3.461  -3.404  24.418  0.00  0.00    +0.111 A 
ENDBRANCH  15  18
ENDBRANCH  12   5
ENDBRANCH  10  12
TORSDOF 7
ENDMDL
MODEL 6
REMARK VINA RESULT:      -4.8      2.815      6.119
REMARK  Name = 75536804
REMARK  7 active torsions:
REMARK  status: ('A' for Active; 'I' for Inactive)
REMARK    1  A    between atoms: O_2  and  C_9
REMARK    2  A    between atoms: N_4  and  C_8
REMARK    3  A    between atoms: N_4  and  C_13
REMARK    4  A    between atoms: N_5  and  C_12
REMARK    5  A    between atoms: C_10  and  C_12
REMARK    6  A    between atoms: C_13  and  C_14
REMARK    7  A    between atoms: C_15  and  C_18
REMARK                            x       y       z     vdW  Elec       q    Type
REMARK                         _______ _______ _______ _____ _____    ______ ____
ROOT
ATOM      1  O   UNL     1      -2.071   2.021  22.526  0.00  0.00    -0.371 OA
ATOM      8  C   UNL     1      -2.805   2.431  24.748  0.00  0.00    +0.111 C 
ATOM      9  C   UNL     1      -1.774   1.318  24.766  0.00  0.00    +0.164 C 
ATOM     10  C   UNL     1      -1.063   1.555  23.440  0.00  0.00    +0.165 C 
ATOM     11  C   UNL     1      -3.220   2.434  23.286  0.00  0.00    +0.181 C 
ENDROOT
BRANCH   9   2
ATOM      2  O   UNL     1      -0.887   1.412  25.864  0.00  0.00    -0.388 OA
ATOM     26  H   UNL     1      -0.939   2.313  26.222  0.00  0.00    +0.210 HD
ENDBRANCH   9   2
BRANCH   8   4
ATOM      4  N   UNL     1      -3.920   2.209  25.654  0.00  0.00    -0.305 NA
ATOM     25  H   UNL     1      -4.377   3.101  25.845  0.00  0.00    +0.123 HD
BRANCH   4  13
ATOM     13  C   UNL     1      -4.895   1.294  25.072  0.00  0.00    +0.116 C 
BRANCH  13  14
ATOM      6  N   UNL     1      -3.391  -2.730  24.868  0.00  0.00    -0.263 NA
ATOM     14  C   UNL     1      -4.369  -0.115  25.001  0.00  0.00    -0.031 A 
ATOM     16  C   UNL     1      -3.756  -0.688  26.109  0.00  0.00    +0.024 A 
ATOM     17  C   UNL     1      -4.494  -0.847  23.826  0.00  0.00    +0.024 A 
ATOM     19  C   UNL     1      -3.288  -1.987  25.992  0.00  0.00    +0.111 A 
ATOM     20  C   UNL     1      -3.993  -2.139  23.811  0.00  0.00    +0.111 A 
ENDBRANCH  13  14
ENDBRANCH   4  13
ENDBRANCH   8   4
BRANCH  10  12
ATOM     12  C   UNL     1      -0.401   0.308  22.882  0.00  0.00    +0.138 C 
BRANCH  12   5
ATOM      3  O   UNL     1       1.846  -0.325  21.211  0.00  0.00    -0.270 OA
ATOM      5  N   UNL     1       0.972   0.220  23.289  0.00  0.00    -0.309 N 
ATOM     15  C   UNL     1       2.000  -0.096  22.407  0.00  0.00    +0.244 C 
ATOM     27  H   UNL     1       1.162   0.331  24.279  0.00  0.00    +0.149 HD
BRANCH  15  18
ATOM      7  N   UNL     1       5.933  -0.325  24.084  0.00  0.00    -0.263 NA
ATOM     18  C   UNL     1       3.365  -0.174  22.990  0.00  0.00    +0.040 A 
ATOM     21  C   UNL     1       4.213   0.925  22.934  0.00  0.00    +0.033 A 
ATOM     22  C   UNL     1       3.799  -1.350  23.593  0.00  0.00    +0.033 A 
ATOM     23  C   UNL     1       5.476   0.799  23.490  0.00  0.00    +0.111 A 
ATOM     24  C   UNL     1       5.080  -1.374  24.120  0.00  0.00    +0.111 A 
ENDBRANCH  15  18
ENDBRANCH  12   5
ENDBRANCH  10  12
TORSDOF 7
ENDMDL
MODEL 7
REMARK VINA RESULT:      -4.2     16.901     19.668
REMARK  Name = 75536804
REMARK  7 active torsions:
REMARK  status: ('A' for Active; 'I' for Inactive)
REMARK    1  A    between atoms: O_2  and  C_9
REMARK    2  A    between atoms: N_4  and  C_8
REMARK    3  A    between atoms: N_4  and  C_13
REMARK    4  A    between atoms: N_5  and  C_12
REMARK    5  A    between atoms: C_10  and  C_12
REMARK    6  A    between atoms: C_13  and  C_14
REMARK    7  A    between atoms: C_15  and  C_18
REMARK                            x       y       z     vdW  Elec       q    Type
REMARK                         _______ _______ _______ _____ _____    ______ ____
ROOT
ATOM      1  O   UNL     1      13.369  -9.116  30.426  0.00  0.00    -0.371 OA
ATOM      8  C   UNL     1      11.596  -8.025  31.571  0.00  0.00    +0.111 C 
ATOM      9  C   UNL     1      12.834  -7.149  31.628  0.00  0.00    +0.164 C 
ATOM     10  C   UNL     1      13.640  -7.704  30.461  0.00  0.00    +0.165 C 
ATOM     11  C   UNL     1      12.198  -9.375  31.221  0.00  0.00    +0.181 C 
ENDROOT
BRANCH   9   2
ATOM      2  O   UNL     1      12.540  -5.776  31.460  0.00  0.00    -0.388 OA
ATOM     26  H   UNL     1      11.644  -5.611  31.796  0.00  0.00    +0.210 HD
ENDBRANCH   9   2
BRANCH   8   4
ATOM      4  N   UNL     1      10.838  -8.046  32.811  0.00  0.00    -0.305 NA
ATOM     25  H   UNL     1      10.268  -7.202  32.867  0.00  0.00    +0.123 HD
BRANCH   4  13
ATOM     13  C   UNL     1       9.964  -9.211  32.873  0.00  0.00    +0.116 C 
BRANCH  13  14
ATOM      6  N   UNL     1       6.114  -8.421  31.128  0.00  0.00    -0.263 NA
ATOM     14  C   UNL     1       8.617  -8.934  32.262  0.00  0.00    -0.031 A 
ATOM     16  C   UNL     1       7.813  -7.922  32.774  0.00  0.00    +0.024 A 
ATOM     17  C   UNL     1       8.171  -9.690  31.184  0.00  0.00    +0.024 A 
ATOM     19  C   UNL     1       6.581  -7.708  32.176  0.00  0.00    +0.111 A 
ATOM     20  C   UNL     1       6.923  -9.397  30.657  0.00  0.00    +0.111 A 
ENDBRANCH  13  14
ENDBRANCH   4  13
ENDBRANCH   8   4
BRANCH  10  12
ATOM     12  C   UNL     1      15.134  -7.472  30.599  0.00  0.00    +0.138 C 
BRANCH  12   5
ATOM      3  O   UNL     1      16.475  -5.592  28.893  0.00  0.00    -0.270 OA
ATOM      5  N   UNL     1      15.424  -6.099  30.897  0.00  0.00    -0.309 N 
ATOM     15  C   UNL     1      16.082  -5.257  30.007  0.00  0.00    +0.244 C 
ATOM     27  H   UNL     1      15.186  -5.775  31.829  0.00  0.00    +0.149 HD
BRANCH  15  18
ATOM      7  N   UNL     1      16.801  -1.260  31.363  0.00  0.00    -0.263 NA
ATOM     18  C   UNL     1      16.330  -3.870  30.476  0.00  0.00    +0.040 A 
ATOM     21  C   UNL     1      17.024  -2.973  29.672  0.00  0.00    +0.033 A 
ATOM     22  C   UNL     1      15.871  -3.462  31.724  0.00  0.00    +0.033 A 
ATOM     23  C   UNL     1      17.232  -1.692  30.157  0.00  0.00    +0.111 A 
ATOM     24  C   UNL     1      16.130  -2.160  32.118  0.00  0.00    +0.111 A 
ENDBRANCH  15  18
ENDBRANCH  12   5
ENDBRANCH  10  12
TORSDOF 7
ENDMDL
MODEL 8
REMARK VINA RESULT:      -3.7      3.017      6.849
REMARK  Name = 75536804
REMARK  7 active torsions:
REMARK  status: ('A' for Active; 'I' for Inactive)
REMARK    1  A    between atoms: O_2  and  C_9
REMARK    2  A    between atoms: N_4  and  C_8
REMARK    3  A    between atoms: N_4  and  C_13
REMARK    4  A    between atoms: N_5  and  C_12
REMARK    5  A    between atoms: C_10  and  C_12
REMARK    6  A    between atoms: C_13  and  C_14
REMARK    7  A    between atoms: C_15  and  C_18
REMARK                            x       y       z     vdW  Elec       q    Type
REMARK                         _______ _______ _______ _____ _____    ______ ____
ROOT
ATOM      1  O   UNL     1      -0.810  -0.400  25.638  0.00  0.00    -0.371 OA
ATOM      8  C   UNL     1      -3.056  -1.161  25.773  0.00  0.00    +0.111 C 
ATOM      9  C   UNL     1      -2.570  -1.306  24.343  0.00  0.00    +0.164 C 
ATOM     10  C   UNL     1      -1.061  -1.298  24.544  0.00  0.00    +0.165 C 
ATOM     11  C   UNL     1      -2.048  -0.173  26.335  0.00  0.00    +0.181 C 
ENDROOT
BRANCH   9   2
ATOM      2  O   UNL     1      -3.015  -2.502  23.733  0.00  0.00    -0.388 OA
ATOM     26  H   UNL     1      -3.818  -2.799  24.192  0.00  0.00    +0.210 HD
ENDBRANCH   9   2
BRANCH   8   4
ATOM      4  N   UNL     1      -4.429  -0.691  25.878  0.00  0.00    -0.305 NA
ATOM     25  H   UNL     1      -4.500  -0.045  26.664  0.00  0.00    +0.123 HD
BRANCH   4  13
ATOM     13  C   UNL     1      -4.844  -0.004  24.662  0.00  0.00    +0.116 C 
BRANCH  13  14
ATOM      6  N   UNL     1      -4.468   4.265  25.029  0.00  0.00    -0.263 NA
ATOM     14  C   UNL     1      -4.713   1.490  24.790  0.00  0.00    -0.031 A 
ATOM     16  C   UNL     1      -3.732   2.169  24.075  0.00  0.00    +0.024 A 
ATOM     17  C   UNL     1      -5.571   2.197  25.625  0.00  0.00    +0.024 A 
ATOM     19  C   UNL     1      -3.653   3.544  24.228  0.00  0.00    +0.111 A 
ATOM     20  C   UNL     1      -5.409   3.571  25.709  0.00  0.00    +0.111 A 
ENDBRANCH  13  14
ENDBRANCH   4  13
ENDBRANCH   8   4
BRANCH  10  12
ATOM     12  C   UNL     1      -0.293  -0.840  23.317  0.00  0.00    +0.138 C 
BRANCH  12   5
ATOM      3  O   UNL     1       1.795  -0.270  21.431  0.00  0.00    -0.270 OA
ATOM      5  N   UNL     1       1.099  -0.657  23.610  0.00  0.00    -0.309 N 
ATOM     15  C   UNL     1       2.046  -0.384  22.628  0.00  0.00    +0.244 C 
ATOM     27  H   UNL     1       1.385  -0.804  24.572  0.00  0.00    +0.149 HD
BRANCH  15  18
ATOM      7  N   UNL     1       6.097   0.004  23.958  0.00  0.00    -0.263 NA
ATOM     18  C   UNL     1       3.451  -0.248  23.091  0.00  0.00    +0.040 A 
ATOM     21  C   UNL     1       4.138   0.945  22.898  0.00  0.00    +0.033 A 
ATOM     22  C   UNL     1       4.086  -1.315  23.717  0.00  0.00    +0.033 A 
ATOM     23  C   UNL     1       5.447   1.019  23.345  0.00  0.00    +0.111 A 
ATOM     24  C   UNL     1       5.397  -1.140  24.128  0.00  0.00    +0.111 A 
ENDBRANCH  15  18
ENDBRANCH  12   5
ENDBRANCH  10  12
TORSDOF 7
ENDMDL
MODEL 9
REMARK VINA RESULT:      -3.7      2.276      6.171
REMARK  Name = 75536804
REMARK  7 active torsions:
REMARK  status: ('A' for Active; 'I' for Inactive)
REMARK    1  A    between atoms: O_2  and  C_9
REMARK    2  A    between atoms: N_4  and  C_8
REMARK    3  A    between atoms: N_4  and  C_13
REMARK    4  A    between atoms: N_5  and  C_12
REMARK    5  A    between atoms: C_10  and  C_12
REMARK    6  A    between atoms: C_13  and  C_14
REMARK    7  A    between atoms: C_15  and  C_18
REMARK                            x       y       z     vdW  Elec       q    Type
REMARK                         _______ _______ _______ _____ _____    ______ ____
ROOT
ATOM      1  O   UNL     1      -0.977  -0.528  26.259  0.00  0.00    -0.371 OA
ATOM      8  C   UNL     1      -2.496  -2.150  25.419  0.00  0.00    +0.111 C 
ATOM      9  C   UNL     1      -1.614  -1.666  24.284  0.00  0.00    +0.164 C 
ATOM     10  C   UNL     1      -0.431  -1.095  25.056  0.00  0.00    +0.165 C 
ATOM     11  C   UNL     1      -2.309  -1.041  26.441  0.00  0.00    +0.181 C 
ENDROOT
BRANCH   9   2
ATOM      2  O   UNL     1      -1.221  -2.710  23.414  0.00  0.00    -0.388 OA
ATOM     26  H   UNL     1      -1.386  -2.424  22.500  0.00  0.00    +0.210 HD
ENDBRANCH   9   2
BRANCH   8   4
ATOM      4  N   UNL     1      -3.887  -2.339  25.038  0.00  0.00    -0.305 NA
ATOM     25  H   UNL     1      -4.488  -1.996  25.788  0.00  0.00    +0.123 HD
BRANCH   4  13
ATOM     13  C   UNL     1      -4.199  -1.614  23.813  0.00  0.00    +0.116 C 
BRANCH  13  14
ATOM      6  N   UNL     1      -4.699   2.598  24.528  0.00  0.00    -0.263 NA
ATOM     14  C   UNL     1      -4.373  -0.140  24.063  0.00  0.00    -0.031 A 
ATOM     16  C   UNL     1      -5.320   0.305  24.980  0.00  0.00    +0.024 A 
ATOM     17  C   UNL     1      -3.589   0.782  23.379  0.00  0.00    +0.024 A 
ATOM     19  C   UNL     1      -5.442   1.672  25.174  0.00  0.00    +0.111 A 
ATOM     20  C   UNL     1      -3.789   2.128  23.645  0.00  0.00    +0.111 A 
ENDBRANCH  13  14
ENDBRANCH   4  13
ENDBRANCH   8   4
BRANCH  10  12
ATOM     12  C   UNL     1       0.331  -0.031  24.286  0.00  0.00    +0.138 C 
BRANCH  12   5
ATOM      3  O   UNL     1       0.906   2.049  26.180  0.00  0.00    -0.270 OA
ATOM      5  N   UNL     1      -0.317   1.246  24.380  0.00  0.00    -0.309 N 
ATOM     15  C   UNL     1       0.028   2.197  25.334  0.00  0.00    +0.244 C 
ATOM     27  H   UNL     1      -1.098   1.406  23.753  0.00  0.00    +0.149 HD
BRANCH  15  18
ATOM      7  N   UNL     1      -2.230   5.835  25.286  0.00  0.00    -0.263 NA
ATOM     18  C   UNL     1      -0.756   3.459  25.316  0.00  0.00    +0.040 A 
ATOM     21  C   UNL     1      -0.329   4.536  24.548  0.00  0.00    +0.033 A 
ATOM     22  C   UNL     1      -1.920   3.569  26.069  0.00  0.00    +0.033 A 
ATOM     23  C   UNL     1      -1.094   5.691  24.567  0.00  0.00    +0.111 A 
ATOM     24  C   UNL     1      -2.614   4.766  26.020  0.00  0.00    +0.111 A 
ENDBRANCH  15  18
ENDBRANCH  12   5
ENDBRANCH  10  12
TORSDOF 7
ENDMDL
MODEL 10
REMARK VINA RESULT:      -3.5      2.758      6.217
REMARK  Name = 75536804
REMARK  7 active torsions:
REMARK  status: ('A' for Active; 'I' for Inactive)
REMARK    1  A    between atoms: O_2  and  C_9
REMARK    2  A    between atoms: N_4  and  C_8
REMARK    3  A    between atoms: N_4  and  C_13
REMARK    4  A    between atoms: N_5  and  C_12
REMARK    5  A    between atoms: C_10  and  C_12
REMARK    6  A    between atoms: C_13  and  C_14
REMARK    7  A    between atoms: C_15  and  C_18
REMARK                            x       y       z     vdW  Elec       q    Type
REMARK                         _______ _______ _______ _____ _____    ______ ____
ROOT
ATOM      1  O   UNL     1      -0.724   0.212  25.734  0.00  0.00    -0.371 OA
ATOM      8  C   UNL     1      -1.321   2.386  24.988  0.00  0.00    +0.111 C 
ATOM      9  C   UNL     1      -1.034   1.512  23.781  0.00  0.00    +0.164 C 
ATOM     10  C   UNL     1      -1.202   0.122  24.381  0.00  0.00    +0.165 C 
ATOM     11  C   UNL     1      -0.642   1.601  26.097  0.00  0.00    +0.181 C 
ENDROOT
BRANCH   9   2
ATOM      2  O   UNL     1      -1.936   1.738  22.715  0.00  0.00    -0.388 OA
ATOM     26  H   UNL     1      -2.416   0.912  22.541  0.00  0.00    +0.210 HD
ENDBRANCH   9   2
BRANCH   8   4
ATOM      4  N   UNL     1      -0.811   3.742  24.860  0.00  0.00    -0.305 NA
ATOM     25  H   UNL     1      -0.418   3.863  23.926  0.00  0.00    +0.123 HD
BRANCH   4  13
ATOM     13  C   UNL     1      -1.872   4.723  25.056  0.00  0.00    +0.116 C 
BRANCH  13  14
ATOM      6  N   UNL     1      -5.740   2.863  25.331  0.00  0.00    -0.263 NA
ATOM     14  C   UNL     1      -3.226   4.072  25.152  0.00  0.00    -0.031 A 
ATOM     16  C   UNL     1      -3.850   3.938  26.387  0.00  0.00    +0.024 A 
ATOM     17  C   UNL     1      -3.858   3.603  24.006  0.00  0.00    +0.024 A 
ATOM     19  C   UNL     1      -5.095   3.332  26.422  0.00  0.00    +0.111 A 
ATOM     20  C   UNL     1      -5.103   3.011  24.148  0.00  0.00    +0.111 A 
ENDBRANCH  13  14
ENDBRANCH   4  13
ENDBRANCH   8   4
BRANCH  10  12
ATOM     12  C   UNL     1      -0.431  -0.952  23.634  0.00  0.00    +0.138 C 
BRANCH  12   5
ATOM      3  O   UNL     1       1.485  -0.174  21.641  0.00  0.00    -0.270 OA
ATOM      5  N   UNL     1       0.984  -0.802  23.818  0.00  0.00    -0.309 N 
ATOM     15  C   UNL     1       1.841  -0.420  22.791  0.00  0.00    +0.244 C 
ATOM     27  H   UNL     1       1.354  -1.056  24.727  0.00  0.00    +0.149 HD
BRANCH  15  18
ATOM      7  N   UNL     1       5.997  -0.177  23.790  0.00  0.00    -0.263 NA
ATOM     18  C   UNL     1       3.283  -0.337  23.136  0.00  0.00    +0.040 A 
ATOM     21  C   UNL     1       3.926  -1.422  23.722  0.00  0.00    +0.033 A 
ATOM     22  C   UNL     1       3.997   0.828  22.876  0.00  0.00    +0.033 A 
ATOM     23  C   UNL     1       5.271  -1.292  24.027  0.00  0.00    +0.111 A 
ATOM     24  C   UNL     1       5.339   0.857  23.219  0.00  0.00    +0.111 A 
ENDBRANCH  15  18
ENDBRANCH  12   5
ENDBRANCH  10  12
TORSDOF 7
ENDMDL
