MODEL 1
REMARK VINA RESULT:      -3.1      0.000      0.000
REMARK  Name = 28961668
REMARK  8 active torsions:
REMARK  status: ('A' for Active; 'I' for Inactive)
REMARK    1  A    between atoms: O_2  and  C_11
REMARK    2  A    between atoms: O_3  and  C_18
REMARK    3  A    between atoms: N_5  and  C_9
REMARK    4  A    between atoms: N_6  and  C_19
REMARK    5  A    between atoms: N_7  and  C_15
REMARK    6  A    between atoms: N_8  and  C_21
REMARK    7  A    between atoms: C_10  and  C_15
REMARK    8  A    between atoms: C_12  and  C_18
REMARK                            x       y       z     vdW  Elec       q    Type
REMARK                         _______ _______ _______ _____ _____    ______ ____
ROOT
ATOM      1  O   UNL     1      -2.618   3.692  25.158  0.00  0.00    -0.365 OA
ATOM      9  C   UNL     1      -2.974   1.347  25.356  0.00  0.00    +0.118 C 
ATOM     10  C   UNL     1      -2.023   2.422  24.813  0.00  0.00    +0.155 C 
ATOM     11  C   UNL     1      -4.317   2.060  25.382  0.00  0.00    +0.165 C 
ATOM     12  C   UNL     1      -3.884   3.460  25.803  0.00  0.00    +0.174 C 
ENDROOT
BRANCH   9   5
ATOM      5  N   UNL     1      -2.963   0.063  24.659  0.00  0.00    -0.292 NA
ATOM      6  N   UNL     1      -3.405  -2.790  24.511  0.00  0.00    -0.303 NA
ATOM     13  C   UNL     1      -2.059  -0.884  25.323  0.00  0.00    +0.100 C 
ATOM     14  C   UNL     1      -4.318  -0.496  24.574  0.00  0.00    +0.100 C 
ATOM     16  C   UNL     1      -2.050  -2.233  24.595  0.00  0.00    +0.099 C 
ATOM     17  C   UNL     1      -4.309  -1.844  23.845  0.00  0.00    +0.099 C 
ATOM     19  C   UNL     1      -3.396  -4.076  23.816  0.00  0.00    +0.105 C 
ENDBRANCH   9   5
BRANCH  11   2
ATOM      2  O   UNL     1      -4.916   2.093  24.093  0.00  0.00    -0.388 OA
ATOM     27  H   UNL     1      -5.771   2.547  24.177  0.00  0.00    +0.210 HD
ENDBRANCH  11   2
BRANCH  10  15
ATOM     15  C   UNL     1      -1.787   2.427  23.307  0.00  0.00    +0.139 C 
BRANCH  15   7
ATOM      4  O   UNL     1       0.926   2.331  24.219  0.00  0.00    -0.253 OA
ATOM      7  N   UNL     1      -0.793   1.464  22.937  0.00  0.00    -0.297 N 
ATOM      8  N   UNL     1       1.263   0.423  22.894  0.00  0.00    -0.269 N 
ATOM     20  C   UNL     1       0.524   1.482  23.428  0.00  0.00    +0.304 C 
ATOM     28  H   UNL     1      -1.059   0.725  22.295  0.00  0.00    +0.150 HD
ATOM     30  H   UNL     1       0.778  -0.193  22.248  0.00  0.00    +0.156 HD
BRANCH   8  21
ATOM     21  C   UNL     1       2.619   0.100  23.142  0.00  0.00    +0.035 A 
ATOM     22  C   UNL     1       2.958  -1.168  23.615  0.00  0.00    +0.023 A 
ATOM     23  C   UNL     1       3.615   1.048  22.911  0.00  0.00    +0.023 A 
ATOM     24  C   UNL     1       4.293  -1.486  23.860  0.00  0.00    +0.002 A 
ATOM     25  C   UNL     1       4.951   0.729  23.155  0.00  0.00    +0.002 A 
ATOM     26  C   UNL     1       5.290  -0.538  23.630  0.00  0.00    +0.000 A 
ENDBRANCH   8  21
ENDBRANCH  15   7
ENDBRANCH  10  15
BRANCH  12  18
ATOM     18  C   UNL     1      -4.845   4.577  25.439  0.00  0.00    +0.190 C 
BRANCH  18   3
ATOM      3  O   UNL     1      -6.167   4.162  25.745  0.00  0.00    -0.392 OA
ATOM     29  H   UNL     1      -6.229   4.092  26.713  0.00  0.00    +0.210 HD
ENDBRANCH  18   3
ENDBRANCH  12  18
TORSDOF 7
ENDMDL
MODEL 2
REMARK VINA RESULT:      -2.1      2.162      4.293
REMARK  Name = 28961668
REMARK  8 active torsions:
REMARK  status: ('A' for Active; 'I' for Inactive)
REMARK    1  A    between atoms: O_2  and  C_11
REMARK    2  A    between atoms: O_3  and  C_18
REMARK    3  A    between atoms: N_5  and  C_9
REMARK    4  A    between atoms: N_6  and  C_19
REMARK    5  A    between atoms: N_7  and  C_15
REMARK    6  A    between atoms: N_8  and  C_21
REMARK    7  A    between atoms: C_10  and  C_15
REMARK    8  A    between atoms: C_12  and  C_18
REMARK                            x       y       z     vdW  Elec       q    Type
REMARK                         _______ _______ _______ _____ _____    ______ ____
ROOT
ATOM      1  O   UNL     1      -2.117  -1.240  23.512  0.00  0.00    -0.365 OA
ATOM      9  C   UNL     1      -3.708  -0.044  24.818  0.00  0.00    +0.118 C 
ATOM     10  C   UNL     1      -2.929  -0.045  23.496  0.00  0.00    +0.155 C 
ATOM     11  C   UNL     1      -2.817  -0.860  25.742  0.00  0.00    +0.165 C 
ATOM     12  C   UNL     1      -2.299  -1.916  24.771  0.00  0.00    +0.174 C 
ENDROOT
BRANCH   9   5
ATOM      5  N   UNL     1      -4.105   1.265  25.333  0.00  0.00    -0.292 NA
ATOM      6  N   UNL     1      -5.521   3.779  25.154  0.00  0.00    -0.303 NA
ATOM     13  C   UNL     1      -3.646   2.337  24.441  0.00  0.00    +0.100 C 
ATOM     14  C   UNL     1      -5.561   1.335  25.510  0.00  0.00    +0.100 C 
ATOM     16  C   UNL     1      -4.065   3.710  24.976  0.00  0.00    +0.099 C 
ATOM     17  C   UNL     1      -5.980   2.708  26.047  0.00  0.00    +0.099 C 
ATOM     19  C   UNL     1      -5.920   5.089  25.667  0.00  0.00    +0.105 C 
ENDBRANCH   9   5
BRANCH  11   2
ATOM      2  O   UNL     1      -1.740  -0.083  26.249  0.00  0.00    -0.388 OA
ATOM     27  H   UNL     1      -1.197  -0.662  26.809  0.00  0.00    +0.210 HD
ENDBRANCH  11   2
BRANCH  10  15
ATOM     15  C   UNL     1      -1.993   1.133  23.253  0.00  0.00    +0.139 C 
BRANCH  15   7
ATOM      4  O   UNL     1       0.522   1.019  24.619  0.00  0.00    -0.253 OA
ATOM      7  N   UNL     1      -0.742   0.695  22.710  0.00  0.00    -0.297 N 
ATOM      8  N   UNL     1       1.507   0.195  22.655  0.00  0.00    -0.269 N 
ATOM     20  C   UNL     1       0.456   0.667  23.445  0.00  0.00    +0.304 C 
ATOM     28  H   UNL     1      -0.725   0.377  21.746  0.00  0.00    +0.150 HD
ATOM     30  H   UNL     1       1.282  -0.055  21.696  0.00  0.00    +0.156 HD
BRANCH   8  21
ATOM     21  C   UNL     1       2.862   0.020  23.028  0.00  0.00    +0.035 A 
ATOM     22  C   UNL     1       3.294  -1.209  23.529  0.00  0.00    +0.023 A 
ATOM     23  C   UNL     1       3.763   1.075  22.894  0.00  0.00    +0.023 A 
ATOM     24  C   UNL     1       4.628  -1.381  23.897  0.00  0.00    +0.002 A 
ATOM     25  C   UNL     1       5.098   0.903  23.263  0.00  0.00    +0.002 A 
ATOM     26  C   UNL     1       5.530  -0.325  23.764  0.00  0.00    +0.000 A 
ENDBRANCH   8  21
ENDBRANCH  15   7
ENDBRANCH  10  15
BRANCH  12  18
ATOM     18  C   UNL     1      -0.998  -2.588  25.171  0.00  0.00    +0.190 C 
BRANCH  18   3
ATOM      3  O   UNL     1       0.062  -1.656  25.031  0.00  0.00    -0.392 OA
ATOM     29  H   UNL     1       0.329  -1.664  24.095  0.00  0.00    +0.210 HD
ENDBRANCH  18   3
ENDBRANCH  12  18
TORSDOF 7
ENDMDL
MODEL 3
REMARK VINA RESULT:       0.8      1.919      6.792
REMARK  Name = 28961668
REMARK  8 active torsions:
REMARK  status: ('A' for Active; 'I' for Inactive)
REMARK    1  A    between atoms: O_2  and  C_11
REMARK    2  A    between atoms: O_3  and  C_18
REMARK    3  A    between atoms: N_5  and  C_9
REMARK    4  A    between atoms: N_6  and  C_19
REMARK    5  A    between atoms: N_7  and  C_15
REMARK    6  A    between atoms: N_8  and  C_21
REMARK    7  A    between atoms: C_10  and  C_15
REMARK    8  A    between atoms: C_12  and  C_18
REMARK                            x       y       z     vdW  Elec       q    Type
REMARK                         _______ _______ _______ _____ _____    ______ ____
ROOT
ATOM      1  O   UNL     1       2.622   1.712  23.063  0.00  0.00    -0.365 OA
ATOM      9  C   UNL     1       0.730   0.268  23.031  0.00  0.00    +0.118 C 
ATOM     10  C   UNL     1       1.242   1.641  23.486  0.00  0.00    +0.155 C 
ATOM     11  C   UNL     1       1.998  -0.569  22.975  0.00  0.00    +0.165 C 
ATOM     12  C   UNL     1       2.992   0.461  22.453  0.00  0.00    +0.174 C 
ENDROOT
BRANCH   9   5
ATOM      5  N   UNL     1      -0.362  -0.306  23.815  0.00  0.00    -0.292 NA
ATOM      6  N   UNL     1      -2.508  -2.195  24.243  0.00  0.00    -0.303 NA
ATOM     13  C   UNL     1      -1.638  -0.185  23.099  0.00  0.00    +0.100 C 
ATOM     14  C   UNL     1      -0.088  -1.711  24.140  0.00  0.00    +0.100 C 
ATOM     16  C   UNL     1      -2.783  -0.791  23.918  0.00  0.00    +0.099 C 
ATOM     17  C   UNL     1      -1.233  -2.315  24.961  0.00  0.00    +0.099 C 
ATOM     19  C   UNL     1      -3.600  -2.772  25.025  0.00  0.00    +0.105 C 
ENDBRANCH   9   5
BRANCH  11   2
ATOM      2  O   UNL     1       2.384  -1.020  24.268  0.00  0.00    -0.388 OA
ATOM     27  H   UNL     1       1.618  -0.914  24.857  0.00  0.00    +0.210 HD
ENDBRANCH  11   2
BRANCH  10  15
ATOM     15  C   UNL     1       1.214   1.919  24.985  0.00  0.00    +0.139 C 
BRANCH  15   7
ATOM      4  O   UNL     1      -1.181   3.269  24.183  0.00  0.00    -0.253 OA
ATOM      7  N   UNL     1      -0.100   1.723  25.521  0.00  0.00    -0.297 N 
ATOM      8  N   UNL     1      -2.370   2.026  25.779  0.00  0.00    -0.269 N 
ATOM     20  C   UNL     1      -1.232   2.427  25.075  0.00  0.00    +0.304 C 
ATOM     28  H   UNL     1      -0.219   1.031  26.254  0.00  0.00    +0.150 HD
ATOM     30  H   UNL     1      -2.239   1.313  26.492  0.00  0.00    +0.156 HD
BRANCH   8  21
ATOM     21  C   UNL     1      -3.697   2.496  25.625  0.00  0.00    +0.035 A 
ATOM     22  C   UNL     1      -4.712   1.610  25.264  0.00  0.00    +0.023 A 
ATOM     23  C   UNL     1      -3.987   3.844  25.835  0.00  0.00    +0.023 A 
ATOM     24  C   UNL     1      -6.018   2.074  25.111  0.00  0.00    +0.002 A 
ATOM     25  C   UNL     1      -5.295   4.307  25.682  0.00  0.00    +0.002 A 
ATOM     26  C   UNL     1      -6.310   3.422  25.319  0.00  0.00    +0.000 A 
ENDBRANCH   8  21
ENDBRANCH  15   7
ENDBRANCH  10  15
BRANCH  12  18
ATOM     18  C   UNL     1       4.452   0.171  22.753  0.00  0.00    +0.190 C 
BRANCH  18   3
ATOM      3  O   UNL     1       4.750   0.625  24.063  0.00  0.00    -0.392 OA
ATOM     29  H   UNL     1       5.123  -0.130  24.551  0.00  0.00    +0.210 HD
ENDBRANCH  18   3
ENDBRANCH  12  18
TORSDOF 7
ENDMDL
