MODEL 1
REMARK VINA RESULT:       6.1      0.000      0.000
REMARK  Name = 51136625
REMARK  12 active torsions:
REMARK  status: ('A' for Active; 'I' for Inactive)
REMARK    1  A    between atoms: O_1  and  C_20
REMARK    2  A    between atoms: O_4  and  C_26
REMARK    3  A    between atoms: O_4  and  C_33
REMARK    4  A    between atoms: O_5  and  C_27
REMARK    5  A    between atoms: O_5  and  C_34
REMARK    6  A    between atoms: O_6  and  C_31
REMARK    7  A    between atoms: O_6  and  C_36
REMARK    8  A    between atoms: N_9  and  C_28
REMARK    9  A    between atoms: C_10  and  C_15
REMARK   10  A    between atoms: C_11  and  C_16
REMARK   11  A    between atoms: C_15  and  C_17
REMARK   12  A    between atoms: C_16  and  C_20
REMARK                            x       y       z     vdW  Elec       q    Type
REMARK                         _______ _______ _______ _____ _____    ______ ____
ROOT
ATOM      2  O   UNL     1       0.344   4.343  23.275  0.00  0.00    -0.252 OA
ATOM      7  N   UNL     1      -1.167   4.025  24.995  0.00  0.00    -0.285 N 
ATOM      9  N   UNL     1       0.517   2.427  24.572  0.00  0.00    -0.269 N 
ATOM     10  C   UNL     1      -3.186   2.920  25.915  0.00  0.00    +0.016 C 
ATOM     11  C   UNL     1      -3.997   4.199  25.574  0.00  0.00    +0.006 C 
ATOM     12  C   UNL     1      -3.352   4.995  24.425  0.00  0.00    +0.023 C 
ATOM     13  C   UNL     1      -1.712   3.293  26.148  0.00  0.00    +0.113 C 
ATOM     14  C   UNL     1      -1.873   5.271  24.695  0.00  0.00    +0.109 C 
ATOM     18  C   UNL     1      -0.055   3.648  24.213  0.00  0.00    +0.306 C 
ATOM     37  H   UNL     1       0.450   2.128  25.539  0.00  0.00    +0.156 HD
ENDROOT
BRANCH   9  28
ATOM     28  C   UNL     1       1.189   1.511  23.727  0.00  0.00    +0.038 A 
ATOM     29  C   UNL     1       2.577   1.574  23.594  0.00  0.00    +0.069 A 
ATOM     30  C   UNL     1       0.465   0.545  23.028  0.00  0.00    +0.023 A 
ATOM     31  C   UNL     1       3.239   0.672  22.761  0.00  0.00    +0.122 A 
ATOM     32  C   UNL     1       1.127  -0.357  22.196  0.00  0.00    +0.005 A 
ATOM     35  C   UNL     1       2.514  -0.294  22.062  0.00  0.00    +0.046 A 
BRANCH  31   6
ATOM      6  O   UNL     1       4.592   0.735  22.630  0.00  0.00    -0.495 OA
ATOM     36  C   UNL     1       5.371   0.006  23.577  0.00  0.00    +0.277 C 
ENDBRANCH  31   6
ENDBRANCH   9  28
BRANCH  10  15
ATOM     15  C   UNL     1      -3.299   1.810  24.864  0.00  0.00    +0.061 C 
BRANCH  15  17
ATOM      8  N   UNL     1      -1.432   0.844  26.025  0.00  0.00    -0.287 NA
ATOM     17  C   UNL     1      -2.464   0.622  25.279  0.00  0.00    +0.044 C 
ATOM     19  C   UNL     1      -2.859  -0.729  24.809  0.00  0.00    +0.003 A 
ATOM     21  C   UNL     1      -1.883  -1.731  24.876  0.00  0.00    -0.033 A 
ATOM     22  C   UNL     1      -0.521  -1.376  25.393  0.00  0.00    +0.059 C 
ATOM     23  C   UNL     1      -0.656  -0.316  26.478  0.00  0.00    +0.146 C 
ATOM     24  C   UNL     1      -4.131  -1.013  24.308  0.00  0.00    +0.059 A 
ATOM     25  C   UNL     1      -2.180  -3.016  24.412  0.00  0.00    +0.053 A 
ATOM     26  C   UNL     1      -4.423  -2.302  23.862  0.00  0.00    +0.162 A 
ATOM     27  C   UNL     1      -3.449  -3.301  23.911  0.00  0.00    +0.162 A 
BRANCH  26   4
ATOM      4  O   UNL     1      -5.667  -2.575  23.375  0.00  0.00    -0.491 OA
ATOM     33  C   UNL     1      -5.850  -3.838  22.737  0.00  0.00    +0.277 C 
ENDBRANCH  26   4
BRANCH  27   5
ATOM      5  O   UNL     1      -3.727  -4.559  23.468  0.00  0.00    -0.491 OA
ATOM     34  C   UNL     1      -2.756  -5.177  22.625  0.00  0.00    +0.277 C 
ENDBRANCH  27   5
ENDBRANCH  15  17
ENDBRANCH  10  15
BRANCH  11  16
ATOM     16  C   UNL     1      -5.468   3.914  25.273  0.00  0.00    +0.124 C 
BRANCH  16  20
ATOM      3  O   UNL     1      -5.913   2.446  27.166  0.00  0.00    -0.251 OA
ATOM     20  C   UNL     1      -5.945   2.668  25.965  0.00  0.00    +0.305 C 
BRANCH  20   1
ATOM      1  O   UNL     1      -6.434   1.794  25.049  0.00  0.00    -0.481 OA
ATOM     38  H   UNL     1      -6.745   0.962  25.466  0.00  0.00    +0.295 HD
ENDBRANCH  20   1
ENDBRANCH  16  20
ENDBRANCH  11  16
TORSDOF 9
ENDMDL
MODEL 2
REMARK VINA RESULT:       7.6      1.941      7.665
REMARK  Name = 51136625
REMARK  12 active torsions:
REMARK  status: ('A' for Active; 'I' for Inactive)
REMARK    1  A    between atoms: O_1  and  C_20
REMARK    2  A    between atoms: O_4  and  C_26
REMARK    3  A    between atoms: O_4  and  C_33
REMARK    4  A    between atoms: O_5  and  C_27
REMARK    5  A    between atoms: O_5  and  C_34
REMARK    6  A    between atoms: O_6  and  C_31
REMARK    7  A    between atoms: O_6  and  C_36
REMARK    8  A    between atoms: N_9  and  C_28
REMARK    9  A    between atoms: C_10  and  C_15
REMARK   10  A    between atoms: C_11  and  C_16
REMARK   11  A    between atoms: C_15  and  C_17
REMARK   12  A    between atoms: C_16  and  C_20
REMARK                            x       y       z     vdW  Elec       q    Type
REMARK                         _______ _______ _______ _____ _____    ______ ____
ROOT
ATOM      2  O   UNL     1      -3.445  -2.079  23.566  0.00  0.00    -0.252 OA
ATOM      7  N   UNL     1      -1.291  -1.584  24.242  0.00  0.00    -0.285 N 
ATOM      9  N   UNL     1      -3.136  -0.526  25.262  0.00  0.00    -0.269 N 
ATOM     10  C   UNL     1       0.675  -0.074  24.246  0.00  0.00    +0.016 C 
ATOM     11  C   UNL     1       1.328  -0.981  23.168  0.00  0.00    +0.006 C 
ATOM     12  C   UNL     1       0.273  -1.750  22.353  0.00  0.00    +0.023 C 
ATOM     13  C   UNL     1      -0.303  -0.906  25.093  0.00  0.00    +0.113 C 
ATOM     14  C   UNL     1      -0.703  -2.497  23.261  0.00  0.00    +0.109 C 
ATOM     18  C   UNL     1      -2.693  -1.446  24.312  0.00  0.00    +0.306 C 
ATOM     37  H   UNL     1      -2.567  -0.371  26.087  0.00  0.00    +0.156 HD
ENDROOT
BRANCH   9  28
ATOM     28  C   UNL     1      -4.312   0.262  25.213  0.00  0.00    +0.038 A 
ATOM     29  C   UNL     1      -4.920   0.683  26.396  0.00  0.00    +0.069 A 
ATOM     30  C   UNL     1      -4.863   0.617  23.982  0.00  0.00    +0.023 A 
ATOM     31  C   UNL     1      -6.078   1.458  26.347  0.00  0.00    +0.122 A 
ATOM     32  C   UNL     1      -6.022   1.392  23.933  0.00  0.00    +0.005 A 
ATOM     35  C   UNL     1      -6.629   1.813  25.115  0.00  0.00    +0.046 A 
BRANCH  31   6
ATOM      6  O   UNL     1      -6.672   1.868  27.502  0.00  0.00    -0.495 OA
ATOM     36  C   UNL     1      -7.148   0.852  28.382  0.00  0.00    +0.277 C 
ENDBRANCH  31   6
ENDBRANCH   9  28
BRANCH  10  15
ATOM     15  C   UNL     1      -0.027   1.165  23.678  0.00  0.00    +0.061 C 
BRANCH  15  17
ATOM      8  N   UNL     1       0.418   2.202  25.797  0.00  0.00    -0.287 NA
ATOM     17  C   UNL     1      -0.397   2.105  24.799  0.00  0.00    +0.044 C 
ATOM     19  C   UNL     1      -1.672   2.860  24.708  0.00  0.00    +0.003 A 
ATOM     21  C   UNL     1      -2.169   3.407  25.898  0.00  0.00    -0.033 A 
ATOM     22  C   UNL     1      -1.403   3.184  27.168  0.00  0.00    +0.059 C 
ATOM     23  C   UNL     1       0.089   3.160  26.858  0.00  0.00    +0.146 C 
ATOM     24  C   UNL     1      -2.370   3.022  23.510  0.00  0.00    +0.059 A 
ATOM     25  C   UNL     1      -3.385   4.095  25.887  0.00  0.00    +0.053 A 
ATOM     26  C   UNL     1      -3.576   3.725  23.505  0.00  0.00    +0.162 A 
ATOM     27  C   UNL     1      -4.083   4.258  24.691  0.00  0.00    +0.162 A 
BRANCH  26   4
ATOM      4  O   UNL     1      -4.253   3.882  22.332  0.00  0.00    -0.491 OA
ATOM     33  C   UNL     1      -3.754   3.178  21.197  0.00  0.00    +0.277 C 
ENDBRANCH  26   4
BRANCH  27   5
ATOM      5  O   UNL     1      -5.264   4.937  24.693  0.00  0.00    -0.491 OA
ATOM     34  C   UNL     1      -5.989   4.972  25.921  0.00  0.00    +0.277 C 
ENDBRANCH  27   5
ENDBRANCH  15  17
ENDBRANCH  10  15
BRANCH  11  16
ATOM     16  C   UNL     1       2.278  -0.222  22.241  0.00  0.00    +0.124 C 
BRANCH  16  20
ATOM      3  O   UNL     1       4.022   1.312  22.978  0.00  0.00    -0.251 OA
ATOM     20  C   UNL     1       3.536   0.191  22.952  0.00  0.00    +0.305 C 
BRANCH  20   1
ATOM      1  O   UNL     1       4.078  -0.882  23.583  0.00  0.00    -0.481 OA
ATOM     38  H   UNL     1       3.403  -1.558  23.801  0.00  0.00    +0.295 HD
ENDBRANCH  20   1
ENDBRANCH  16  20
ENDBRANCH  11  16
TORSDOF 9
ENDMDL
MODEL 3
REMARK VINA RESULT:       8.2      2.127      6.355
REMARK  Name = 51136625
REMARK  12 active torsions:
REMARK  status: ('A' for Active; 'I' for Inactive)
REMARK    1  A    between atoms: O_1  and  C_20
REMARK    2  A    between atoms: O_4  and  C_26
REMARK    3  A    between atoms: O_4  and  C_33
REMARK    4  A    between atoms: O_5  and  C_27
REMARK    5  A    between atoms: O_5  and  C_34
REMARK    6  A    between atoms: O_6  and  C_31
REMARK    7  A    between atoms: O_6  and  C_36
REMARK    8  A    between atoms: N_9  and  C_28
REMARK    9  A    between atoms: C_10  and  C_15
REMARK   10  A    between atoms: C_11  and  C_16
REMARK   11  A    between atoms: C_15  and  C_17
REMARK   12  A    between atoms: C_16  and  C_20
REMARK                            x       y       z     vdW  Elec       q    Type
REMARK                         _______ _______ _______ _____ _____    ______ ____
ROOT
ATOM      2  O   UNL     1       1.080   1.653  25.667  0.00  0.00    -0.252 OA
ATOM      7  N   UNL     1       0.148   0.092  24.240  0.00  0.00    -0.285 N 
ATOM      9  N   UNL     1      -0.272   2.392  23.933  0.00  0.00    -0.269 N 
ATOM     10  C   UNL     1      -1.795  -1.245  23.479  0.00  0.00    +0.016 C 
ATOM     11  C   UNL     1      -1.227  -2.454  24.270  0.00  0.00    +0.006 C 
ATOM     12  C   UNL     1      -0.326  -2.004  25.434  0.00  0.00    +0.023 C 
ATOM     13  C   UNL     1      -0.644  -0.312  23.069  0.00  0.00    +0.113 C 
ATOM     14  C   UNL     1       0.752  -1.028  24.964  0.00  0.00    +0.109 C 
ATOM     18  C   UNL     1       0.379   1.412  24.681  0.00  0.00    +0.306 C 
ATOM     37  H   UNL     1      -0.459   2.209  22.954  0.00  0.00    +0.156 HD
ENDROOT
BRANCH   9  28
ATOM     28  C   UNL     1      -0.738   3.652  24.386  0.00  0.00    +0.038 A 
ATOM     29  C   UNL     1      -1.688   3.718  25.405  0.00  0.00    +0.069 A 
ATOM     30  C   UNL     1      -0.246   4.824  23.813  0.00  0.00    +0.023 A 
ATOM     31  C   UNL     1      -2.147   4.958  25.850  0.00  0.00    +0.122 A 
ATOM     32  C   UNL     1      -0.705   6.064  24.258  0.00  0.00    +0.005 A 
ATOM     35  C   UNL     1      -1.655   6.131  25.277  0.00  0.00    +0.046 A 
BRANCH  31   6
ATOM      6  O   UNL     1      -3.076   5.023  26.843  0.00  0.00    -0.495 OA
ATOM     36  C   UNL     1      -3.237   3.863  27.657  0.00  0.00    +0.277 C 
ENDBRANCH  31   6
ENDBRANCH   9  28
BRANCH  10  15
ATOM     15  C   UNL     1      -2.879  -0.462  24.230  0.00  0.00    +0.061 C 
BRANCH  15  17
ATOM      8  N   UNL     1      -2.746   0.923  22.273  0.00  0.00    -0.287 NA
ATOM     17  C   UNL     1      -3.234   0.788  23.462  0.00  0.00    +0.044 C 
ATOM     19  C   UNL     1      -4.112   1.798  24.106  0.00  0.00    +0.003 A 
ATOM     21  C   UNL     1      -4.108   3.084  23.551  0.00  0.00    -0.033 A 
ATOM     22  C   UNL     1      -3.221   3.357  22.373  0.00  0.00    +0.059 C 
ATOM     23  C   UNL     1      -3.140   2.108  21.503  0.00  0.00    +0.146 C 
ATOM     24  C   UNL     1      -4.903   1.510  25.220  0.00  0.00    +0.059 A 
ATOM     25  C   UNL     1      -4.882   4.090  24.135  0.00  0.00    +0.053 A 
ATOM     26  C   UNL     1      -5.685   2.517  25.786  0.00  0.00    +0.162 A 
ATOM     27  C   UNL     1      -5.673   3.805  25.247  0.00  0.00    +0.162 A 
BRANCH  26   4
ATOM      4  O   UNL     1      -6.458   2.232  26.872  0.00  0.00    -0.491 OA
ATOM     33  C   UNL     1      -6.587   0.858  27.233  0.00  0.00    +0.277 C 
ENDBRANCH  26   4
BRANCH  27   5
ATOM      5  O   UNL     1      -6.428   4.794  25.802  0.00  0.00    -0.491 OA
ATOM     34  C   UNL     1      -6.487   6.034  25.100  0.00  0.00    +0.277 C 
ENDBRANCH  27   5
ENDBRANCH  15  17
ENDBRANCH  10  15
BRANCH  11  16
ATOM     16  C   UNL     1      -2.312  -3.410  24.766  0.00  0.00    +0.124 C 
BRANCH  16  20
ATOM      3  O   UNL     1      -4.513  -2.836  23.893  0.00  0.00    -0.251 OA
ATOM     20  C   UNL     1      -3.666  -2.759  24.771  0.00  0.00    +0.305 C 
BRANCH  20   1
ATOM      1  O   UNL     1      -3.830  -2.050  25.917  0.00  0.00    -0.481 OA
ATOM     38  H   UNL     1      -4.763  -2.052  26.219  0.00  0.00    +0.295 HD
ENDBRANCH  20   1
ENDBRANCH  16  20
ENDBRANCH  11  16
TORSDOF 9
ENDMDL
MODEL 4
REMARK VINA RESULT:       9.2      1.552      2.549
REMARK  Name = 51136625
REMARK  12 active torsions:
REMARK  status: ('A' for Active; 'I' for Inactive)
REMARK    1  A    between atoms: O_1  and  C_20
REMARK    2  A    between atoms: O_4  and  C_26
REMARK    3  A    between atoms: O_4  and  C_33
REMARK    4  A    between atoms: O_5  and  C_27
REMARK    5  A    between atoms: O_5  and  C_34
REMARK    6  A    between atoms: O_6  and  C_31
REMARK    7  A    between atoms: O_6  and  C_36
REMARK    8  A    between atoms: N_9  and  C_28
REMARK    9  A    between atoms: C_10  and  C_15
REMARK   10  A    between atoms: C_11  and  C_16
REMARK   11  A    between atoms: C_15  and  C_17
REMARK   12  A    between atoms: C_16  and  C_20
REMARK                            x       y       z     vdW  Elec       q    Type
REMARK                         _______ _______ _______ _____ _____    ______ ____
ROOT
ATOM      2  O   UNL     1       1.409   4.168  23.923  0.00  0.00    -0.252 OA
ATOM      7  N   UNL     1      -0.493   3.932  25.214  0.00  0.00    -0.285 N 
ATOM      9  N   UNL     1       0.730   2.034  24.531  0.00  0.00    -0.269 N 
ATOM     10  C   UNL     1      -2.898   3.372  25.428  0.00  0.00    +0.016 C 
ATOM     11  C   UNL     1      -3.217   4.891  25.415  0.00  0.00    +0.006 C 
ATOM     12  C   UNL     1      -2.122   5.698  24.693  0.00  0.00    +0.023 C 
ATOM     13  C   UNL     1      -1.478   3.148  25.974  0.00  0.00    +0.113 C 
ATOM     14  C   UNL     1      -0.733   5.376  25.243  0.00  0.00    +0.109 C 
ATOM     18  C   UNL     1       0.622   3.425  24.515  0.00  0.00    +0.306 C 
ATOM     37  H   UNL     1       0.355   1.529  25.327  0.00  0.00    +0.156 HD
ENDROOT
BRANCH   9  28
ATOM     28  C   UNL     1       1.302   1.205  23.535  0.00  0.00    +0.038 A 
ATOM     29  C   UNL     1       2.685   1.178  23.360  0.00  0.00    +0.069 A 
ATOM     30  C   UNL     1       0.482   0.415  22.729  0.00  0.00    +0.023 A 
ATOM     31  C   UNL     1       3.248   0.362  22.379  0.00  0.00    +0.122 A 
ATOM     32  C   UNL     1       1.045  -0.401  21.748  0.00  0.00    +0.005 A 
ATOM     35  C   UNL     1       2.428  -0.429  21.573  0.00  0.00    +0.046 A 
BRANCH  31   6
ATOM      6  O   UNL     1       4.599   0.337  22.207  0.00  0.00    -0.495 OA
ATOM     36  C   UNL     1       5.393   0.039  23.353  0.00  0.00    +0.277 C 
ENDBRANCH  31   6
ENDBRANCH   9  28
BRANCH  10  15
ATOM     15  C   UNL     1      -3.063   2.687  24.066  0.00  0.00    +0.061 C 
BRANCH  15  17
ATOM      8  N   UNL     1      -5.401   2.141  24.054  0.00  0.00    -0.287 NA
ATOM     17  C   UNL     1      -4.193   1.688  24.126  0.00  0.00    +0.044 C 
ATOM     19  C   UNL     1      -3.867   0.247  24.273  0.00  0.00    +0.003 A 
ATOM     21  C   UNL     1      -4.899  -0.593  24.709  0.00  0.00    -0.033 A 
ATOM     22  C   UNL     1      -6.239   0.009  25.009  0.00  0.00    +0.059 C 
ATOM     23  C   UNL     1      -6.497   1.165  24.051  0.00  0.00    +0.146 C 
ATOM     24  C   UNL     1      -2.597  -0.270  24.010  0.00  0.00    +0.059 A 
ATOM     25  C   UNL     1      -4.646  -1.953  24.905  0.00  0.00    +0.053 A 
ATOM     26  C   UNL     1      -2.358  -1.632  24.194  0.00  0.00    +0.162 A 
ATOM     27  C   UNL     1      -3.378  -2.472  24.643  0.00  0.00    +0.162 A 
BRANCH  26   4
ATOM      4  O   UNL     1      -1.117  -2.134  23.933  0.00  0.00    -0.491 OA
ATOM     33  C   UNL     1      -0.170  -2.107  24.999  0.00  0.00    +0.277 C 
ENDBRANCH  26   4
BRANCH  27   5
ATOM      5  O   UNL     1      -3.147  -3.801  24.832  0.00  0.00    -0.491 OA
ATOM     34  C   UNL     1      -3.397  -4.666  23.725  0.00  0.00    +0.277 C 
ENDBRANCH  27   5
ENDBRANCH  15  17
ENDBRANCH  10  15
BRANCH  11  16
ATOM     16  C   UNL     1      -4.594   5.211  24.834  0.00  0.00    +0.124 C 
BRANCH  16  20
ATOM      3  O   UNL     1      -5.674   3.675  26.388  0.00  0.00    -0.251 OA
ATOM     20  C   UNL     1      -5.700   4.691  25.709  0.00  0.00    +0.305 C 
BRANCH  20   1
ATOM      1  O   UNL     1      -6.767   5.528  25.644  0.00  0.00    -0.481 OA
ATOM     38  H   UNL     1      -6.492   6.468  25.584  0.00  0.00    +0.295 HD
ENDBRANCH  20   1
ENDBRANCH  16  20
ENDBRANCH  11  16
TORSDOF 9
ENDMDL
MODEL 5
REMARK VINA RESULT:       9.8      1.919      5.862
REMARK  Name = 51136625
REMARK  12 active torsions:
REMARK  status: ('A' for Active; 'I' for Inactive)
REMARK    1  A    between atoms: O_1  and  C_20
REMARK    2  A    between atoms: O_4  and  C_26
REMARK    3  A    between atoms: O_4  and  C_33
REMARK    4  A    between atoms: O_5  and  C_27
REMARK    5  A    between atoms: O_5  and  C_34
REMARK    6  A    between atoms: O_6  and  C_31
REMARK    7  A    between atoms: O_6  and  C_36
REMARK    8  A    between atoms: N_9  and  C_28
REMARK    9  A    between atoms: C_10  and  C_15
REMARK   10  A    between atoms: C_11  and  C_16
REMARK   11  A    between atoms: C_15  and  C_17
REMARK   12  A    between atoms: C_16  and  C_20
REMARK                            x       y       z     vdW  Elec       q    Type
REMARK                         _______ _______ _______ _____ _____    ______ ____
ROOT
ATOM      2  O   UNL     1      -5.281   0.739  26.306  0.00  0.00    -0.252 OA
ATOM      7  N   UNL     1      -4.643   2.563  25.037  0.00  0.00    -0.285 N 
ATOM      9  N   UNL     1      -4.463   0.379  24.165  0.00  0.00    -0.269 N 
ATOM     10  C   UNL     1      -2.874   4.016  24.086  0.00  0.00    +0.016 C 
ATOM     11  C   UNL     1      -3.144   5.032  25.229  0.00  0.00    +0.006 C 
ATOM     12  C   UNL     1      -3.748   4.349  26.469  0.00  0.00    +0.023 C 
ATOM     13  C   UNL     1      -4.150   3.203  23.808  0.00  0.00    +0.113 C 
ATOM     14  C   UNL     1      -4.970   3.506  26.108  0.00  0.00    +0.109 C 
ATOM     18  C   UNL     1      -4.838   1.181  25.242  0.00  0.00    +0.306 C 
ATOM     37  H   UNL     1      -4.519   0.767  23.230  0.00  0.00    +0.156 HD
ENDROOT
BRANCH   9  28
ATOM     28  C   UNL     1      -3.980  -0.952  24.212  0.00  0.00    +0.038 A 
ATOM     29  C   UNL     1      -2.726  -1.220  24.762  0.00  0.00    +0.069 A 
ATOM     30  C   UNL     1      -4.757  -1.994  23.707  0.00  0.00    +0.023 A 
ATOM     31  C   UNL     1      -2.250  -2.530  24.807  0.00  0.00    +0.122 A 
ATOM     32  C   UNL     1      -4.281  -3.305  23.753  0.00  0.00    +0.005 A 
ATOM     35  C   UNL     1      -3.028  -3.573  24.303  0.00  0.00    +0.046 A 
BRANCH  31   6
ATOM      6  O   UNL     1      -1.026  -2.791  25.343  0.00  0.00    -0.495 OA
ATOM     36  C   UNL     1      -0.103  -1.707  25.411  0.00  0.00    +0.277 C 
ENDBRANCH  31   6
ENDBRANCH   9  28
BRANCH  10  15
ATOM     15  C   UNL     1      -1.688   3.080  24.350  0.00  0.00    +0.061 C 
BRANCH  15  17
ATOM      8  N   UNL     1      -2.596   1.894  22.470  0.00  0.00    -0.287 NA
ATOM     17  C   UNL     1      -1.566   2.078  23.228  0.00  0.00    +0.044 C 
ATOM     19  C   UNL     1      -0.283   1.352  23.055  0.00  0.00    +0.003 A 
ATOM     21  C   UNL     1      -0.317   0.183  22.284  0.00  0.00    -0.033 A 
ATOM     22  C   UNL     1      -1.629  -0.260  21.707  0.00  0.00    +0.059 C 
ATOM     23  C   UNL     1      -2.458   0.965  21.343  0.00  0.00    +0.146 C 
ATOM     24  C   UNL     1       0.913   1.783  23.633  0.00  0.00    +0.059 A 
ATOM     25  C   UNL     1       0.849  -0.569  22.116  0.00  0.00    +0.053 A 
ATOM     26  C   UNL     1       2.076   1.035  23.446  0.00  0.00    +0.162 A 
ATOM     27  C   UNL     1       2.044  -0.139  22.692  0.00  0.00    +0.162 A 
BRANCH  26   4
ATOM      4  O   UNL     1       3.242   1.461  24.010  0.00  0.00    -0.491 OA
ATOM     33  C   UNL     1       4.407   1.432  23.188  0.00  0.00    +0.277 C 
ENDBRANCH  26   4
BRANCH  27   5
ATOM      5  O   UNL     1       3.175  -0.878  22.515  0.00  0.00    -0.491 OA
ATOM     34  C   UNL     1       3.678  -1.576  23.653  0.00  0.00    +0.277 C 
ENDBRANCH  27   5
ENDBRANCH  15  17
ENDBRANCH  10  15
BRANCH  11  16
ATOM     16  C   UNL     1      -1.910   5.849  25.610  0.00  0.00    +0.124 C 
BRANCH  16  20
ATOM      3  O   UNL     1      -0.130   5.657  23.957  0.00  0.00    -0.251 OA
ATOM     20  C   UNL     1      -0.660   5.286  24.994  0.00  0.00    +0.305 C 
BRANCH  20   1
ATOM      1  O   UNL     1      -0.182   4.279  25.767  0.00  0.00    -0.481 OA
ATOM     38  H   UNL     1       0.622   3.870  25.381  0.00  0.00    +0.295 HD
ENDBRANCH  20   1
ENDBRANCH  16  20
ENDBRANCH  11  16
TORSDOF 9
ENDMDL
