MODEL 1
REMARK VINA RESULT:       1.0      0.000      0.000
REMARK  Name = 25314972
REMARK  7 active torsions:
REMARK  status: ('A' for Active; 'I' for Inactive)
REMARK    1  A    between atoms: O_3  and  C_9
REMARK    2  A    between atoms: O_4  and  C_23
REMARK    3  A    between atoms: N_5  and  C_8
REMARK    4  A    between atoms: N_6  and  C_10
REMARK    5  A    between atoms: N_6  and  C_18
REMARK    6  A    between atoms: N_7  and  C_19
REMARK    7  A    between atoms: C_18  and  C_20
REMARK                            x       y       z     vdW  Elec       q    Type
REMARK                         _______ _______ _______ _____ _____    ______ ____
ROOT
ATOM      1  O   UNL     1      -4.523   2.816  23.887  0.00  0.00    -0.343 OA
ATOM      2  O   UNL     1      -4.722   5.017  24.587  0.00  0.00    -0.347 OA
ATOM      8  C   UNL     1      -2.871   3.697  25.411  0.00  0.00    +0.143 C 
ATOM      9  C   UNL     1      -3.716   3.229  26.619  0.00  0.00    +0.156 C 
ATOM     10  C   UNL     1      -4.971   2.411  26.228  0.00  0.00    +0.116 C 
ATOM     11  C   UNL     1      -5.564   2.849  24.869  0.00  0.00    +0.166 C 
ATOM     12  C   UNL     1      -3.781   4.000  24.206  0.00  0.00    +0.270 C 
ATOM     13  C   UNL     1      -5.955   4.315  24.804  0.00  0.00    +0.196 C 
ENDROOT
BRANCH   8   5
ATOM      5  N   UNL     1      -1.881   2.684  25.048  0.00  0.00    -0.290 NA
ATOM      7  N   UNL     1       0.478   1.676  23.790  0.00  0.00    -0.327 N 
ATOM     14  C   UNL     1      -0.553   3.057  25.550  0.00  0.00    +0.104 C 
ATOM     15  C   UNL     1      -1.833   2.510  23.591  0.00  0.00    +0.104 C 
ATOM     16  C   UNL     1       0.482   1.978  25.226  0.00  0.00    +0.120 C 
ATOM     17  C   UNL     1      -0.841   1.412  23.201  0.00  0.00    +0.120 C 
BRANCH   7  19
ATOM     19  C   UNL     1       1.593   1.065  23.207  0.00  0.00    +0.030 A 
ATOM     21  C   UNL     1       2.863   1.614  23.385  0.00  0.00    +0.023 A 
ATOM     22  C   UNL     1       1.435  -0.092  22.445  0.00  0.00    +0.023 A 
ATOM     25  C   UNL     1       3.974   1.006  22.803  0.00  0.00    +0.002 A 
ATOM     26  C   UNL     1       2.546  -0.701  21.862  0.00  0.00    +0.002 A 
ATOM     29  C   UNL     1       3.816  -0.152  22.041  0.00  0.00    +0.000 A 
ENDBRANCH   7  19
ENDBRANCH   8   5
BRANCH   9   3
ATOM      3  O   UNL     1      -4.139   4.401  27.333  0.00  0.00    -0.388 OA
ATOM     32  H   UNL     1      -3.582   4.479  28.125  0.00  0.00    +0.210 HD
ENDBRANCH   9   3
BRANCH  10   6
ATOM      6  N   UNL     1      -4.650   0.982  26.147  0.00  0.00    -0.305 NA
ATOM     31  H   UNL     1      -5.346   0.446  26.666  0.00  0.00    +0.123 HD
BRANCH   6  18
ATOM     18  C   UNL     1      -4.608   0.545  24.763  0.00  0.00    +0.120 C 
BRANCH  18  20
ATOM     20  C   UNL     1      -3.891  -0.769  24.611  0.00  0.00    +0.008 A 
ATOM     23  C   UNL     1      -2.649  -0.978  25.211  0.00  0.00    +0.121 A 
ATOM     24  C   UNL     1      -4.482  -1.785  23.859  0.00  0.00    +0.008 A 
ATOM     27  C   UNL     1      -1.997  -2.202  25.059  0.00  0.00    +0.046 A 
ATOM     28  C   UNL     1      -3.830  -3.009  23.707  0.00  0.00    +0.001 A 
ATOM     30  C   UNL     1      -2.587  -3.218  24.308  0.00  0.00    +0.004 A 
BRANCH  23   4
ATOM      4  O   UNL     1      -2.058   0.004  25.948  0.00  0.00    -0.506 OA
ATOM     33  H   UNL     1      -2.725   0.671  26.184  0.00  0.00    +0.292 HD
ENDBRANCH  23   4
ENDBRANCH  18  20
ENDBRANCH   6  18
ENDBRANCH  10   6
TORSDOF 7
ENDMDL
MODEL 2
REMARK VINA RESULT:       1.1      1.024      1.405
REMARK  Name = 25314972
REMARK  7 active torsions:
REMARK  status: ('A' for Active; 'I' for Inactive)
REMARK    1  A    between atoms: O_3  and  C_9
REMARK    2  A    between atoms: O_4  and  C_23
REMARK    3  A    between atoms: N_5  and  C_8
REMARK    4  A    between atoms: N_6  and  C_10
REMARK    5  A    between atoms: N_6  and  C_18
REMARK    6  A    between atoms: N_7  and  C_19
REMARK    7  A    between atoms: C_18  and  C_20
REMARK                            x       y       z     vdW  Elec       q    Type
REMARK                         _______ _______ _______ _____ _____    ______ ____
ROOT
ATOM      1  O   UNL     1      -4.156   3.149  23.616  0.00  0.00    -0.343 OA
ATOM      2  O   UNL     1      -4.551   4.959  25.010  0.00  0.00    -0.347 OA
ATOM      8  C   UNL     1      -3.010   3.244  25.739  0.00  0.00    +0.143 C 
ATOM      9  C   UNL     1      -4.163   2.465  26.412  0.00  0.00    +0.156 C 
ATOM     10  C   UNL     1      -5.253   1.979  25.425  0.00  0.00    +0.116 C 
ATOM     11  C   UNL     1      -5.434   2.936  24.225  0.00  0.00    +0.166 C 
ATOM     12  C   UNL     1      -3.538   4.054  24.540  0.00  0.00    +0.270 C 
ATOM     13  C   UNL     1      -5.793   4.360  24.612  0.00  0.00    +0.196 C 
ENDROOT
BRANCH   8   5
ATOM      5  N   UNL     1      -1.955   2.331  25.298  0.00  0.00    -0.290 NA
ATOM      7  N   UNL     1       0.405   1.560  23.884  0.00  0.00    -0.327 N 
ATOM     14  C   UNL     1      -0.639   2.820  25.727  0.00  0.00    +0.104 C 
ATOM     15  C   UNL     1      -1.981   2.179  23.839  0.00  0.00    +0.104 C 
ATOM     16  C   UNL     1       0.469   1.845  25.322  0.00  0.00    +0.120 C 
ATOM     17  C   UNL     1      -0.919   1.182  23.371  0.00  0.00    +0.120 C 
BRANCH   7  19
ATOM     19  C   UNL     1       1.533   1.062  23.224  0.00  0.00    +0.030 A 
ATOM     21  C   UNL     1       2.781   1.644  23.440  0.00  0.00    +0.023 A 
ATOM     22  C   UNL     1       1.409  -0.017  22.350  0.00  0.00    +0.023 A 
ATOM     25  C   UNL     1       3.906   1.148  22.781  0.00  0.00    +0.002 A 
ATOM     26  C   UNL     1       2.533  -0.514  21.690  0.00  0.00    +0.002 A 
ATOM     29  C   UNL     1       3.782   0.069  21.906  0.00  0.00    +0.000 A 
ENDBRANCH   7  19
ENDBRANCH   8   5
BRANCH   9   3
ATOM      3  O   UNL     1      -4.775   3.339  27.373  0.00  0.00    -0.388 OA
ATOM     32  H   UNL     1      -5.701   3.465  27.107  0.00  0.00    +0.210 HD
ENDBRANCH   9   3
BRANCH  10   6
ATOM      6  N   UNL     1      -4.919   0.649  24.903  0.00  0.00    -0.305 NA
ATOM     31  H   UNL     1      -4.254   0.741  24.136  0.00  0.00    +0.123 HD
BRANCH   6  18
ATOM     18  C   UNL     1      -4.365  -0.186  25.954  0.00  0.00    +0.120 C 
BRANCH  18  20
ATOM     20  C   UNL     1      -3.194  -0.997  25.466  0.00  0.00    +0.008 A 
ATOM     23  C   UNL     1      -3.346  -1.916  24.429  0.00  0.00    +0.121 A 
ATOM     24  C   UNL     1      -1.946  -0.820  26.065  0.00  0.00    +0.008 A 
ATOM     27  C   UNL     1      -2.250  -2.660  23.990  0.00  0.00    +0.046 A 
ATOM     28  C   UNL     1      -0.851  -1.563  25.625  0.00  0.00    +0.001 A 
ATOM     30  C   UNL     1      -1.003  -2.484  24.588  0.00  0.00    +0.004 A 
BRANCH  23   4
ATOM      4  O   UNL     1      -4.557  -2.102  23.834  0.00  0.00    -0.506 OA
ATOM     33  H   UNL     1      -4.800  -1.296  23.347  0.00  0.00    +0.292 HD
ENDBRANCH  23   4
ENDBRANCH  18  20
ENDBRANCH   6  18
ENDBRANCH  10   6
TORSDOF 7
ENDMDL
MODEL 3
REMARK VINA RESULT:       2.2      1.875      4.712
REMARK  Name = 25314972
REMARK  7 active torsions:
REMARK  status: ('A' for Active; 'I' for Inactive)
REMARK    1  A    between atoms: O_3  and  C_9
REMARK    2  A    between atoms: O_4  and  C_23
REMARK    3  A    between atoms: N_5  and  C_8
REMARK    4  A    between atoms: N_6  and  C_10
REMARK    5  A    between atoms: N_6  and  C_18
REMARK    6  A    between atoms: N_7  and  C_19
REMARK    7  A    between atoms: C_18  and  C_20
REMARK                            x       y       z     vdW  Elec       q    Type
REMARK                         _______ _______ _______ _____ _____    ______ ____
ROOT
ATOM      1  O   UNL     1      -2.358   0.304  25.584  0.00  0.00    -0.343 OA
ATOM      2  O   UNL     1      -3.946  -1.159  26.427  0.00  0.00    -0.347 OA
ATOM      8  C   UNL     1      -2.527  -1.902  24.616  0.00  0.00    +0.143 C 
ATOM      9  C   UNL     1      -3.547  -1.383  23.577  0.00  0.00    +0.156 C 
ATOM     10  C   UNL     1      -3.777   0.148  23.633  0.00  0.00    +0.116 C 
ATOM     11  C   UNL     1      -3.625   0.717  25.061  0.00  0.00    +0.166 C 
ATOM     12  C   UNL     1      -2.609  -1.069  25.909  0.00  0.00    +0.270 C 
ATOM     13  C   UNL     1      -4.559   0.094  26.083  0.00  0.00    +0.196 C 
ENDROOT
BRANCH   8   5
ATOM      5  N   UNL     1      -1.168  -1.855  24.077  0.00  0.00    -0.290 NA
ATOM      7  N   UNL     1       1.488  -0.845  23.783  0.00  0.00    -0.327 N 
ATOM     14  C   UNL     1      -0.182  -2.035  25.149  0.00  0.00    +0.104 C 
ATOM     15  C   UNL     1      -0.931  -0.581  23.388  0.00  0.00    +0.104 C 
ATOM     16  C   UNL     1       1.243  -2.045  24.591  0.00  0.00    +0.120 C 
ATOM     17  C   UNL     1       0.468  -0.542  22.770  0.00  0.00    +0.120 C 
BRANCH   7  19
ATOM     19  C   UNL     1       2.801  -0.428  23.540  0.00  0.00    +0.030 A 
ATOM     21  C   UNL     1       3.871  -1.237  23.919  0.00  0.00    +0.023 A 
ATOM     22  C   UNL     1       3.039   0.797  22.917  0.00  0.00    +0.023 A 
ATOM     25  C   UNL     1       5.180  -0.822  23.677  0.00  0.00    +0.002 A 
ATOM     26  C   UNL     1       4.348   1.213  22.675  0.00  0.00    +0.002 A 
ATOM     29  C   UNL     1       5.419   0.404  23.054  0.00  0.00    +0.000 A 
ENDBRANCH   7  19
ENDBRANCH   8   5
BRANCH   9   3
ATOM      3  O   UNL     1      -4.798  -2.041  23.829  0.00  0.00    -0.388 OA
ATOM     32  H   UNL     1      -5.277  -2.094  22.985  0.00  0.00    +0.210 HD
ENDBRANCH   9   3
BRANCH  10   6
ATOM      6  N   UNL     1      -2.827   0.844  22.759  0.00  0.00    -0.305 NA
ATOM     31  H   UNL     1      -2.842   0.419  21.831  0.00  0.00    +0.123 HD
BRANCH   6  18
ATOM     18  C   UNL     1      -3.154   2.256  22.671  0.00  0.00    +0.120 C 
BRANCH  18  20
ATOM     20  C   UNL     1      -2.367   3.076  23.657  0.00  0.00    +0.008 A 
ATOM     23  C   UNL     1      -3.013   3.924  24.556  0.00  0.00    +0.121 A 
ATOM     24  C   UNL     1      -0.975   2.982  23.665  0.00  0.00    +0.008 A 
ATOM     27  C   UNL     1      -2.269   4.678  25.464  0.00  0.00    +0.046 A 
ATOM     28  C   UNL     1      -0.230   3.736  24.572  0.00  0.00    +0.001 A 
ATOM     30  C   UNL     1      -0.877   4.584  25.472  0.00  0.00    +0.004 A 
BRANCH  23   4
ATOM      4  O   UNL     1      -4.372   4.029  24.562  0.00  0.00    -0.506 OA
ATOM     33  H   UNL     1      -4.679   4.132  25.479  0.00  0.00    +0.292 HD
ENDBRANCH  23   4
ENDBRANCH  18  20
ENDBRANCH   6  18
ENDBRANCH  10   6
TORSDOF 7
ENDMDL
MODEL 4
REMARK VINA RESULT:       2.2      2.189      4.641
REMARK  Name = 25314972
REMARK  7 active torsions:
REMARK  status: ('A' for Active; 'I' for Inactive)
REMARK    1  A    between atoms: O_3  and  C_9
REMARK    2  A    between atoms: O_4  and  C_23
REMARK    3  A    between atoms: N_5  and  C_8
REMARK    4  A    between atoms: N_6  and  C_10
REMARK    5  A    between atoms: N_6  and  C_18
REMARK    6  A    between atoms: N_7  and  C_19
REMARK    7  A    between atoms: C_18  and  C_20
REMARK                            x       y       z     vdW  Elec       q    Type
REMARK                         _______ _______ _______ _____ _____    ______ ____
ROOT
ATOM      1  O   UNL     1      -2.262   0.237  25.640  0.00  0.00    -0.343 OA
ATOM      2  O   UNL     1      -3.902  -1.226  26.379  0.00  0.00    -0.347 OA
ATOM      8  C   UNL     1      -2.473  -1.908  24.552  0.00  0.00    +0.143 C 
ATOM      9  C   UNL     1      -3.462  -1.307  23.527  0.00  0.00    +0.156 C 
ATOM     10  C   UNL     1      -3.653   0.224  23.662  0.00  0.00    +0.116 C 
ATOM     11  C   UNL     1      -3.510   0.711  25.122  0.00  0.00    +0.166 C 
ATOM     12  C   UNL     1      -2.555  -1.145  25.887  0.00  0.00    +0.270 C 
ATOM     13  C   UNL     1      -4.476   0.059  26.094  0.00  0.00    +0.196 C 
ENDROOT
BRANCH   8   5
ATOM      5  N   UNL     1      -1.104  -1.869  24.036  0.00  0.00    -0.290 NA
ATOM      7  N   UNL     1       1.556  -0.861  23.774  0.00  0.00    -0.327 N 
ATOM     14  C   UNL     1      -0.138  -2.030  25.129  0.00  0.00    +0.104 C 
ATOM     15  C   UNL     1      -0.856  -0.607  23.330  0.00  0.00    +0.104 C 
ATOM     16  C   UNL     1       1.297  -2.048  24.597  0.00  0.00    +0.120 C 
ATOM     17  C   UNL     1       0.554  -0.577  22.737  0.00  0.00    +0.120 C 
BRANCH   7  19
ATOM     19  C   UNL     1       2.873  -0.448  23.547  0.00  0.00    +0.030 A 
ATOM     21  C   UNL     1       3.936  -1.262  23.934  0.00  0.00    +0.023 A 
ATOM     22  C   UNL     1       3.121   0.780  22.934  0.00  0.00    +0.023 A 
ATOM     25  C   UNL     1       5.249  -0.849  23.708  0.00  0.00    +0.002 A 
ATOM     26  C   UNL     1       4.434   1.194  22.708  0.00  0.00    +0.002 A 
ATOM     29  C   UNL     1       5.499   0.379  23.095  0.00  0.00    +0.000 A 
ENDBRANCH   7  19
ENDBRANCH   8   5
BRANCH   9   3
ATOM      3  O   UNL     1      -4.733  -1.944  23.723  0.00  0.00    -0.388 OA
ATOM     32  H   UNL     1      -4.637  -2.567  24.463  0.00  0.00    +0.210 HD
ENDBRANCH   9   3
BRANCH  10   6
ATOM      6  N   UNL     1      -2.671   0.940  22.842  0.00  0.00    -0.305 NA
ATOM     31  H   UNL     1      -2.560   0.462  21.947  0.00  0.00    +0.123 HD
BRANCH   6  18
ATOM     18  C   UNL     1      -3.088   2.315  22.630  0.00  0.00    +0.120 C 
BRANCH  18  20
ATOM     20  C   UNL     1      -2.977   3.134  23.888  0.00  0.00    +0.008 A 
ATOM     23  C   UNL     1      -1.735   3.385  24.469  0.00  0.00    +0.121 A 
ATOM     24  C   UNL     1      -4.137   3.645  24.473  0.00  0.00    +0.008 A 
ATOM     27  C   UNL     1      -1.651   4.146  25.636  0.00  0.00    +0.046 A 
ATOM     28  C   UNL     1      -4.053   4.405  25.639  0.00  0.00    +0.001 A 
ATOM     30  C   UNL     1      -2.809   4.656  26.221  0.00  0.00    +0.004 A 
BRANCH  23   4
ATOM      4  O   UNL     1      -0.593   2.895  23.911  0.00  0.00    -0.506 OA
ATOM     33  H   UNL     1      -0.346   3.448  23.151  0.00  0.00    +0.292 HD
ENDBRANCH  23   4
ENDBRANCH  18  20
ENDBRANCH   6  18
ENDBRANCH  10   6
TORSDOF 7
ENDMDL
MODEL 5
REMARK VINA RESULT:       2.3      1.480      2.137
REMARK  Name = 25314972
REMARK  7 active torsions:
REMARK  status: ('A' for Active; 'I' for Inactive)
REMARK    1  A    between atoms: O_3  and  C_9
REMARK    2  A    between atoms: O_4  and  C_23
REMARK    3  A    between atoms: N_5  and  C_8
REMARK    4  A    between atoms: N_6  and  C_10
REMARK    5  A    between atoms: N_6  and  C_18
REMARK    6  A    between atoms: N_7  and  C_19
REMARK    7  A    between atoms: C_18  and  C_20
REMARK                            x       y       z     vdW  Elec       q    Type
REMARK                         _______ _______ _______ _____ _____    ______ ____
ROOT
ATOM      1  O   UNL     1      -3.505   1.113  23.579  0.00  0.00    -0.343 OA
ATOM      2  O   UNL     1      -4.732   3.077  23.679  0.00  0.00    -0.347 OA
ATOM      8  C   UNL     1      -2.323   3.202  23.843  0.00  0.00    +0.143 C 
ATOM      9  C   UNL     1      -2.400   3.068  25.381  0.00  0.00    +0.156 C 
ATOM     10  C   UNL     1      -3.013   1.730  25.864  0.00  0.00    +0.116 C 
ATOM     11  C   UNL     1      -4.078   1.181  24.889  0.00  0.00    +0.166 C 
ATOM     12  C   UNL     1      -3.518   2.491  23.182  0.00  0.00    +0.270 C 
ATOM     13  C   UNL     1      -5.236   2.129  24.632  0.00  0.00    +0.196 C 
ENDROOT
BRANCH   8   5
ATOM      5  N   UNL     1      -1.068   2.646  23.336  0.00  0.00    -0.290 NA
ATOM      7  N   UNL     1       1.371   1.165  23.471  0.00  0.00    -0.327 N 
ATOM     14  C   UNL     1      -1.092   1.180  23.398  0.00  0.00    +0.104 C 
ATOM     15  C   UNL     1       0.071   3.161  24.105  0.00  0.00    +0.104 C 
ATOM     16  C   UNL     1       0.193   0.584  22.818  0.00  0.00    +0.120 C 
ATOM     17  C   UNL     1       1.394   2.632  23.549  0.00  0.00    +0.120 C 
BRANCH   7  19
ATOM     19  C   UNL     1       2.595   0.489  23.423  0.00  0.00    +0.030 A 
ATOM     21  C   UNL     1       2.649  -0.876  23.700  0.00  0.00    +0.023 A 
ATOM     22  C   UNL     1       3.761   1.182  23.099  0.00  0.00    +0.023 A 
ATOM     25  C   UNL     1       3.870  -1.550  23.654  0.00  0.00    +0.002 A 
ATOM     26  C   UNL     1       4.982   0.509  23.052  0.00  0.00    +0.002 A 
ATOM     29  C   UNL     1       5.037  -0.857  23.329  0.00  0.00    +0.000 A 
ENDBRANCH   7  19
ENDBRANCH   8   5
BRANCH   9   3
ATOM      3  O   UNL     1      -3.212   4.145  25.871  0.00  0.00    -0.388 OA
ATOM     32  H   UNL     1      -2.814   4.459  26.700  0.00  0.00    +0.210 HD
ENDBRANCH   9   3
BRANCH  10   6
ATOM      6  N   UNL     1      -1.969   0.712  26.023  0.00  0.00    -0.305 NA
ATOM     31  H   UNL     1      -1.256   1.053  26.669  0.00  0.00    +0.123 HD
BRANCH   6  18
ATOM     18  C   UNL     1      -2.539  -0.531  26.511  0.00  0.00    +0.120 C 
BRANCH  18  20
ATOM     20  C   UNL     1      -2.526  -1.605  25.457  0.00  0.00    +0.008 A 
ATOM     23  C   UNL     1      -1.322  -2.091  24.948  0.00  0.00    +0.121 A 
ATOM     24  C   UNL     1      -3.737  -2.115  24.988  0.00  0.00    +0.008 A 
ATOM     27  C   UNL     1      -1.327  -3.086  23.970  0.00  0.00    +0.046 A 
ATOM     28  C   UNL     1      -3.743  -3.110  24.010  0.00  0.00    +0.001 A 
ATOM     30  C   UNL     1      -2.538  -3.596  23.501  0.00  0.00    +0.004 A 
BRANCH  23   4
ATOM      4  O   UNL     1      -0.130  -1.603  25.393  0.00  0.00    -0.506 OA
ATOM     33  H   UNL     1       0.020  -0.725  25.005  0.00  0.00    +0.292 HD
ENDBRANCH  23   4
ENDBRANCH  18  20
ENDBRANCH   6  18
ENDBRANCH  10   6
TORSDOF 7
ENDMDL
MODEL 6
REMARK VINA RESULT:       3.4      1.931      4.838
REMARK  Name = 25314972
REMARK  7 active torsions:
REMARK  status: ('A' for Active; 'I' for Inactive)
REMARK    1  A    between atoms: O_3  and  C_9
REMARK    2  A    between atoms: O_4  and  C_23
REMARK    3  A    between atoms: N_5  and  C_8
REMARK    4  A    between atoms: N_6  and  C_10
REMARK    5  A    between atoms: N_6  and  C_18
REMARK    6  A    between atoms: N_7  and  C_19
REMARK    7  A    between atoms: C_18  and  C_20
REMARK                            x       y       z     vdW  Elec       q    Type
REMARK                         _______ _______ _______ _____ _____    ______ ____
ROOT
ATOM      1  O   UNL     1      -1.844  -1.314  24.746  0.00  0.00    -0.343 OA
ATOM      2  O   UNL     1      -3.938  -1.052  23.785  0.00  0.00    -0.347 OA
ATOM      8  C   UNL     1      -2.151   0.425  23.099  0.00  0.00    +0.143 C 
ATOM      9  C   UNL     1      -2.528   1.431  24.211  0.00  0.00    +0.156 C 
ATOM     10  C   UNL     1      -2.384   0.864  25.645  0.00  0.00    +0.116 C 
ATOM     11  C   UNL     1      -2.667  -0.654  25.713  0.00  0.00    +0.166 C 
ATOM     12  C   UNL     1      -2.526  -1.007  23.523  0.00  0.00    +0.270 C 
ATOM     13  C   UNL     1      -4.046  -1.053  25.217  0.00  0.00    +0.196 C 
ENDROOT
BRANCH   8   5
ATOM      5  N   UNL     1      -0.721   0.499  22.796  0.00  0.00    -0.290 NA
ATOM      7  N   UNL     1       2.062   0.016  23.218  0.00  0.00    -0.327 N 
ATOM     14  C   UNL     1      -0.164  -0.846  22.611  0.00  0.00    +0.104 C 
ATOM     15  C   UNL     1      -0.003   1.194  23.870  0.00  0.00    +0.104 C 
ATOM     16  C   UNL     1       1.318  -0.782  22.237  0.00  0.00    +0.120 C 
ATOM     17  C   UNL     1       1.485   1.328  23.538  0.00  0.00    +0.120 C 
BRANCH   7  19
ATOM     19  C   UNL     1       3.448  -0.139  23.331  0.00  0.00    +0.030 A 
ATOM     21  C   UNL     1       3.981  -1.342  23.790  0.00  0.00    +0.023 A 
ATOM     22  C   UNL     1       4.297   0.912  22.983  0.00  0.00    +0.023 A 
ATOM     25  C   UNL     1       5.363  -1.496  23.902  0.00  0.00    +0.002 A 
ATOM     26  C   UNL     1       5.679   0.760  23.095  0.00  0.00    +0.002 A 
ATOM     29  C   UNL     1       6.212  -0.445  23.555  0.00  0.00    +0.000 A 
ENDBRANCH   7  19
ENDBRANCH   8   5
BRANCH   9   3
ATOM      3  O   UNL     1      -3.896   1.812  24.006  0.00  0.00    -0.388 OA
ATOM     32  H   UNL     1      -4.412   0.999  23.880  0.00  0.00    +0.210 HD
ENDBRANCH   9   3
BRANCH  10   6
ATOM      6  N   UNL     1      -1.031   1.101  26.160  0.00  0.00    -0.305 NA
ATOM     31  H   UNL     1      -0.375   1.160  25.380  0.00  0.00    +0.123 HD
BRANCH   6  18
ATOM     18  C   UNL     1      -0.990   2.321  26.947  0.00  0.00    +0.120 C 
BRANCH  18  20
ATOM     20  C   UNL     1      -1.219   3.543  26.098  0.00  0.00    +0.008 A 
ATOM     23  C   UNL     1      -2.433   4.226  26.144  0.00  0.00    +0.121 A 
ATOM     24  C   UNL     1      -0.197   3.990  25.259  0.00  0.00    +0.008 A 
ATOM     27  C   UNL     1      -2.628   5.356  25.350  0.00  0.00    +0.046 A 
ATOM     28  C   UNL     1      -0.393   5.120  24.465  0.00  0.00    +0.001 A 
ATOM     30  C   UNL     1      -1.609   5.804  24.511  0.00  0.00    +0.004 A 
BRANCH  23   4
ATOM      4  O   UNL     1      -3.441   3.803  26.958  0.00  0.00    -0.506 OA
ATOM     33  H   UNL     1      -3.108   3.093  27.533  0.00  0.00    +0.292 HD
ENDBRANCH  23   4
ENDBRANCH  18  20
ENDBRANCH   6  18
ENDBRANCH  10   6
TORSDOF 7
ENDMDL
MODEL 7
REMARK VINA RESULT:       4.5      2.390      6.565
REMARK  Name = 25314972
REMARK  7 active torsions:
REMARK  status: ('A' for Active; 'I' for Inactive)
REMARK    1  A    between atoms: O_3  and  C_9
REMARK    2  A    between atoms: O_4  and  C_23
REMARK    3  A    between atoms: N_5  and  C_8
REMARK    4  A    between atoms: N_6  and  C_10
REMARK    5  A    between atoms: N_6  and  C_18
REMARK    6  A    between atoms: N_7  and  C_19
REMARK    7  A    between atoms: C_18  and  C_20
REMARK                            x       y       z     vdW  Elec       q    Type
REMARK                         _______ _______ _______ _____ _____    ______ ____
ROOT
ATOM      1  O   UNL     1       2.263   0.910  24.456  0.00  0.00    -0.343 OA
ATOM      2  O   UNL     1       3.140   1.614  22.428  0.00  0.00    -0.347 OA
ATOM      8  C   UNL     1       0.764   1.193  22.584  0.00  0.00    +0.143 C 
ATOM      9  C   UNL     1       0.978  -0.282  22.172  0.00  0.00    +0.156 C 
ATOM     10  C   UNL     1       1.845  -1.092  23.167  0.00  0.00    +0.116 C 
ATOM     11  C   UNL     1       2.913  -0.221  23.866  0.00  0.00    +0.166 C 
ATOM     12  C   UNL     1       2.011   1.733  23.309  0.00  0.00    +0.270 C 
ATOM     13  C   UNL     1       3.869   0.477  22.915  0.00  0.00    +0.196 C 
ENDROOT
BRANCH   8   5
ATOM      5  N   UNL     1      -0.412   1.326  23.445  0.00  0.00    -0.290 NA
ATOM      7  N   UNL     1      -2.881   2.457  24.330  0.00  0.00    -0.327 N 
ATOM     14  C   UNL     1      -1.642   1.121  22.671  0.00  0.00    +0.104 C 
ATOM     15  C   UNL     1      -0.436   2.647  24.082  0.00  0.00    +0.104 C 
ATOM     16  C   UNL     1      -2.877   1.201  23.571  0.00  0.00    +0.120 C 
ATOM     17  C   UNL     1      -1.630   2.779  25.030  0.00  0.00    +0.120 C 
BRANCH   7  19
ATOM     19  C   UNL     1      -4.079   2.939  24.869  0.00  0.00    +0.030 A 
ATOM     21  C   UNL     1      -5.046   2.047  25.329  0.00  0.00    +0.023 A 
ATOM     22  C   UNL     1      -4.305   4.313  24.944  0.00  0.00    +0.023 A 
ATOM     25  C   UNL     1      -6.240   2.527  25.866  0.00  0.00    +0.002 A 
ATOM     26  C   UNL     1      -5.500   4.795  25.480  0.00  0.00    +0.002 A 
ATOM     29  C   UNL     1      -6.467   3.902  25.942  0.00  0.00    +0.000 A 
ENDBRANCH   7  19
ENDBRANCH   8   5
BRANCH   9   3
ATOM      3  O   UNL     1       1.627  -0.286  20.892  0.00  0.00    -0.388 OA
ATOM     32  H   UNL     1       2.427   0.260  20.967  0.00  0.00    +0.210 HD
ENDBRANCH   9   3
BRANCH  10   6
ATOM      6  N   UNL     1       1.006  -1.706  24.201  0.00  0.00    -0.305 NA
ATOM     31  H   UNL     1       0.785  -1.013  24.917  0.00  0.00    +0.123 HD
BRANCH   6  18
ATOM     18  C   UNL     1      -0.215  -2.236  23.620  0.00  0.00    +0.120 C 
BRANCH  18  20
ATOM     20  C   UNL     1      -1.413  -1.968  24.491  0.00  0.00    +0.008 A 
ATOM     23  C   UNL     1      -1.355  -1.019  25.511  0.00  0.00    +0.121 A 
ATOM     24  C   UNL     1      -2.591  -2.682  24.268  0.00  0.00    +0.008 A 
ATOM     27  C   UNL     1      -2.474  -0.784  26.310  0.00  0.00    +0.046 A 
ATOM     28  C   UNL     1      -3.710  -2.446  25.066  0.00  0.00    +0.001 A 
ATOM     30  C   UNL     1      -3.652  -1.497  26.088  0.00  0.00    +0.004 A 
BRANCH  23   4
ATOM      4  O   UNL     1      -0.212  -0.314  25.743  0.00  0.00    -0.506 OA
ATOM     33  H   UNL     1       0.504  -0.932  25.966  0.00  0.00    +0.292 HD
ENDBRANCH  23   4
ENDBRANCH  18  20
ENDBRANCH   6  18
ENDBRANCH  10   6
TORSDOF 7
ENDMDL
MODEL 8
REMARK VINA RESULT:       5.0      1.792      4.162
REMARK  Name = 25314972
REMARK  7 active torsions:
REMARK  status: ('A' for Active; 'I' for Inactive)
REMARK    1  A    between atoms: O_3  and  C_9
REMARK    2  A    between atoms: O_4  and  C_23
REMARK    3  A    between atoms: N_5  and  C_8
REMARK    4  A    between atoms: N_6  and  C_10
REMARK    5  A    between atoms: N_6  and  C_18
REMARK    6  A    between atoms: N_7  and  C_19
REMARK    7  A    between atoms: C_18  and  C_20
REMARK                            x       y       z     vdW  Elec       q    Type
REMARK                         _______ _______ _______ _____ _____    ______ ____
ROOT
ATOM      1  O   UNL     1      -4.672   2.196  26.940  0.00  0.00    -0.343 OA
ATOM      2  O   UNL     1      -6.390   0.678  26.598  0.00  0.00    -0.347 OA
ATOM      8  C   UNL     1      -4.659   0.872  24.921  0.00  0.00    +0.143 C 
ATOM      9  C   UNL     1      -5.467   1.964  24.183  0.00  0.00    +0.156 C 
ATOM     10  C   UNL     1      -5.703   3.244  25.021  0.00  0.00    +0.116 C 
ATOM     11  C   UNL     1      -5.819   2.949  26.534  0.00  0.00    +0.166 C 
ATOM     12  C   UNL     1      -4.980   0.893  26.427  0.00  0.00    +0.270 C 
ATOM     13  C   UNL     1      -6.927   1.976  26.895  0.00  0.00    +0.196 C 
ENDROOT
BRANCH   8   5
ATOM      5  N   UNL     1      -3.222   1.060  24.713  0.00  0.00    -0.290 NA
ATOM      7  N   UNL     1      -0.675   0.575  23.515  0.00  0.00    -0.327 N 
ATOM     14  C   UNL     1      -2.954   1.494  23.337  0.00  0.00    +0.104 C 
ATOM     15  C   UNL     1      -2.494  -0.182  24.997  0.00  0.00    +0.104 C 
ATOM     16  C   UNL     1      -1.461   1.750  23.122  0.00  0.00    +0.120 C 
ATOM     17  C   UNL     1      -0.985   0.018  24.838  0.00  0.00    +0.120 C 
BRANCH   7  19
ATOM     19  C   UNL     1       0.623   0.410  23.019  0.00  0.00    +0.030 A 
ATOM     21  C   UNL     1       0.855  -0.446  21.944  0.00  0.00    +0.023 A 
ATOM     22  C   UNL     1       1.684   1.103  23.601  0.00  0.00    +0.023 A 
ATOM     25  C   UNL     1       2.149  -0.610  21.450  0.00  0.00    +0.002 A 
ATOM     26  C   UNL     1       2.979   0.939  23.109  0.00  0.00    +0.002 A 
ATOM     29  C   UNL     1       3.211   0.082  22.032  0.00  0.00    +0.000 A 
ENDBRANCH   7  19
ENDBRANCH   8   5
BRANCH   9   3
ATOM      3  O   UNL     1      -6.743   1.402  23.839  0.00  0.00    -0.388 OA
ATOM     32  H   UNL     1      -6.796   1.366  22.870  0.00  0.00    +0.210 HD
ENDBRANCH   9   3
BRANCH  10   6
ATOM      6  N   UNL     1      -4.606   4.198  24.824  0.00  0.00    -0.305 NA
ATOM     31  H   UNL     1      -4.985   5.094  24.514  0.00  0.00    +0.123 HD
BRANCH   6  18
ATOM     18  C   UNL     1      -3.851   4.368  26.052  0.00  0.00    +0.120 C 
BRANCH  18  20
ATOM     20  C   UNL     1      -2.378   4.139  25.841  0.00  0.00    +0.008 A 
ATOM     23  C   UNL     1      -1.652   4.935  24.957  0.00  0.00    +0.121 A 
ATOM     24  C   UNL     1      -1.741   3.115  26.543  0.00  0.00    +0.008 A 
ATOM     27  C   UNL     1      -0.288   4.708  24.772  0.00  0.00    +0.046 A 
ATOM     28  C   UNL     1      -0.377   2.888  26.358  0.00  0.00    +0.001 A 
ATOM     30  C   UNL     1       0.350   3.685  25.472  0.00  0.00    +0.004 A 
BRANCH  23   4
ATOM      4  O   UNL     1      -2.259   5.939  24.263  0.00  0.00    -0.506 OA
ATOM     33  H   UNL     1      -2.799   6.468  24.875  0.00  0.00    +0.292 HD
ENDBRANCH  23   4
ENDBRANCH  18  20
ENDBRANCH   6  18
ENDBRANCH  10   6
TORSDOF 7
ENDMDL
