MODEL 1
REMARK VINA RESULT:      -2.5      0.000      0.000
REMARK  Name = 56775832
REMARK  6 active torsions:
REMARK  status: ('A' for Active; 'I' for Inactive)
REMARK    1  A    between atoms: N_5  and  C_8
REMARK    2  A    between atoms: N_5  and  C_13
REMARK    3  A    between atoms: C_8  and  C_11
REMARK    4  A    between atoms: C_11  and  C_12
REMARK    5  A    between atoms: C_13  and  C_22
REMARK    6  A    between atoms: C_20  and  C_21
REMARK                            x       y       z     vdW  Elec       q    Type
REMARK                         _______ _______ _______ _____ _____    ______ ____
ROOT
ATOM      2  O   UNL     1       4.352   0.058  22.719  0.00  0.00    -0.376 OA
ATOM      8  C   UNL     1       2.255   0.242  23.073  0.00  0.00    +0.072 C 
ATOM      9  C   UNL     1       3.292   0.845  22.132  0.00  0.00    +0.184 C 
ATOM     10  C   UNL     1       3.407  -0.623  23.575  0.00  0.00    +0.184 C 
ENDROOT
BRANCH   8   5
ATOM      5  N   UNL     1       1.924   1.222  24.098  0.00  0.00    -0.302 NA
ATOM     28  H   UNL     1       2.720   1.581  24.627  0.00  0.00    +0.123 HD
BRANCH   5  13
ATOM     13  C   UNL     1       1.187   2.332  23.501  0.00  0.00    +0.117 C 
BRANCH  13  22
ATOM      1  F   UNL     1      -2.699   4.406  27.015  0.00  0.00    -0.205 F 
ATOM     22  C   UNL     1       0.149   2.886  24.440  0.00  0.00    -0.033 A 
ATOM     23  C   UNL     1      -0.524   4.064  24.118  0.00  0.00    +0.008 A 
ATOM     24  C   UNL     1      -0.140   2.221  25.632  0.00  0.00    +0.008 A 
ATOM     25  C   UNL     1      -1.486   4.578  24.988  0.00  0.00    +0.038 A 
ATOM     26  C   UNL     1      -1.102   2.734  26.502  0.00  0.00    +0.038 A 
ATOM     27  C   UNL     1      -1.775   3.913  26.180  0.00  0.00    +0.123 A 
ENDBRANCH  13  22
ENDBRANCH   5  13
ENDBRANCH   8   5
BRANCH   8  11
ATOM     11  C   UNL     1       1.018  -0.442  22.477  0.00  0.00    +0.085 C 
BRANCH  11  12
ATOM      3  O   UNL     1      -0.909  -1.367  25.338  0.00  0.00    -0.350 OA
ATOM      7  N   UNL     1       0.268  -1.359  24.601  0.00  0.00    -0.082 NA
ATOM     12  C   UNL     1      -0.017  -0.655  23.502  0.00  0.00    +0.086 A 
ATOM     19  C   UNL     1      -1.346  -0.198  23.489  0.00  0.00    +0.081 A 
ATOM     20  C   UNL     1      -1.864  -0.673  24.666  0.00  0.00    +0.222 A 
BRANCH  20  21
ATOM      4  O   UNL     1      -3.420  -1.294  26.233  0.00  0.00    -0.267 OA
ATOM      6  N   UNL     1      -4.095   0.357  24.721  0.00  0.00    -0.295 N 
ATOM     14  C   UNL     1      -5.735   2.731  24.631  0.00  0.00    +0.003 C 
ATOM     15  C   UNL     1      -4.208   2.812  24.624  0.00  0.00    +0.019 C 
ATOM     16  C   UNL     1      -6.216   1.453  25.319  0.00  0.00    +0.019 C 
ATOM     17  C   UNL     1      -3.588   1.547  24.036  0.00  0.00    +0.108 C 
ATOM     18  C   UNL     1      -5.558   0.219  24.709  0.00  0.00    +0.108 C 
ATOM     21  C   UNL     1      -3.196  -0.557  25.274  0.00  0.00    +0.285 C 
ENDBRANCH  20  21
ENDBRANCH  11  12
ENDBRANCH   8  11
TORSDOF 6
ENDMDL
MODEL 2
REMARK VINA RESULT:      -2.3      2.865      4.443
REMARK  Name = 56775832
REMARK  6 active torsions:
REMARK  status: ('A' for Active; 'I' for Inactive)
REMARK    1  A    between atoms: N_5  and  C_8
REMARK    2  A    between atoms: N_5  and  C_13
REMARK    3  A    between atoms: C_8  and  C_11
REMARK    4  A    between atoms: C_11  and  C_12
REMARK    5  A    between atoms: C_13  and  C_22
REMARK    6  A    between atoms: C_20  and  C_21
REMARK                            x       y       z     vdW  Elec       q    Type
REMARK                         _______ _______ _______ _____ _____    ______ ____
ROOT
ATOM      2  O   UNL     1       0.784  -0.651  21.333  0.00  0.00    -0.376 OA
ATOM      8  C   UNL     1       1.063   0.119  23.304  0.00  0.00    +0.072 C 
ATOM      9  C   UNL     1       1.881  -0.651  22.274  0.00  0.00    +0.184 C 
ATOM     10  C   UNL     1      -0.013   0.160  22.225  0.00  0.00    +0.184 C 
ENDROOT
BRANCH   8   5
ATOM      5  N   UNL     1       0.641  -0.801  24.351  0.00  0.00    -0.302 NA
ATOM     28  H   UNL     1       1.351  -1.016  25.051  0.00  0.00    +0.123 HD
BRANCH   5  13
ATOM     13  C   UNL     1      -0.559  -0.288  25.006  0.00  0.00    +0.117 C 
BRANCH  13  22
ATOM      1  F   UNL     1      -5.140  -3.271  23.638  0.00  0.00    -0.205 F 
ATOM     22  C   UNL     1      -1.783  -1.085  24.641  0.00  0.00    -0.033 A 
ATOM     23  C   UNL     1      -2.957  -0.429  24.272  0.00  0.00    +0.008 A 
ATOM     24  C   UNL     1      -1.743  -2.479  24.672  0.00  0.00    +0.008 A 
ATOM     25  C   UNL     1      -4.091  -1.168  23.933  0.00  0.00    +0.038 A 
ATOM     26  C   UNL     1      -2.876  -3.218  24.333  0.00  0.00    +0.038 A 
ATOM     27  C   UNL     1      -4.051  -2.562  23.964  0.00  0.00    +0.123 A 
ENDBRANCH  13  22
ENDBRANCH   5  13
ENDBRANCH   8   5
BRANCH   8  11
ATOM     11  C   UNL     1       1.614   1.440  23.855  0.00  0.00    +0.085 C 
BRANCH  11  12
ATOM      3  O   UNL     1      -0.535   2.984  26.254  0.00  0.00    -0.350 OA
ATOM      7  N   UNL     1       0.557   2.197  25.910  0.00  0.00    -0.082 NA
ATOM     12  C   UNL     1       0.573   2.192  24.575  0.00  0.00    +0.086 A 
ATOM     19  C   UNL     1      -0.475   2.950  24.025  0.00  0.00    +0.081 A 
ATOM     20  C   UNL     1      -1.142   3.427  25.123  0.00  0.00    +0.222 A 
BRANCH  20  21
ATOM      4  O   UNL     1      -2.159   5.482  25.041  0.00  0.00    -0.267 OA
ATOM      6  N   UNL     1      -3.533   3.685  25.632  0.00  0.00    -0.295 N 
ATOM     14  C   UNL     1      -6.253   2.781  25.294  0.00  0.00    +0.003 C 
ATOM     15  C   UNL     1      -5.095   2.137  24.530  0.00  0.00    +0.019 C 
ATOM     16  C   UNL     1      -5.933   4.230  25.663  0.00  0.00    +0.019 C 
ATOM     17  C   UNL     1      -3.780   2.283  25.292  0.00  0.00    +0.108 C 
ATOM     18  C   UNL     1      -4.604   4.326  26.406  0.00  0.00    +0.108 C 
ATOM     21  C   UNL     1      -2.327   4.283  25.260  0.00  0.00    +0.285 C 
ENDBRANCH  20  21
ENDBRANCH  11  12
ENDBRANCH   8  11
TORSDOF 6
ENDMDL
MODEL 3
REMARK VINA RESULT:      -1.9      2.745      6.999
REMARK  Name = 56775832
REMARK  6 active torsions:
REMARK  status: ('A' for Active; 'I' for Inactive)
REMARK    1  A    between atoms: N_5  and  C_8
REMARK    2  A    between atoms: N_5  and  C_13
REMARK    3  A    between atoms: C_8  and  C_11
REMARK    4  A    between atoms: C_11  and  C_12
REMARK    5  A    between atoms: C_13  and  C_22
REMARK    6  A    between atoms: C_20  and  C_21
REMARK                            x       y       z     vdW  Elec       q    Type
REMARK                         _______ _______ _______ _____ _____    ______ ____
ROOT
ATOM      2  O   UNL     1      -5.545   4.636  25.345  0.00  0.00    -0.376 OA
ATOM      8  C   UNL     1      -3.972   3.216  25.088  0.00  0.00    +0.072 C 
ATOM      9  C   UNL     1      -4.537   4.414  24.333  0.00  0.00    +0.184 C 
ATOM     10  C   UNL     1      -5.000   3.571  26.157  0.00  0.00    +0.184 C 
ENDROOT
BRANCH   8   5
ATOM      5  N   UNL     1      -4.397   1.996  24.418  0.00  0.00    -0.302 NA
ATOM     28  H   UNL     1      -3.728   1.614  23.748  0.00  0.00    +0.123 HD
BRANCH   5  13
ATOM     13  C   UNL     1      -4.737   0.979  25.410  0.00  0.00    +0.117 C 
BRANCH  13  22
ATOM      1  F   UNL     1      -2.695  -4.084  24.014  0.00  0.00    -0.205 F 
ATOM     22  C   UNL     1      -4.191  -0.374  25.037  0.00  0.00    -0.033 A 
ATOM     23  C   UNL     1      -4.673  -1.031  23.906  0.00  0.00    +0.008 A 
ATOM     24  C   UNL     1      -3.205  -0.969  25.823  0.00  0.00    +0.008 A 
ATOM     25  C   UNL     1      -4.167  -2.285  23.560  0.00  0.00    +0.038 A 
ATOM     26  C   UNL     1      -2.699  -2.222  25.478  0.00  0.00    +0.038 A 
ATOM     27  C   UNL     1      -3.181  -2.881  24.346  0.00  0.00    +0.123 A 
ENDBRANCH  13  22
ENDBRANCH   5  13
ENDBRANCH   8   5
BRANCH   8  11
ATOM     11  C   UNL     1      -2.484   3.207  25.462  0.00  0.00    +0.085 C 
BRANCH  11  12
ATOM      3  O   UNL     1      -0.995   1.447  22.735  0.00  0.00    -0.350 OA
ATOM      7  N   UNL     1      -1.832   2.427  23.253  0.00  0.00    -0.082 NA
ATOM     12  C   UNL     1      -1.719   2.311  24.579  0.00  0.00    +0.086 A 
ATOM     19  C   UNL     1      -0.834   1.286  24.953  0.00  0.00    +0.081 A 
ATOM     20  C   UNL     1      -0.406   0.774  23.756  0.00  0.00    +0.222 A 
BRANCH  20  21
ATOM      4  O   UNL     1       0.018  -1.355  23.014  0.00  0.00    -0.267 OA
ATOM      6  N   UNL     1       1.891  -0.090  23.613  0.00  0.00    -0.295 N 
ATOM     14  C   UNL     1       4.642   0.294  22.825  0.00  0.00    +0.003 C 
ATOM     15  C   UNL     1       3.566   1.334  22.510  0.00  0.00    +0.019 C 
ATOM     16  C   UNL     1       4.035  -1.104  22.955  0.00  0.00    +0.019 C 
ATOM     17  C   UNL     1       2.421   1.271  23.519  0.00  0.00    +0.108 C 
ATOM     18  C   UNL     1       2.886  -1.113  23.960  0.00  0.00    +0.108 C 
ATOM     21  C   UNL     1       0.525  -0.313  23.427  0.00  0.00    +0.285 C 
ENDBRANCH  20  21
ENDBRANCH  11  12
ENDBRANCH   8  11
TORSDOF 6
ENDMDL
MODEL 4
REMARK VINA RESULT:      -1.8      2.726      6.905
REMARK  Name = 56775832
REMARK  6 active torsions:
REMARK  status: ('A' for Active; 'I' for Inactive)
REMARK    1  A    between atoms: N_5  and  C_8
REMARK    2  A    between atoms: N_5  and  C_13
REMARK    3  A    between atoms: C_8  and  C_11
REMARK    4  A    between atoms: C_11  and  C_12
REMARK    5  A    between atoms: C_13  and  C_22
REMARK    6  A    between atoms: C_20  and  C_21
REMARK                            x       y       z     vdW  Elec       q    Type
REMARK                         _______ _______ _______ _____ _____    ______ ____
ROOT
ATOM      2  O   UNL     1      -6.965   1.607  26.178  0.00  0.00    -0.376 OA
ATOM      8  C   UNL     1      -5.230   2.505  25.320  0.00  0.00    +0.072 C 
ATOM      9  C   UNL     1      -6.719   2.418  25.007  0.00  0.00    +0.184 C 
ATOM     10  C   UNL     1      -5.583   1.728  26.584  0.00  0.00    +0.184 C 
ENDROOT
BRANCH   8   5
ATOM      5  N   UNL     1      -4.507   1.622  24.415  0.00  0.00    -0.302 NA
ATOM     28  H   UNL     1      -3.490   1.688  24.465  0.00  0.00    +0.123 HD
BRANCH   5  13
ATOM     13  C   UNL     1      -4.924   0.240  24.636  0.00  0.00    +0.117 C 
BRANCH  13  22
ATOM      1  F   UNL     1      -0.510  -3.209  25.260  0.00  0.00    -0.205 F 
ATOM     22  C   UNL     1      -3.745  -0.682  24.802  0.00  0.00    -0.033 A 
ATOM     23  C   UNL     1      -2.663  -0.293  25.592  0.00  0.00    +0.008 A 
ATOM     24  C   UNL     1      -3.734  -1.923  24.167  0.00  0.00    +0.008 A 
ATOM     25  C   UNL     1      -1.570  -1.147  25.747  0.00  0.00    +0.038 A 
ATOM     26  C   UNL     1      -2.642  -2.777  24.322  0.00  0.00    +0.038 A 
ATOM     27  C   UNL     1      -1.559  -2.389  25.112  0.00  0.00    +0.123 A 
ENDBRANCH  13  22
ENDBRANCH   5  13
ENDBRANCH   8   5
BRANCH   8  11
ATOM     11  C   UNL     1      -4.577   3.887  25.456  0.00  0.00    +0.085 C 
BRANCH  11  12
ATOM      3  O   UNL     1      -1.067   4.463  25.136  0.00  0.00    -0.350 OA
ATOM      7  N   UNL     1      -2.384   4.903  25.192  0.00  0.00    -0.082 NA
ATOM     12  C   UNL     1      -3.111   3.795  25.356  0.00  0.00    +0.086 A 
ATOM     19  C   UNL     1      -2.317   2.637  25.409  0.00  0.00    +0.081 A 
ATOM     20  C   UNL     1      -1.040   3.112  25.266  0.00  0.00    +0.222 A 
BRANCH  20  21
ATOM      4  O   UNL     1       0.928   2.490  26.269  0.00  0.00    -0.267 OA
ATOM      6  N   UNL     1       0.651   1.806  24.050  0.00  0.00    -0.295 N 
ATOM     14  C   UNL     1       1.303  -0.416  22.327  0.00  0.00    +0.003 C 
ATOM     15  C   UNL     1      -0.122  -0.187  22.833  0.00  0.00    +0.019 C 
ATOM     16  C   UNL     1       2.332   0.177  23.289  0.00  0.00    +0.019 C 
ATOM     17  C   UNL     1      -0.371   1.288  23.139  0.00  0.00    +0.108 C 
ATOM     18  C   UNL     1       2.032   1.646  23.577  0.00  0.00    +0.108 C 
ATOM     21  C   UNL     1       0.264   2.437  25.234  0.00  0.00    +0.285 C 
ENDBRANCH  20  21
ENDBRANCH  11  12
ENDBRANCH   8  11
TORSDOF 6
ENDMDL
MODEL 5
REMARK VINA RESULT:      -1.6      2.566      4.768
REMARK  Name = 56775832
REMARK  6 active torsions:
REMARK  status: ('A' for Active; 'I' for Inactive)
REMARK    1  A    between atoms: N_5  and  C_8
REMARK    2  A    between atoms: N_5  and  C_13
REMARK    3  A    between atoms: C_8  and  C_11
REMARK    4  A    between atoms: C_11  and  C_12
REMARK    5  A    between atoms: C_13  and  C_22
REMARK    6  A    between atoms: C_20  and  C_21
REMARK                            x       y       z     vdW  Elec       q    Type
REMARK                         _______ _______ _______ _____ _____    ______ ____
ROOT
ATOM      2  O   UNL     1      -1.518   6.181  24.994  0.00  0.00    -0.376 OA
ATOM      8  C   UNL     1      -1.009   4.111  24.905  0.00  0.00    +0.072 C 
ATOM      9  C   UNL     1      -0.499   5.418  24.312  0.00  0.00    +0.184 C 
ATOM     10  C   UNL     1      -1.994   4.992  25.665  0.00  0.00    +0.184 C 
ENDROOT
BRANCH   8   5
ATOM      5  N   UNL     1      -1.734   3.379  23.876  0.00  0.00    -0.302 NA
ATOM     28  H   UNL     1      -1.818   2.375  24.035  0.00  0.00    +0.123 HD
BRANCH   5  13
ATOM     13  C   UNL     1      -3.061   3.963  23.696  0.00  0.00    +0.117 C 
BRANCH  13  22
ATOM      1  F   UNL     1      -6.957   1.321  26.793  0.00  0.00    -0.205 F 
ATOM     22  C   UNL     1      -4.102   3.257  24.524  0.00  0.00    -0.033 A 
ATOM     23  C   UNL     1      -5.034   3.997  25.250  0.00  0.00    +0.008 A 
ATOM     24  C   UNL     1      -4.133   1.863  24.564  0.00  0.00    +0.008 A 
ATOM     25  C   UNL     1      -6.000   3.342  26.016  0.00  0.00    +0.038 A 
ATOM     26  C   UNL     1      -5.098   1.209  25.330  0.00  0.00    +0.038 A 
ATOM     27  C   UNL     1      -6.031   1.949  26.057  0.00  0.00    +0.123 A 
ENDBRANCH  13  22
ENDBRANCH   5  13
ENDBRANCH   8   5
BRANCH   8  11
ATOM     11  C   UNL     1      -0.040   3.224  25.699  0.00  0.00    +0.085 C 
BRANCH  11  12
ATOM      3  O   UNL     1       0.335   0.120  23.974  0.00  0.00    -0.350 OA
ATOM      7  N   UNL     1       0.595   1.475  24.134  0.00  0.00    -0.082 NA
ATOM     12  C   UNL     1      -0.086   1.831  25.227  0.00  0.00    +0.086 A 
ATOM     19  C   UNL     1      -0.789   0.754  25.793  0.00  0.00    +0.081 A 
ATOM     20  C   UNL     1      -0.491  -0.298  24.968  0.00  0.00    +0.222 A 
BRANCH  20  21
ATOM      4  O   UNL     1      -0.232  -2.454  25.708  0.00  0.00    -0.267 OA
ATOM      6  N   UNL     1      -1.975  -2.098  24.192  0.00  0.00    -0.295 N 
ATOM     14  C   UNL     1      -4.645  -3.045  23.634  0.00  0.00    +0.003 C 
ATOM     15  C   UNL     1      -4.396  -1.670  24.256  0.00  0.00    +0.019 C 
ATOM     16  C   UNL     1      -3.505  -4.012  23.961  0.00  0.00    +0.019 C 
ATOM     17  C   UNL     1      -3.023  -1.127  23.871  0.00  0.00    +0.108 C 
ATOM     18  C   UNL     1      -2.154  -3.418  23.574  0.00  0.00    +0.108 C 
ATOM     21  C   UNL     1      -0.895  -1.710  24.987  0.00  0.00    +0.285 C 
ENDBRANCH  20  21
ENDBRANCH  11  12
ENDBRANCH   8  11
TORSDOF 6
ENDMDL
MODEL 6
REMARK VINA RESULT:      -1.1      1.703      6.301
REMARK  Name = 56775832
REMARK  6 active torsions:
REMARK  status: ('A' for Active; 'I' for Inactive)
REMARK    1  A    between atoms: N_5  and  C_8
REMARK    2  A    between atoms: N_5  and  C_13
REMARK    3  A    between atoms: C_8  and  C_11
REMARK    4  A    between atoms: C_11  and  C_12
REMARK    5  A    between atoms: C_13  and  C_22
REMARK    6  A    between atoms: C_20  and  C_21
REMARK                            x       y       z     vdW  Elec       q    Type
REMARK                         _______ _______ _______ _____ _____    ______ ____
ROOT
ATOM      2  O   UNL     1      -4.369  -2.150  23.378  0.00  0.00    -0.376 OA
ATOM      8  C   UNL     1      -3.645  -0.984  25.013  0.00  0.00    +0.072 C 
ATOM      9  C   UNL     1      -4.393  -2.297  24.815  0.00  0.00    +0.184 C 
ATOM     10  C   UNL     1      -3.575  -0.947  23.490  0.00  0.00    +0.184 C 
ENDROOT
BRANCH   8   5
ATOM      5  N   UNL     1      -4.587   0.030  25.463  0.00  0.00    -0.302 NA
ATOM     28  H   UNL     1      -4.367   0.457  26.363  0.00  0.00    +0.123 HD
BRANCH   5  13
ATOM     13  C   UNL     1      -4.721   1.068  24.445  0.00  0.00    +0.117 C 
BRANCH  13  22
ATOM      1  F   UNL     1      -1.263   5.413  25.406  0.00  0.00    -0.205 F 
ATOM     22  C   UNL     1      -3.797   2.229  24.702  0.00  0.00    -0.033 A 
ATOM     23  C   UNL     1      -2.704   2.449  23.864  0.00  0.00    +0.008 A 
ATOM     24  C   UNL     1      -4.033   3.084  25.778  0.00  0.00    +0.008 A 
ATOM     25  C   UNL     1      -1.848   3.525  24.101  0.00  0.00    +0.038 A 
ATOM     26  C   UNL     1      -3.178   4.160  26.016  0.00  0.00    +0.038 A 
ATOM     27  C   UNL     1      -2.085   4.380  25.177  0.00  0.00    +0.123 A 
ENDBRANCH  13  22
ENDBRANCH   5  13
ENDBRANCH   8   5
BRANCH   8  11
ATOM     11  C   UNL     1      -2.338  -0.986  25.816  0.00  0.00    +0.085 C 
BRANCH  11  12
ATOM      3  O   UNL     1       0.241  -0.862  23.349  0.00  0.00    -0.350 OA
ATOM      7  N   UNL     1      -0.874  -1.451  23.930  0.00  0.00    -0.082 NA
ATOM     12  C   UNL     1      -1.186  -0.658  24.959  0.00  0.00    +0.086 A 
ATOM     19  C   UNL     1      -0.312   0.436  25.076  0.00  0.00    +0.081 A 
ATOM     20  C   UNL     1       0.567   0.261  24.039  0.00  0.00    +0.222 A 
BRANCH  20  21
ATOM      4  O   UNL     1       1.612   2.266  23.649  0.00  0.00    -0.267 OA
ATOM      6  N   UNL     1       2.846   0.352  23.122  0.00  0.00    -0.295 N 
ATOM     14  C   UNL     1       5.573  -0.595  23.153  0.00  0.00    +0.003 C 
ATOM     15  C   UNL     1       4.546  -1.077  24.179  0.00  0.00    +0.019 C 
ATOM     16  C   UNL     1       5.216   0.796  22.628  0.00  0.00    +0.019 C 
ATOM     17  C   UNL     1       3.126  -0.994  23.624  0.00  0.00    +0.108 C 
ATOM     18  C   UNL     1       3.785   0.833  22.100  0.00  0.00    +0.108 C 
ATOM     21  C   UNL     1       1.726   1.043  23.588  0.00  0.00    +0.285 C 
ENDBRANCH  20  21
ENDBRANCH  11  12
ENDBRANCH   8  11
TORSDOF 6
ENDMDL
MODEL 7
REMARK VINA RESULT:      -0.3      2.372      5.159
REMARK  Name = 56775832
REMARK  6 active torsions:
REMARK  status: ('A' for Active; 'I' for Inactive)
REMARK    1  A    between atoms: N_5  and  C_8
REMARK    2  A    between atoms: N_5  and  C_13
REMARK    3  A    between atoms: C_8  and  C_11
REMARK    4  A    between atoms: C_11  and  C_12
REMARK    5  A    between atoms: C_13  and  C_22
REMARK    6  A    between atoms: C_20  and  C_21
REMARK                            x       y       z     vdW  Elec       q    Type
REMARK                         _______ _______ _______ _____ _____    ______ ____
ROOT
ATOM      2  O   UNL     1      -4.350  -3.927  24.135  0.00  0.00    -0.376 OA
ATOM      8  C   UNL     1      -2.903  -2.457  24.683  0.00  0.00    +0.072 C 
ATOM      9  C   UNL     1      -3.597  -3.647  25.336  0.00  0.00    +0.184 C 
ATOM     10  C   UNL     1      -3.660  -2.872  23.427  0.00  0.00    +0.184 C 
ENDROOT
BRANCH   8   5
ATOM      5  N   UNL     1      -3.491  -1.230  25.200  0.00  0.00    -0.302 NA
ATOM     28  H   UNL     1      -2.844  -0.613  25.692  0.00  0.00    +0.123 HD
BRANCH   5  13
ATOM     13  C   UNL     1      -4.141  -0.498  24.116  0.00  0.00    +0.117 C 
BRANCH  13  22
ATOM      1  F   UNL     1      -5.820   4.627  25.749  0.00  0.00    -0.205 F 
ATOM     22  C   UNL     1      -4.589   0.871  24.553  0.00  0.00    -0.033 A 
ATOM     23  C   UNL     1      -4.068   2.006  23.932  0.00  0.00    +0.008 A 
ATOM     24  C   UNL     1      -5.525   1.005  25.578  0.00  0.00    +0.008 A 
ATOM     25  C   UNL     1      -4.485   3.275  24.336  0.00  0.00    +0.038 A 
ATOM     26  C   UNL     1      -5.942   2.274  25.982  0.00  0.00    +0.038 A 
ATOM     27  C   UNL     1      -5.420   3.409  25.361  0.00  0.00    +0.123 A 
ENDBRANCH  13  22
ENDBRANCH   5  13
ENDBRANCH   8   5
BRANCH   8  11
ATOM     11  C   UNL     1      -1.369  -2.417  24.647  0.00  0.00    +0.085 C 
BRANCH  11  12
ATOM      3  O   UNL     1       0.341   0.707  24.394  0.00  0.00    -0.350 OA
ATOM      7  N   UNL     1       0.121  -0.608  24.002  0.00  0.00    -0.082 NA
ATOM     12  C   UNL     1      -0.870  -1.040  24.787  0.00  0.00    +0.086 A 
ATOM     19  C   UNL     1      -1.310  -0.053  25.686  0.00  0.00    +0.081 A 
ATOM     20  C   UNL     1      -0.516   1.026  25.397  0.00  0.00    +0.222 A 
BRANCH  20  21
ATOM      4  O   UNL     1       0.051   2.477  27.081  0.00  0.00    -0.267 OA
ATOM      6  N   UNL     1      -0.965   3.436  25.206  0.00  0.00    -0.295 N 
ATOM     14  C   UNL     1      -0.873   5.860  23.642  0.00  0.00    +0.003 C 
ATOM     15  C   UNL     1      -0.279   4.550  23.123  0.00  0.00    +0.019 C 
ATOM     16  C   UNL     1      -0.880   5.895  25.171  0.00  0.00    +0.019 C 
ATOM     17  C   UNL     1      -0.974   3.341  23.745  0.00  0.00    +0.108 C 
ATOM     18  C   UNL     1      -1.570   4.661  25.745  0.00  0.00    +0.108 C 
ATOM     21  C   UNL     1      -0.452   2.380  25.962  0.00  0.00    +0.285 C 
ENDBRANCH  20  21
ENDBRANCH  11  12
ENDBRANCH   8  11
TORSDOF 6
ENDMDL
MODEL 8
REMARK VINA RESULT:      -0.0      2.896      6.831
REMARK  Name = 56775832
REMARK  6 active torsions:
REMARK  status: ('A' for Active; 'I' for Inactive)
REMARK    1  A    between atoms: N_5  and  C_8
REMARK    2  A    between atoms: N_5  and  C_13
REMARK    3  A    between atoms: C_8  and  C_11
REMARK    4  A    between atoms: C_11  and  C_12
REMARK    5  A    between atoms: C_13  and  C_22
REMARK    6  A    between atoms: C_20  and  C_21
REMARK                            x       y       z     vdW  Elec       q    Type
REMARK                         _______ _______ _______ _____ _____    ______ ____
ROOT
ATOM      2  O   UNL     1      -6.660   4.220  25.827  0.00  0.00    -0.376 OA
ATOM      8  C   UNL     1      -4.576   3.803  25.636  0.00  0.00    +0.072 C 
ATOM      9  C   UNL     1      -5.568   4.831  25.105  0.00  0.00    +0.184 C 
ATOM     10  C   UNL     1      -5.757   3.272  26.441  0.00  0.00    +0.184 C 
ENDROOT
BRANCH   8   5
ATOM      5  N   UNL     1      -4.269   2.855  24.575  0.00  0.00    -0.302 NA
ATOM     28  H   UNL     1      -3.338   2.439  24.621  0.00  0.00    +0.123 HD
BRANCH   5  13
ATOM     13  C   UNL     1      -5.280   1.800  24.547  0.00  0.00    +0.117 C 
BRANCH  13  22
ATOM      1  F   UNL     1      -2.998  -3.313  25.185  0.00  0.00    -0.205 F 
ATOM     22  C   UNL     1      -4.670   0.434  24.718  0.00  0.00    -0.033 A 
ATOM     23  C   UNL     1      -4.566  -0.424  23.623  0.00  0.00    +0.008 A 
ATOM     24  C   UNL     1      -4.210   0.027  25.969  0.00  0.00    +0.008 A 
ATOM     25  C   UNL     1      -4.001  -1.690  23.781  0.00  0.00    +0.038 A 
ATOM     26  C   UNL     1      -3.645  -1.238  26.128  0.00  0.00    +0.038 A 
ATOM     27  C   UNL     1      -3.541  -2.097  25.033  0.00  0.00    +0.123 A 
ENDBRANCH  13  22
ENDBRANCH   5  13
ENDBRANCH   8   5
BRANCH   8  11
ATOM     11  C   UNL     1      -3.327   4.290  26.383  0.00  0.00    +0.085 C 
BRANCH  11  12
ATOM      3  O   UNL     1      -0.298   4.178  24.495  0.00  0.00    -0.350 OA
ATOM      7  N   UNL     1      -1.362   4.862  25.070  0.00  0.00    -0.082 NA
ATOM     12  C   UNL     1      -2.098   3.918  25.663  0.00  0.00    +0.086 A 
ATOM     19  C   UNL     1      -1.555   2.633  25.497  0.00  0.00    +0.081 A 
ATOM     20  C   UNL     1      -0.424   2.852  24.755  0.00  0.00    +0.222 A 
BRANCH  20  21
ATOM      4  O   UNL     1       1.712   2.433  24.031  0.00  0.00    -0.267 OA
ATOM      6  N   UNL     1       0.249   0.610  24.002  0.00  0.00    -0.295 N 
ATOM     14  C   UNL     1       0.270  -2.246  24.421  0.00  0.00    +0.003 C 
ATOM     15  C   UNL     1      -0.335  -1.290  25.450  0.00  0.00    +0.019 C 
ATOM     16  C   UNL     1       1.353  -1.551  23.594  0.00  0.00    +0.019 C 
ATOM     17  C   UNL     1      -0.821  -0.001  24.791  0.00  0.00    +0.108 C 
ATOM     18  C   UNL     1       0.825  -0.262  22.970  0.00  0.00    +0.108 C 
ATOM     21  C   UNL     1       0.603   1.941  24.234  0.00  0.00    +0.285 C 
ENDBRANCH  20  21
ENDBRANCH  11  12
ENDBRANCH   8  11
TORSDOF 6
ENDMDL
MODEL 9
REMARK VINA RESULT:       0.2      2.687      4.966
REMARK  Name = 56775832
REMARK  6 active torsions:
REMARK  status: ('A' for Active; 'I' for Inactive)
REMARK    1  A    between atoms: N_5  and  C_8
REMARK    2  A    between atoms: N_5  and  C_13
REMARK    3  A    between atoms: C_8  and  C_11
REMARK    4  A    between atoms: C_11  and  C_12
REMARK    5  A    between atoms: C_13  and  C_22
REMARK    6  A    between atoms: C_20  and  C_21
REMARK                            x       y       z     vdW  Elec       q    Type
REMARK                         _______ _______ _______ _____ _____    ______ ____
ROOT
ATOM      2  O   UNL     1       0.224  -2.494  25.928  0.00  0.00    -0.376 OA
ATOM      8  C   UNL     1      -1.466  -2.078  24.694  0.00  0.00    +0.072 C 
ATOM      9  C   UNL     1      -0.589  -3.279  25.027  0.00  0.00    +0.184 C 
ATOM     10  C   UNL     1      -0.624  -1.341  25.730  0.00  0.00    +0.184 C 
ENDROOT
BRANCH   8   5
ATOM      5  N   UNL     1      -1.110  -1.589  23.369  0.00  0.00    -0.302 NA
ATOM     28  H   UNL     1      -1.805  -1.761  22.642  0.00  0.00    +0.123 HD
BRANCH   5  13
ATOM     13  C   UNL     1      -0.806  -0.162  23.433  0.00  0.00    +0.117 C 
BRANCH  13  22
ATOM      1  F   UNL     1       4.563   0.903  22.093  0.00  0.00    -0.205 F 
ATOM     22  C   UNL     1       0.629   0.122  23.075  0.00  0.00    -0.033 A 
ATOM     23  C   UNL     1       1.236  -0.568  22.027  0.00  0.00    +0.008 A 
ATOM     24  C   UNL     1       1.351   1.076  23.792  0.00  0.00    +0.008 A 
ATOM     25  C   UNL     1       2.565  -0.304  21.694  0.00  0.00    +0.038 A 
ATOM     26  C   UNL     1       2.680   1.341  23.460  0.00  0.00    +0.038 A 
ATOM     27  C   UNL     1       3.287   0.650  22.411  0.00  0.00    +0.123 A 
ENDBRANCH  13  22
ENDBRANCH   5  13
ENDBRANCH   8   5
BRANCH   8  11
ATOM     11  C   UNL     1      -2.982  -2.182  24.905  0.00  0.00    +0.085 C 
BRANCH  11  12
ATOM      3  O   UNL     1      -5.106   0.646  24.408  0.00  0.00    -0.350 OA
ATOM      7  N   UNL     1      -4.807  -0.704  24.273  0.00  0.00    -0.082 NA
ATOM     12  C   UNL     1      -3.617  -0.854  24.862  0.00  0.00    +0.086 A 
ATOM     19  C   UNL     1      -3.121   0.354  25.381  0.00  0.00    +0.081 A 
ATOM     20  C   UNL     1      -4.095   1.266  25.069  0.00  0.00    +0.222 A 
BRANCH  20  21
ATOM      4  O   UNL     1      -5.196   3.070  25.961  0.00  0.00    -0.267 OA
ATOM      6  N   UNL     1      -3.216   3.547  24.813  0.00  0.00    -0.295 N 
ATOM     14  C   UNL     1      -0.983   5.373  24.926  0.00  0.00    +0.003 C 
ATOM     15  C   UNL     1      -0.840   3.906  25.335  0.00  0.00    +0.019 C 
ATOM     16  C   UNL     1      -2.422   5.858  25.107  0.00  0.00    +0.019 C 
ATOM     17  C   UNL     1      -1.861   3.027  24.618  0.00  0.00    +0.108 C 
ATOM     18  C   UNL     1      -3.405   4.940  24.387  0.00  0.00    +0.108 C 
ATOM     21  C   UNL     1      -4.210   2.708  25.320  0.00  0.00    +0.285 C 
ENDBRANCH  20  21
ENDBRANCH  11  12
ENDBRANCH   8  11
TORSDOF 6
ENDMDL
MODEL 10
REMARK VINA RESULT:       0.4      1.850      5.869
REMARK  Name = 56775832
REMARK  6 active torsions:
REMARK  status: ('A' for Active; 'I' for Inactive)
REMARK    1  A    between atoms: N_5  and  C_8
REMARK    2  A    between atoms: N_5  and  C_13
REMARK    3  A    between atoms: C_8  and  C_11
REMARK    4  A    between atoms: C_11  and  C_12
REMARK    5  A    between atoms: C_13  and  C_22
REMARK    6  A    between atoms: C_20  and  C_21
REMARK                            x       y       z     vdW  Elec       q    Type
REMARK                         _______ _______ _______ _____ _____    ______ ____
ROOT
ATOM      2  O   UNL     1      -6.279   3.291  25.557  0.00  0.00    -0.376 OA
ATOM      8  C   UNL     1      -5.125   1.602  24.948  0.00  0.00    +0.072 C 
ATOM      9  C   UNL     1      -4.996   2.749  25.943  0.00  0.00    +0.184 C 
ATOM     10  C   UNL     1      -6.508   2.179  24.663  0.00  0.00    +0.184 C 
ENDROOT
BRANCH   8   5
ATOM      5  N   UNL     1      -4.262   1.871  23.807  0.00  0.00    -0.302 NA
ATOM     28  H   UNL     1      -4.720   1.827  22.896  0.00  0.00    +0.123 HD
BRANCH   5  13
ATOM     13  C   UNL     1      -3.616   3.171  23.971  0.00  0.00    +0.117 C 
BRANCH  13  22
ATOM      1  F   UNL     1       1.263   2.755  26.759  0.00  0.00    -0.205 F 
ATOM     22  C   UNL     1      -2.312   3.060  24.715  0.00  0.00    -0.033 A 
ATOM     23  C   UNL     1      -2.272   3.300  26.089  0.00  0.00    +0.008 A 
ATOM     24  C   UNL     1      -1.146   2.718  24.033  0.00  0.00    +0.008 A 
ATOM     25  C   UNL     1      -1.064   3.197  26.779  0.00  0.00    +0.038 A 
ATOM     26  C   UNL     1       0.062   2.614  24.723  0.00  0.00    +0.038 A 
ATOM     27  C   UNL     1       0.103   2.854  26.097  0.00  0.00    +0.123 A 
ENDBRANCH  13  22
ENDBRANCH   5  13
ENDBRANCH   8   5
BRANCH   8  11
ATOM     11  C   UNL     1      -5.013   0.159  25.456  0.00  0.00    +0.085 C 
BRANCH  11  12
ATOM      3  O   UNL     1      -2.443  -1.769  23.897  0.00  0.00    -0.350 OA
ATOM      7  N   UNL     1      -3.773  -1.403  24.066  0.00  0.00    -0.082 NA
ATOM     12  C   UNL     1      -3.754  -0.463  25.015  0.00  0.00    +0.086 A 
ATOM     19  C   UNL     1      -2.454  -0.198  25.479  0.00  0.00    +0.081 A 
ATOM     20  C   UNL     1      -1.668  -1.045  24.744  0.00  0.00    +0.222 A 
BRANCH  20  21
ATOM      4  O   UNL     1       0.210  -2.093  25.544  0.00  0.00    -0.267 OA
ATOM      6  N   UNL     1       0.555  -0.558  23.814  0.00  0.00    -0.295 N 
ATOM     14  C   UNL     1       2.251  -0.173  21.509  0.00  0.00    +0.003 C 
ATOM     15  C   UNL     1       0.784  -0.583  21.365  0.00  0.00    +0.019 C 
ATOM     16  C   UNL     1       2.820  -0.627  22.854  0.00  0.00    +0.019 C 
ATOM     17  C   UNL     1      -0.044  -0.108  22.557  0.00  0.00    +0.108 C 
ATOM     18  C   UNL     1       1.951  -0.144  24.011  0.00  0.00    +0.108 C 
ATOM     21  C   UNL     1      -0.217  -1.276  24.729  0.00  0.00    +0.285 C 
ENDBRANCH  20  21
ENDBRANCH  11  12
ENDBRANCH   8  11
TORSDOF 6
ENDMDL
