MODEL 1
REMARK VINA RESULT:      -5.7      0.000      0.000
REMARK  Name = 75537095
REMARK  5 active torsions:
REMARK  status: ('A' for Active; 'I' for Inactive)
REMARK    1  A    between atoms: N_4  and  C_13
REMARK    2  A    between atoms: N_5  and  C_14
REMARK    3  A    between atoms: C_13  and  C_15
REMARK    4  A    between atoms: C_14  and  C_16
REMARK    5  A    between atoms: C_17  and  C_21
REMARK                            x       y       z     vdW  Elec       q    Type
REMARK                         _______ _______ _______ _____ _____    ______ ____
ROOT
ATOM      2  O   UNL     1      -1.403 -10.661  14.757  0.00  0.00    -0.252 OA
ATOM      3  N   UNL     1      -2.957 -10.623  12.995  0.00  0.00    -0.278 N 
ATOM      4  N   UNL     1      -4.115  -9.913  10.532  0.00  0.00    -0.293 NA
ATOM      5  N   UNL     1      -3.734 -10.544  15.101  0.00  0.00    -0.279 N 
ATOM      7  C   UNL     1      -4.397 -10.683  12.853  0.00  0.00    +0.109 C 
ATOM      8  C   UNL     1      -4.868  -9.697  11.785  0.00  0.00    +0.109 C 
ATOM      9  C   UNL     1      -4.911 -10.398  14.262  0.00  0.00    +0.133 C 
ATOM     10  C   UNL     1      -2.125 -10.676  11.810  0.00  0.00    +0.125 C 
ATOM     11  C   UNL     1      -2.667  -9.718  10.747  0.00  0.00    +0.104 C 
ATOM     12  C   UNL     1      -2.552 -10.620  14.337  0.00  0.00    +0.305 C 
ENDROOT
BRANCH   4  13
ATOM     13  C   UNL     1      -4.601  -9.015   9.486  0.00  0.00    +0.140 C 
BRANCH  13  15
ATOM      6  N   UNL     1      -6.428 -10.549   9.099  0.00  0.00    -0.258 NA
ATOM     15  C   UNL     1      -6.048  -9.254   9.166  0.00  0.00    +0.058 A 
ATOM     17  C   UNL     1      -6.903  -8.183   8.958  0.00  0.00    -0.028 A 
ATOM     20  C   UNL     1      -8.233  -8.460   8.661  0.00  0.00    +0.006 A 
ATOM     21  C   UNL     1      -6.438  -6.771   9.042  0.00  0.00    +0.045 C 
ATOM     24  C   UNL     1      -7.728 -10.780   8.809  0.00  0.00    +0.111 A 
ATOM     25  C   UNL     1      -8.662  -9.781   8.584  0.00  0.00    +0.020 A 
ENDBRANCH  13  15
ENDBRANCH   4  13
BRANCH   5  14
ATOM     14  C   UNL     1      -3.805 -10.462  16.543  0.00  0.00    +0.144 C 
BRANCH  14  16
ATOM      1  F   UNL     1      -9.087  -9.736  18.353  0.00  0.00    -0.205 F 
ATOM     16  C   UNL     1      -5.213 -10.268  17.026  0.00  0.00    -0.030 A 
ATOM     18  C   UNL     1      -5.588 -10.730  18.288  0.00  0.00    +0.008 A 
ATOM     19  C   UNL     1      -6.148  -9.627  16.212  0.00  0.00    +0.008 A 
ATOM     22  C   UNL     1      -6.896 -10.550  18.736  0.00  0.00    +0.038 A 
ATOM     23  C   UNL     1      -7.457  -9.448  16.660  0.00  0.00    +0.038 A 
ATOM     26  C   UNL     1      -7.831  -9.909  17.922  0.00  0.00    +0.123 A 
ENDBRANCH  14  16
ENDBRANCH   5  14
TORSDOF 4
ENDMDL
