MODEL 1
REMARK VINA RESULT:       6.8      0.000      0.000
REMARK  Name = 75537009
REMARK  4 active torsions:
REMARK  status: ('A' for Active; 'I' for Inactive)
REMARK    1  A    between atoms: O_3  and  C_25
REMARK    2  A    between atoms: O_3  and  C_26
REMARK    3  A    between atoms: N_4  and  C_8
REMARK    4  A    between atoms: C_19  and  C_20
REMARK                            x       y       z     vdW  Elec       q    Type
REMARK                         _______ _______ _______ _____ _____    ______ ____
ROOT
ATOM      1  O   UNL     1       1.316  -2.670  24.825  0.00  0.00    -0.252 OA
ATOM      2  O   UNL     1      -5.115  -0.118  25.797  0.00  0.00    -0.270 OA
ATOM      4  N   UNL     1       1.432  -0.542  23.816  0.00  0.00    -0.281 N 
ATOM      5  N   UNL     1      -0.457  -1.130  24.880  0.00  0.00    -0.278 N 
ATOM      6  N   UNL     1      -3.072  -0.216  24.665  0.00  0.00    -0.294 N 
ATOM      7  C   UNL     1      -0.671   0.253  24.489  0.00  0.00    +0.112 C 
ATOM      9  C   UNL     1       0.521   0.565  23.589  0.00  0.00    +0.133 C 
ATOM     12  C   UNL     1      -2.034   0.406  23.821  0.00  0.00    +0.132 C 
ATOM     13  C   UNL     1       0.827  -1.584  24.546  0.00  0.00    +0.305 C 
ATOM     14  C   UNL     1      -1.482  -1.836  25.630  0.00  0.00    +0.128 C 
ATOM     18  C   UNL     1      -2.844  -1.636  24.969  0.00  0.00    +0.127 C 
ATOM     19  C   UNL     1      -4.229   0.413  25.130  0.00  0.00    +0.247 C 
ENDROOT
BRANCH   4   8
ATOM      8  C   UNL     1       2.749  -0.581  23.227  0.00  0.00    +0.078 C 
ATOM     10  C   UNL     1       3.255   0.835  22.937  0.00  0.00    +0.022 C 
ATOM     11  C   UNL     1       3.719  -1.344  24.131  0.00  0.00    +0.022 C 
ATOM     15  C   UNL     1       4.669   0.820  22.363  0.00  0.00    +0.002 C 
ATOM     16  C   UNL     1       5.135  -1.355  23.557  0.00  0.00    +0.002 C 
ATOM     17  C   UNL     1       5.634   0.057  23.266  0.00  0.00    +0.000 C 
ENDBRANCH   4   8
BRANCH  19  20
ATOM     20  C   UNL     1      -4.414   1.836  24.817  0.00  0.00    +0.037 A 
ATOM     21  C   UNL     1      -3.802   2.388  23.692  0.00  0.00    +0.016 A 
ATOM     22  C   UNL     1      -5.202   2.636  25.646  0.00  0.00    +0.016 A 
ATOM     23  C   UNL     1      -3.977   3.739  23.395  0.00  0.00    +0.046 A 
ATOM     24  C   UNL     1      -5.377   3.987  25.348  0.00  0.00    +0.046 A 
ATOM     25  C   UNL     1      -4.765   4.539  24.223  0.00  0.00    +0.120 A 
BRANCH  25   3
ATOM      3  O   UNL     1      -4.935   5.859  23.934  0.00  0.00    -0.495 OA
ATOM     26  C   UNL     1      -3.965   6.467  23.084  0.00  0.00    +0.277 C 
ENDBRANCH  25   3
ENDBRANCH  19  20
TORSDOF 3
ENDMDL
MODEL 2
REMARK VINA RESULT:       9.5      1.547      7.920
REMARK  Name = 75537009
REMARK  4 active torsions:
REMARK  status: ('A' for Active; 'I' for Inactive)
REMARK    1  A    between atoms: O_3  and  C_25
REMARK    2  A    between atoms: O_3  and  C_26
REMARK    3  A    between atoms: N_4  and  C_8
REMARK    4  A    between atoms: C_19  and  C_20
REMARK                            x       y       z     vdW  Elec       q    Type
REMARK                         _______ _______ _______ _____ _____    ______ ____
ROOT
ATOM      1  O   UNL     1      -5.454   0.073  25.108  0.00  0.00    -0.252 OA
ATOM      2  O   UNL     1       0.609  -3.397  25.107  0.00  0.00    -0.270 OA
ATOM      4  N   UNL     1      -3.912   1.702  24.381  0.00  0.00    -0.281 N 
ATOM      5  N   UNL     1      -3.187  -0.399  24.713  0.00  0.00    -0.278 N 
ATOM      6  N   UNL     1      -0.657  -1.435  25.207  0.00  0.00    -0.294 N 
ATOM      7  C   UNL     1      -2.039   0.304  24.166  0.00  0.00    +0.112 C 
ATOM      9  C   UNL     1      -2.480   1.765  24.149  0.00  0.00    +0.133 C 
ATOM     12  C   UNL     1      -0.799   0.020  25.007  0.00  0.00    +0.132 C 
ATOM     13  C   UNL     1      -4.328   0.415  24.773  0.00  0.00    +0.305 C 
ATOM     14  C   UNL     1      -3.088  -1.813  25.026  0.00  0.00    +0.128 C 
ATOM     18  C   UNL     1      -1.819  -2.083  25.832  0.00  0.00    +0.127 C 
ATOM     19  C   UNL     1       0.475  -2.193  24.900  0.00  0.00    +0.247 C 
ENDROOT
BRANCH   4   8
ATOM      8  C   UNL     1      -4.745   2.879  24.335  0.00  0.00    +0.078 C 
ATOM     10  C   UNL     1      -5.587   2.998  25.609  0.00  0.00    +0.022 C 
ATOM     11  C   UNL     1      -3.895   4.131  24.112  0.00  0.00    +0.022 C 
ATOM     15  C   UNL     1      -6.437   4.265  25.605  0.00  0.00    +0.002 C 
ATOM     16  C   UNL     1      -4.746   5.399  24.111  0.00  0.00    +0.002 C 
ATOM     17  C   UNL     1      -5.586   5.512  25.380  0.00  0.00    +0.000 C 
ENDBRANCH   4   8
BRANCH  19  20
ATOM     20  C   UNL     1       1.611  -1.512  24.264  0.00  0.00    +0.037 A 
ATOM     21  C   UNL     1       2.909  -1.973  24.478  0.00  0.00    +0.016 A 
ATOM     22  C   UNL     1       1.390  -0.404  23.445  0.00  0.00    +0.016 A 
ATOM     23  C   UNL     1       3.987  -1.326  23.875  0.00  0.00    +0.046 A 
ATOM     24  C   UNL     1       2.468   0.242  22.841  0.00  0.00    +0.046 A 
ATOM     25  C   UNL     1       3.767  -0.219  23.056  0.00  0.00    +0.120 A 
BRANCH  25   3
ATOM      3  O   UNL     1       4.820   0.413  22.467  0.00  0.00    -0.495 OA
ATOM     26  C   UNL     1       6.117   0.138  22.992  0.00  0.00    +0.277 C 
ENDBRANCH  25   3
ENDBRANCH  19  20
TORSDOF 3
ENDMDL
