MODEL 1
REMARK VINA RESULT:      -5.9      0.000      0.000
REMARK  Name = 51137103
REMARK  2 active torsions:
REMARK  status: ('A' for Active; 'I' for Inactive)
REMARK    1  A    between atoms: N_2  and  C_10
REMARK    2  A    between atoms: C_5  and  C_9
REMARK                            x       y       z     vdW  Elec       q    Type
REMARK                         _______ _______ _______ _____ _____    ______ ____
ROOT
ATOM      1  F   UNL     1      -5.355  -3.052  23.493  0.00  0.00    -0.205 F 
ATOM      3  N   UNL     1      -2.770   0.872  24.795  0.00  0.00    -0.341 N 
ATOM      4  N   UNL     1      -0.931  -0.299  25.225  0.00  0.00    -0.232 NA
ATOM      9  C   UNL     1      -1.466   0.901  25.207  0.00  0.00    +0.113 A 
ATOM     11  C   UNL     1      -3.097  -0.432  24.529  0.00  0.00    +0.069 A 
ATOM     12  C   UNL     1      -1.933  -1.144  24.805  0.00  0.00    +0.089 A 
ATOM     13  C   UNL     1      -4.275  -1.032  24.084  0.00  0.00    +0.066 A 
ATOM     14  C   UNL     1      -1.926  -2.539  24.633  0.00  0.00    +0.032 A 
ATOM     15  C   UNL     1      -4.251  -2.420  23.919  0.00  0.00    +0.125 A 
ATOM     16  C   UNL     1      -3.098  -3.163  24.188  0.00  0.00    +0.040 A 
ATOM     17  H   UNL     1      -3.386   1.670  24.701  0.00  0.00    +0.167 HD
ENDROOT
BRANCH   9   5
ATOM      2  N   UNL     1      -0.958   4.526  25.353  0.00  0.00    -0.305 NA
ATOM      5  C   UNL     1      -0.789   2.198  25.581  0.00  0.00    +0.070 C 
ATOM      6  C   UNL     1       0.262   2.694  24.572  0.00  0.00    +0.028 C 
ATOM      7  C   UNL     1      -1.772   3.367  25.724  0.00  0.00    +0.095 C 
ATOM      8  C   UNL     1      -0.198   4.093  24.181  0.00  0.00    +0.085 C 
ATOM     10  C   UNL     1      -1.762   5.709  25.087  0.00  0.00    +0.104 C 
ENDBRANCH   9   5
TORSDOF 1
ENDMDL
MODEL 2
REMARK VINA RESULT:      -5.5      3.216      4.928
REMARK  Name = 51137103
REMARK  2 active torsions:
REMARK  status: ('A' for Active; 'I' for Inactive)
REMARK    1  A    between atoms: N_2  and  C_10
REMARK    2  A    between atoms: C_5  and  C_9
REMARK                            x       y       z     vdW  Elec       q    Type
REMARK                         _______ _______ _______ _____ _____    ______ ____
ROOT
ATOM      1  F   UNL     1      -6.384   4.908  25.637  0.00  0.00    -0.205 F 
ATOM      3  N   UNL     1      -2.133   2.547  25.276  0.00  0.00    -0.341 N 
ATOM      4  N   UNL     1      -3.092   0.569  24.949  0.00  0.00    -0.232 NA
ATOM      9  C   UNL     1      -1.950   1.209  25.059  0.00  0.00    +0.113 A 
ATOM     11  C   UNL     1      -3.483   2.785  25.307  0.00  0.00    +0.069 A 
ATOM     12  C   UNL     1      -4.060   1.535  25.101  0.00  0.00    +0.089 A 
ATOM     13  C   UNL     1      -4.226   3.951  25.493  0.00  0.00    +0.066 A 
ATOM     14  C   UNL     1      -5.461   1.422  25.075  0.00  0.00    +0.032 A 
ATOM     15  C   UNL     1      -5.619   3.821  25.464  0.00  0.00    +0.125 A 
ATOM     16  C   UNL     1      -6.227   2.579  25.260  0.00  0.00    +0.040 A 
ATOM     17  H   UNL     1      -1.406   3.240  25.393  0.00  0.00    +0.167 HD
ENDROOT
BRANCH   9   5
ATOM      2  N   UNL     1       1.035  -0.170  23.443  0.00  0.00    -0.305 NA
ATOM      5  C   UNL     1      -0.565   0.611  24.969  0.00  0.00    +0.070 C 
ATOM      6  C   UNL     1      -0.521  -0.926  25.012  0.00  0.00    +0.028 C 
ATOM      7  C   UNL     1       0.165   0.985  23.672  0.00  0.00    +0.095 C 
ATOM      8  C   UNL     1       0.199  -1.335  23.733  0.00  0.00    +0.085 C 
ATOM     10  C   UNL     1       1.577  -0.199  22.093  0.00  0.00    +0.104 C 
ENDBRANCH   9   5
TORSDOF 1
ENDMDL
MODEL 3
REMARK VINA RESULT:      -5.1      1.415      1.908
REMARK  Name = 51137103
REMARK  2 active torsions:
REMARK  status: ('A' for Active; 'I' for Inactive)
REMARK    1  A    between atoms: N_2  and  C_10
REMARK    2  A    between atoms: C_5  and  C_9
REMARK                            x       y       z     vdW  Elec       q    Type
REMARK                         _______ _______ _______ _____ _____    ______ ____
ROOT
ATOM      1  F   UNL     1      -4.081  -4.239  24.051  0.00  0.00    -0.205 F 
ATOM      3  N   UNL     1      -4.134   0.636  24.141  0.00  0.00    -0.341 N 
ATOM      4  N   UNL     1      -1.997   0.795  24.725  0.00  0.00    -0.232 NA
ATOM      9  C   UNL     1      -3.090   1.466  24.442  0.00  0.00    +0.113 A 
ATOM     11  C   UNL     1      -3.684  -0.655  24.235  0.00  0.00    +0.069 A 
ATOM     12  C   UNL     1      -2.347  -0.530  24.601  0.00  0.00    +0.089 A 
ATOM     13  C   UNL     1      -4.312  -1.885  24.038  0.00  0.00    +0.066 A 
ATOM     14  C   UNL     1      -1.575  -1.690  24.787  0.00  0.00    +0.032 A 
ATOM     15  C   UNL     1      -3.530  -3.029  24.227  0.00  0.00    +0.125 A 
ATOM     16  C   UNL     1      -2.185  -2.935  24.595  0.00  0.00    +0.040 A 
ATOM     17  H   UNL     1      -5.073   0.920  23.891  0.00  0.00    +0.167 HD
ENDROOT
BRANCH   9   5
ATOM      2  N   UNL     1      -2.107   4.972  24.842  0.00  0.00    -0.305 NA
ATOM      5  C   UNL     1      -3.252   2.968  24.430  0.00  0.00    +0.070 C 
ATOM      6  C   UNL     1      -3.741   3.577  25.755  0.00  0.00    +0.028 C 
ATOM      7  C   UNL     1      -1.944   3.708  24.121  0.00  0.00    +0.095 C 
ATOM      8  C   UNL     1      -2.677   4.598  26.136  0.00  0.00    +0.085 C 
ATOM     10  C   UNL     1      -0.855   5.701  24.977  0.00  0.00    +0.104 C 
ENDBRANCH   9   5
TORSDOF 1
ENDMDL
MODEL 4
REMARK VINA RESULT:      -4.9      2.947      6.287
REMARK  Name = 51137103
REMARK  2 active torsions:
REMARK  status: ('A' for Active; 'I' for Inactive)
REMARK    1  A    between atoms: N_2  and  C_10
REMARK    2  A    between atoms: C_5  and  C_9
REMARK                            x       y       z     vdW  Elec       q    Type
REMARK                         _______ _______ _______ _____ _____    ______ ____
ROOT
ATOM      1  F   UNL     1      -1.487   6.613  25.122  0.00  0.00    -0.205 F 
ATOM      3  N   UNL     1      -3.562   2.210  25.415  0.00  0.00    -0.341 N 
ATOM      4  N   UNL     1      -1.694   1.132  24.880  0.00  0.00    -0.232 NA
ATOM      9  C   UNL     1      -2.962   1.000  25.197  0.00  0.00    +0.113 A 
ATOM     11  C   UNL     1      -2.618   3.186  25.227  0.00  0.00    +0.069 A 
ATOM     12  C   UNL     1      -1.460   2.488  24.894  0.00  0.00    +0.089 A 
ATOM     13  C   UNL     1      -2.675   4.577  25.316  0.00  0.00    +0.066 A 
ATOM     14  C   UNL     1      -0.280   3.204  24.630  0.00  0.00    +0.032 A 
ATOM     15  C   UNL     1      -1.492   5.273  25.051  0.00  0.00    +0.125 A 
ATOM     16  C   UNL     1      -0.314   4.601  24.713  0.00  0.00    +0.040 A 
ATOM     17  H   UNL     1      -4.529   2.362  25.670  0.00  0.00    +0.167 HD
ENDROOT
BRANCH   9   5
ATOM      2  N   UNL     1      -3.686  -2.561  24.731  0.00  0.00    -0.305 NA
ATOM      5  C   UNL     1      -3.733  -0.293  25.325  0.00  0.00    +0.070 C 
ATOM      6  C   UNL     1      -4.752  -0.552  24.201  0.00  0.00    +0.028 C 
ATOM      7  C   UNL     1      -2.828  -1.531  25.322  0.00  0.00    +0.095 C 
ATOM      8  C   UNL     1      -4.352  -1.898  23.610  0.00  0.00    +0.085 C 
ATOM     10  C   UNL     1      -2.937  -3.737  24.313  0.00  0.00    +0.104 C 
ENDBRANCH   9   5
TORSDOF 1
ENDMDL
MODEL 5
REMARK VINA RESULT:      -4.7      1.785      2.606
REMARK  Name = 51137103
REMARK  2 active torsions:
REMARK  status: ('A' for Active; 'I' for Inactive)
REMARK    1  A    between atoms: N_2  and  C_10
REMARK    2  A    between atoms: C_5  and  C_9
REMARK                            x       y       z     vdW  Elec       q    Type
REMARK                         _______ _______ _______ _____ _____    ______ ____
ROOT
ATOM      1  F   UNL     1      -1.368  -3.840  24.729  0.00  0.00    -0.205 F 
ATOM      3  N   UNL     1      -2.227   0.960  24.708  0.00  0.00    -0.341 N 
ATOM      4  N   UNL     1      -4.377   0.721  24.199  0.00  0.00    -0.232 NA
ATOM      9  C   UNL     1      -3.418   1.582  24.454  0.00  0.00    +0.113 A 
ATOM     11  C   UNL     1      -2.432  -0.392  24.610  0.00  0.00    +0.069 A 
ATOM     12  C   UNL     1      -3.782  -0.516  24.291  0.00  0.00    +0.089 A 
ATOM     13  C   UNL     1      -1.579  -1.485  24.768  0.00  0.00    +0.066 A 
ATOM     14  C   UNL     1      -4.330  -1.798  24.116  0.00  0.00    +0.032 A 
ATOM     15  C   UNL     1      -2.141  -2.753  24.590  0.00  0.00    +0.125 A 
ATOM     16  C   UNL     1      -3.492  -2.909  24.269  0.00  0.00    +0.040 A 
ATOM     17  H   UNL     1      -1.349   1.412  24.929  0.00  0.00    +0.167 HD
ENDROOT
BRANCH   9   5
ATOM      2  N   UNL     1      -2.324   5.050  24.899  0.00  0.00    -0.305 NA
ATOM      5  C   UNL     1      -3.538   3.088  24.482  0.00  0.00    +0.070 C 
ATOM      6  C   UNL     1      -3.962   3.678  25.839  0.00  0.00    +0.028 C 
ATOM      7  C   UNL     1      -2.222   3.800  24.144  0.00  0.00    +0.095 C 
ATOM      8  C   UNL     1      -2.857   4.661  26.204  0.00  0.00    +0.085 C 
ATOM     10  C   UNL     1      -1.047   5.741  25.005  0.00  0.00    +0.104 C 
ENDBRANCH   9   5
TORSDOF 1
ENDMDL
MODEL 6
REMARK VINA RESULT:      -4.7     14.449     16.397
REMARK  Name = 51137103
REMARK  2 active torsions:
REMARK  status: ('A' for Active; 'I' for Inactive)
REMARK    1  A    between atoms: N_2  and  C_10
REMARK    2  A    between atoms: C_5  and  C_9
REMARK                            x       y       z     vdW  Elec       q    Type
REMARK                         _______ _______ _______ _____ _____    ______ ____
ROOT
ATOM      1  F   UNL     1      -3.643  -8.538   8.941  0.00  0.00    -0.205 F 
ATOM      3  N   UNL     1      -6.349  -9.586  12.859  0.00  0.00    -0.341 N 
ATOM      4  N   UNL     1      -4.740 -10.766  13.837  0.00  0.00    -0.232 NA
ATOM      9  C   UNL     1      -5.974 -10.328  13.945  0.00  0.00    +0.113 A 
ATOM     11  C   UNL     1      -5.286  -9.542  11.994  0.00  0.00    +0.069 A 
ATOM     12  C   UNL     1      -4.294 -10.286  12.627  0.00  0.00    +0.089 A 
ATOM     13  C   UNL     1      -5.113  -8.934  10.751  0.00  0.00    +0.066 A 
ATOM     14  C   UNL     1      -3.048 -10.443  11.996  0.00  0.00    +0.032 A 
ATOM     15  C   UNL     1      -3.867  -9.101  10.137  0.00  0.00    +0.125 A 
ATOM     16  C   UNL     1      -2.852  -9.842  10.747  0.00  0.00    +0.040 A 
ATOM     17  H   UNL     1      -7.249  -9.146  12.716  0.00  0.00    +0.167 HD
ENDROOT
BRANCH   9   5
ATOM      2  N   UNL     1      -8.530  -9.526  16.445  0.00  0.00    -0.305 NA
ATOM      5  C   UNL     1      -6.924 -10.573  15.094  0.00  0.00    +0.070 C 
ATOM      6  C   UNL     1      -6.331 -10.311  16.490  0.00  0.00    +0.028 C 
ATOM      7  C   UNL     1      -8.177  -9.691  15.033  0.00  0.00    +0.095 C 
ATOM      8  C   UNL     1      -7.257  -9.281  17.124  0.00  0.00    +0.085 C 
ATOM     10  C   UNL     1      -9.487  -8.450  16.657  0.00  0.00    +0.104 C 
ENDBRANCH   9   5
TORSDOF 1
ENDMDL
MODEL 7
REMARK VINA RESULT:      -4.6      3.028      4.602
REMARK  Name = 51137103
REMARK  2 active torsions:
REMARK  status: ('A' for Active; 'I' for Inactive)
REMARK    1  A    between atoms: N_2  and  C_10
REMARK    2  A    between atoms: C_5  and  C_9
REMARK                            x       y       z     vdW  Elec       q    Type
REMARK                         _______ _______ _______ _____ _____    ______ ____
ROOT
ATOM      1  F   UNL     1      -6.463   2.334  25.209  0.00  0.00    -0.205 F 
ATOM      3  N   UNL     1      -2.156   0.222  24.332  0.00  0.00    -0.341 N 
ATOM      4  N   UNL     1      -1.057   2.153  24.264  0.00  0.00    -0.232 NA
ATOM      9  C   UNL     1      -0.951   0.847  24.164  0.00  0.00    +0.113 A 
ATOM     11  C   UNL     1      -3.101   1.189  24.556  0.00  0.00    +0.069 A 
ATOM     12  C   UNL     1      -2.391   2.386  24.509  0.00  0.00    +0.089 A 
ATOM     13  C   UNL     1      -4.475   1.122  24.789  0.00  0.00    +0.066 A 
ATOM     14  C   UNL     1      -3.076   3.598  24.703  0.00  0.00    +0.032 A 
ATOM     15  C   UNL     1      -5.141   2.337  24.981  0.00  0.00    +0.125 A 
ATOM     16  C   UNL     1      -4.456   3.554  24.938  0.00  0.00    +0.040 A 
ATOM     17  H   UNL     1      -2.323  -0.775  24.299  0.00  0.00    +0.167 HD
ENDROOT
BRANCH   9   5
ATOM      2  N   UNL     1       2.440   0.220  22.926  0.00  0.00    -0.305 NA
ATOM      5  C   UNL     1       0.311   0.060  23.897  0.00  0.00    +0.070 C 
ATOM      6  C   UNL     1       0.327  -0.704  22.561  0.00  0.00    +0.028 C 
ATOM      7  C   UNL     1       1.567   0.940  23.855  0.00  0.00    +0.095 C 
ATOM      8  C   UNL     1       1.564  -0.196  21.831  0.00  0.00    +0.085 C 
ATOM     10  C   UNL     1       3.555   1.034  22.465  0.00  0.00    +0.104 C 
ENDBRANCH   9   5
TORSDOF 1
ENDMDL
MODEL 8
REMARK VINA RESULT:      -4.0      4.020      5.717
REMARK  Name = 51137103
REMARK  2 active torsions:
REMARK  status: ('A' for Active; 'I' for Inactive)
REMARK    1  A    between atoms: N_2  and  C_10
REMARK    2  A    between atoms: C_5  and  C_9
REMARK                            x       y       z     vdW  Elec       q    Type
REMARK                         _______ _______ _______ _____ _____    ______ ____
ROOT
ATOM      1  F   UNL     1      -2.601   3.937  26.075  0.00  0.00    -0.205 F 
ATOM      3  N   UNL     1       1.273   1.841  23.984  0.00  0.00    -0.341 N 
ATOM      4  N   UNL     1       0.123   0.074  23.283  0.00  0.00    -0.232 NA
ATOM      9  C   UNL     1       1.304   0.648  23.316  0.00  0.00    +0.113 A 
ATOM     11  C   UNL     1      -0.013   2.050  24.409  0.00  0.00    +0.069 A 
ATOM     12  C   UNL     1      -0.712   0.934  23.959  0.00  0.00    +0.089 A 
ATOM     13  C   UNL     1      -0.608   3.089  25.126  0.00  0.00    +0.066 A 
ATOM     14  C   UNL     1      -2.087   0.830  24.232  0.00  0.00    +0.032 A 
ATOM     15  C   UNL     1      -1.976   2.969  25.389  0.00  0.00    +0.125 A 
ATOM     16  C   UNL     1      -2.704   1.860  24.951  0.00  0.00    +0.040 A 
ATOM     17  H   UNL     1       2.057   2.462  24.139  0.00  0.00    +0.167 HD
ENDROOT
BRANCH   9   5
ATOM      2  N   UNL     1       4.692  -0.746  23.274  0.00  0.00    -0.305 NA
ATOM      5  C   UNL     1       2.585   0.118  22.715  0.00  0.00    +0.070 C 
ATOM      6  C   UNL     1       3.665   1.182  22.450  0.00  0.00    +0.028 C 
ATOM      7  C   UNL     1       3.277  -0.924  23.604  0.00  0.00    +0.095 C 
ATOM      8  C   UNL     1       4.888   0.703  23.222  0.00  0.00    +0.085 C 
ATOM     10  C   UNL     1       5.573  -1.390  24.237  0.00  0.00    +0.104 C 
ENDBRANCH   9   5
TORSDOF 1
ENDMDL
MODEL 9
REMARK VINA RESULT:      -3.6      3.755      5.057
REMARK  Name = 51137103
REMARK  2 active torsions:
REMARK  status: ('A' for Active; 'I' for Inactive)
REMARK    1  A    between atoms: N_2  and  C_10
REMARK    2  A    between atoms: C_5  and  C_9
REMARK                            x       y       z     vdW  Elec       q    Type
REMARK                         _______ _______ _______ _____ _____    ______ ____
ROOT
ATOM      1  F   UNL     1       4.481   0.493  22.164  0.00  0.00    -0.205 F 
ATOM      3  N   UNL     1       0.575   2.038  24.642  0.00  0.00    -0.341 N 
ATOM      4  N   UNL     1      -0.804   0.607  23.648  0.00  0.00    -0.232 NA
ATOM      9  C   UNL     1      -0.706   1.571  24.535  0.00  0.00    +0.113 A 
ATOM     11  C   UNL     1       1.355   1.327  23.766  0.00  0.00    +0.069 A 
ATOM     12  C   UNL     1       0.471   0.439  23.158  0.00  0.00    +0.089 A 
ATOM     13  C   UNL     1       2.715   1.381  23.464  0.00  0.00    +0.066 A 
ATOM     14  C   UNL     1       0.956  -0.454  22.187  0.00  0.00    +0.032 A 
ATOM     15  C   UNL     1       3.181   0.486  22.495  0.00  0.00    +0.125 A 
ATOM     16  C   UNL     1       2.318  -0.416  21.867  0.00  0.00    +0.040 A 
ATOM     17  H   UNL     1       0.895   2.775  25.256  0.00  0.00    +0.167 HD
ENDROOT
BRANCH   9   5
ATOM      2  N   UNL     1      -4.130   2.574  25.367  0.00  0.00    -0.305 NA
ATOM      5  C   UNL     1      -1.824   2.148  25.371  0.00  0.00    +0.070 C 
ATOM      6  C   UNL     1      -2.069   3.654  25.175  0.00  0.00    +0.028 C 
ATOM      7  C   UNL     1      -3.182   1.493  25.087  0.00  0.00    +0.095 C 
ATOM      8  C   UNL     1      -3.531   3.765  24.765  0.00  0.00    +0.085 C 
ATOM     10  C   UNL     1      -5.459   2.297  24.844  0.00  0.00    +0.104 C 
ENDBRANCH   9   5
TORSDOF 1
ENDMDL
MODEL 10
REMARK VINA RESULT:      -3.4     14.154     16.609
REMARK  Name = 51137103
REMARK  2 active torsions:
REMARK  status: ('A' for Active; 'I' for Inactive)
REMARK    1  A    between atoms: N_2  and  C_10
REMARK    2  A    between atoms: C_5  and  C_9
REMARK                            x       y       z     vdW  Elec       q    Type
REMARK                         _______ _______ _______ _____ _____    ______ ____
ROOT
ATOM      1  F   UNL     1      -6.854  -7.681   8.368  0.00  0.00    -0.205 F 
ATOM      3  N   UNL     1      -5.991  -9.655  12.742  0.00  0.00    -0.341 N 
ATOM      4  N   UNL     1      -3.878 -10.149  12.265  0.00  0.00    -0.232 NA
ATOM      9  C   UNL     1      -4.818 -10.202  13.182  0.00  0.00    +0.113 A 
ATOM     11  C   UNL     1      -5.795  -9.220  11.457  0.00  0.00    +0.069 A 
ATOM     12  C   UNL     1      -4.468  -9.539  11.182  0.00  0.00    +0.089 A 
ATOM     13  C   UNL     1      -6.638  -8.592  10.539  0.00  0.00    +0.066 A 
ATOM     14  C   UNL     1      -3.934  -9.222   9.921  0.00  0.00    +0.032 A 
ATOM     15  C   UNL     1      -6.090  -8.284   9.290  0.00  0.00    +0.125 A 
ATOM     16  C   UNL     1      -4.762  -8.593   8.984  0.00  0.00    +0.040 A 
ATOM     17  H   UNL     1      -6.853  -9.582  13.268  0.00  0.00    +0.167 HD
ENDROOT
BRANCH   9   5
ATOM      2  N   UNL     1      -5.478 -10.545  16.769  0.00  0.00    -0.305 NA
ATOM      5  C   UNL     1      -4.694 -10.781  14.572  0.00  0.00    +0.070 C 
ATOM      6  C   UNL     1      -3.599 -10.142  15.443  0.00  0.00    +0.028 C 
ATOM      7  C   UNL     1      -5.979 -10.638  15.397  0.00  0.00    +0.095 C 
ATOM      8  C   UNL     1      -4.324  -9.650  16.689  0.00  0.00    +0.085 C 
ATOM     10  C   UNL     1      -6.489 -10.065  17.699  0.00  0.00    +0.104 C 
ENDBRANCH   9   5
TORSDOF 1
ENDMDL
