MODEL 1
REMARK VINA RESULT:      -2.1      0.000      0.000
REMARK  Name = 28961245
REMARK  10 active torsions:
REMARK  status: ('A' for Active; 'I' for Inactive)
REMARK    1  A    between atoms: O_4  and  C_10
REMARK    2  A    between atoms: O_5  and  C_15
REMARK    3  A    between atoms: N_6  and  C_8
REMARK    4  A    between atoms: N_7  and  C_12
REMARK    5  A    between atoms: N_7  and  C_19
REMARK    6  A    between atoms: N_7  and  C_20
REMARK    7  A    between atoms: C_9  and  C_12
REMARK    8  A    between atoms: C_11  and  C_15
REMARK    9  A    between atoms: C_19  and  C_23
REMARK   10  A    between atoms: C_20  and  C_24
REMARK                            x       y       z     vdW  Elec       q    Type
REMARK                         _______ _______ _______ _____ _____    ______ ____
ROOT
ATOM      3  O   UNL     1      -0.733  -1.637  23.565  0.00  0.00    -0.366 OA
ATOM      8  C   UNL     1      -3.016  -1.043  23.883  0.00  0.00    +0.118 C 
ATOM      9  C   UNL     1      -1.709  -0.639  23.190  0.00  0.00    +0.152 C 
ATOM     10  C   UNL     1      -2.533  -1.838  25.088  0.00  0.00    +0.165 C 
ATOM     11  C   UNL     1      -1.339  -2.566  24.484  0.00  0.00    +0.174 C 
ENDROOT
BRANCH   8   6
ATOM      6  N   UNL     1      -3.949   0.041  24.185  0.00  0.00    -0.290 NA
ATOM     13  C   UNL     1      -4.302   0.043  25.611  0.00  0.00    +0.090 C 
ATOM     14  C   UNL     1      -3.368   1.340  23.803  0.00  0.00    +0.120 C 
ATOM     16  C   UNL     1      -5.432   1.045  25.867  0.00  0.00    +0.051 C 
ATOM     17  C   UNL     1      -4.218   2.521  24.215  0.00  0.00    -0.030 A 
ATOM     18  C   UNL     1      -5.177   2.388  25.235  0.00  0.00    -0.042 A 
ATOM     21  C   UNL     1      -4.011   3.773  23.621  0.00  0.00    +0.005 A 
ATOM     22  C   UNL     1      -5.936   3.500  25.619  0.00  0.00    +0.004 A 
ATOM     25  C   UNL     1      -4.765   4.875  24.017  0.00  0.00    +0.000 A 
ATOM     26  C   UNL     1      -5.729   4.739  25.014  0.00  0.00    +0.000 A 
ENDBRANCH   8   6
BRANCH  10   4
ATOM      4  O   UNL     1      -2.111  -0.982  26.141  0.00  0.00    -0.388 OA
ATOM     37  H   UNL     1      -2.058  -1.482  26.969  0.00  0.00    +0.210 HD
ENDBRANCH  10   4
BRANCH   9  12
ATOM     12  C   UNL     1      -1.130   0.721  23.561  0.00  0.00    +0.118 C 
BRANCH  12   7
ATOM      7  N   UNL     1       0.292   0.620  23.854  0.00  0.00    -0.291 NA
BRANCH   7  19
ATOM     19  C   UNL     1       1.017   0.050  22.716  0.00  0.00    +0.120 C 
BRANCH  19  23
ATOM      1  F   UNL     1       6.559  -0.239  23.689  0.00  0.00    -0.205 F 
ATOM     23  C   UNL     1       2.498  -0.027  22.975  0.00  0.00    -0.033 A 
ATOM     27  C   UNL     1       3.048  -1.178  23.539  0.00  0.00    +0.008 A 
ATOM     29  C   UNL     1       3.320   1.052  22.652  0.00  0.00    +0.008 A 
ATOM     31  C   UNL     1       4.419  -1.250  23.781  0.00  0.00    +0.038 A 
ATOM     33  C   UNL     1       4.693   0.980  22.893  0.00  0.00    +0.038 A 
ATOM     35  C   UNL     1       5.241  -0.171  23.457  0.00  0.00    +0.123 A 
ENDBRANCH  19  23
ENDBRANCH   7  19
BRANCH   7  20
ATOM     20  C   UNL     1       0.845   1.933  24.200  0.00  0.00    +0.120 C 
BRANCH  20  24
ATOM      2  F   UNL     1      -2.967   5.211  26.743  0.00  0.00    -0.205 F 
ATOM     24  C   UNL     1      -0.174   2.808  24.880  0.00  0.00    -0.033 A 
ATOM     28  C   UNL     1      -0.411   4.099  24.406  0.00  0.00    +0.008 A 
ATOM     30  C   UNL     1      -0.880   2.330  25.983  0.00  0.00    +0.008 A 
ATOM     32  C   UNL     1      -1.354   4.911  25.035  0.00  0.00    +0.038 A 
ATOM     34  C   UNL     1      -1.824   3.142  26.612  0.00  0.00    +0.038 A 
ATOM     36  C   UNL     1      -2.061   4.433  26.138  0.00  0.00    +0.123 A 
ENDBRANCH  20  24
ENDBRANCH   7  20
ENDBRANCH  12   7
ENDBRANCH   9  12
BRANCH  11  15
ATOM     15  C   UNL     1      -0.294  -3.041  25.476  0.00  0.00    +0.190 C 
BRANCH  15   5
ATOM      5  O   UNL     1       0.521  -1.940  25.846  0.00  0.00    -0.392 OA
ATOM     38  H   UNL     1       1.438  -2.262  25.883  0.00  0.00    +0.210 HD
ENDBRANCH  15   5
ENDBRANCH  11  15
TORSDOF 10
ENDMDL
MODEL 2
REMARK VINA RESULT:      -1.6      1.069      4.906
REMARK  Name = 28961245
REMARK  10 active torsions:
REMARK  status: ('A' for Active; 'I' for Inactive)
REMARK    1  A    between atoms: O_4  and  C_10
REMARK    2  A    between atoms: O_5  and  C_15
REMARK    3  A    between atoms: N_6  and  C_8
REMARK    4  A    between atoms: N_7  and  C_12
REMARK    5  A    between atoms: N_7  and  C_19
REMARK    6  A    between atoms: N_7  and  C_20
REMARK    7  A    between atoms: C_9  and  C_12
REMARK    8  A    between atoms: C_11  and  C_15
REMARK    9  A    between atoms: C_19  and  C_23
REMARK   10  A    between atoms: C_20  and  C_24
REMARK                            x       y       z     vdW  Elec       q    Type
REMARK                         _______ _______ _______ _____ _____    ______ ____
ROOT
ATOM      3  O   UNL     1      -1.676  -2.754  24.044  0.00  0.00    -0.366 OA
ATOM      8  C   UNL     1      -3.069  -0.850  23.726  0.00  0.00    +0.118 C 
ATOM      9  C   UNL     1      -1.643  -1.390  23.566  0.00  0.00    +0.152 C 
ATOM     10  C   UNL     1      -3.631  -1.697  24.858  0.00  0.00    +0.165 C 
ATOM     11  C   UNL     1      -2.996  -3.046  24.542  0.00  0.00    +0.174 C 
ENDROOT
BRANCH   8   6
ATOM      6  N   UNL     1      -3.197   0.595  23.907  0.00  0.00    -0.290 NA
ATOM     13  C   UNL     1      -3.204   1.284  22.610  0.00  0.00    +0.090 C 
ATOM     14  C   UNL     1      -4.424   0.912  24.658  0.00  0.00    +0.120 C 
ATOM     16  C   UNL     1      -3.127   2.799  22.825  0.00  0.00    +0.051 C 
ATOM     17  C   UNL     1      -4.696   2.396  24.763  0.00  0.00    -0.030 A 
ATOM     18  C   UNL     1      -4.107   3.294  23.855  0.00  0.00    -0.042 A 
ATOM     21  C   UNL     1      -5.588   2.877  25.731  0.00  0.00    +0.005 A 
ATOM     22  C   UNL     1      -4.392   4.662  23.953  0.00  0.00    +0.004 A 
ATOM     25  C   UNL     1      -5.872   4.239  25.813  0.00  0.00    +0.000 A 
ATOM     26  C   UNL     1      -5.273   5.131  24.927  0.00  0.00    +0.000 A 
ENDBRANCH   8   6
BRANCH  10   4
ATOM      4  O   UNL     1      -3.194  -1.228  26.127  0.00  0.00    -0.388 OA
ATOM     37  H   UNL     1      -2.913  -1.976  26.675  0.00  0.00    +0.210 HD
ENDBRANCH  10   4
BRANCH   9  12
ATOM     12  C   UNL     1      -0.547  -0.667  24.339  0.00  0.00    +0.118 C 
BRANCH  12   7
ATOM      7  N   UNL     1       0.100   0.339  23.510  0.00  0.00    -0.291 NA
BRANCH   7  19
ATOM     19  C   UNL     1       0.881   1.265  24.333  0.00  0.00    +0.120 C 
BRANCH  19  23
ATOM      1  F   UNL     1      -2.113   5.806  25.804  0.00  0.00    -0.205 F 
ATOM     23  C   UNL     1       0.081   2.479  24.726  0.00  0.00    -0.033 A 
ATOM     27  C   UNL     1      -0.768   2.426  25.831  0.00  0.00    +0.008 A 
ATOM     29  C   UNL     1       0.189   3.655  23.985  0.00  0.00    +0.008 A 
ATOM     31  C   UNL     1      -1.510   3.550  26.195  0.00  0.00    +0.038 A 
ATOM     33  C   UNL     1      -0.552   4.780  24.350  0.00  0.00    +0.038 A 
ATOM     35  C   UNL     1      -1.401   4.726  25.454  0.00  0.00    +0.123 A 
ENDBRANCH  19  23
ENDBRANCH   7  19
BRANCH   7  20
ATOM     20  C   UNL     1       0.958  -0.291  22.503  0.00  0.00    +0.120 C 
BRANCH  20  24
ATOM      2  F   UNL     1       6.413   0.096  23.862  0.00  0.00    -0.205 F 
ATOM     24  C   UNL     1       2.416  -0.188  22.866  0.00  0.00    -0.033 A 
ATOM     28  C   UNL     1       3.127   0.975  22.571  0.00  0.00    +0.008 A 
ATOM     30  C   UNL     1       3.055  -1.255  23.498  0.00  0.00    +0.008 A 
ATOM     32  C   UNL     1       4.477   1.072  22.907  0.00  0.00    +0.038 A 
ATOM     34  C   UNL     1       4.406  -1.158  23.834  0.00  0.00    +0.038 A 
ATOM     36  C   UNL     1       5.117   0.005  23.539  0.00  0.00    +0.123 A 
ENDBRANCH  20  24
ENDBRANCH   7  20
ENDBRANCH  12   7
ENDBRANCH   9  12
BRANCH  11  15
ATOM     15  C   UNL     1      -2.888  -4.006  25.711  0.00  0.00    +0.190 C 
BRANCH  15   5
ATOM      5  O   UNL     1      -3.306  -3.341  26.893  0.00  0.00    -0.392 OA
ATOM     38  H   UNL     1      -4.278  -3.321  26.882  0.00  0.00    +0.210 HD
ENDBRANCH  15   5
ENDBRANCH  11  15
TORSDOF 10
ENDMDL
MODEL 3
REMARK VINA RESULT:       0.5      2.734      5.219
REMARK  Name = 28961245
REMARK  10 active torsions:
REMARK  status: ('A' for Active; 'I' for Inactive)
REMARK    1  A    between atoms: O_4  and  C_10
REMARK    2  A    between atoms: O_5  and  C_15
REMARK    3  A    between atoms: N_6  and  C_8
REMARK    4  A    between atoms: N_7  and  C_12
REMARK    5  A    between atoms: N_7  and  C_19
REMARK    6  A    between atoms: N_7  and  C_20
REMARK    7  A    between atoms: C_9  and  C_12
REMARK    8  A    between atoms: C_11  and  C_15
REMARK    9  A    between atoms: C_19  and  C_23
REMARK   10  A    between atoms: C_20  and  C_24
REMARK                            x       y       z     vdW  Elec       q    Type
REMARK                         _______ _______ _______ _____ _____    ______ ____
ROOT
ATOM      3  O   UNL     1       2.731   1.814  23.307  0.00  0.00    -0.366 OA
ATOM      8  C   UNL     1       1.138   0.169  22.659  0.00  0.00    +0.118 C 
ATOM      9  C   UNL     1       1.346   1.444  23.487  0.00  0.00    +0.152 C 
ATOM     10  C   UNL     1       2.532  -0.438  22.608  0.00  0.00    +0.165 C 
ATOM     11  C   UNL     1       3.383   0.821  22.493  0.00  0.00    +0.174 C 
ENDROOT
BRANCH   8   6
ATOM      6  N   UNL     1       0.082  -0.733  23.115  0.00  0.00    -0.290 NA
ATOM     13  C   UNL     1       0.385  -1.254  24.455  0.00  0.00    +0.090 C 
ATOM     14  C   UNL     1      -1.218  -0.039  23.122  0.00  0.00    +0.120 C 
ATOM     16  C   UNL     1      -0.620  -2.350  24.826  0.00  0.00    +0.051 C 
ATOM     17  C   UNL     1      -2.336  -0.867  23.716  0.00  0.00    -0.030 A 
ATOM     18  C   UNL     1      -2.048  -1.948  24.568  0.00  0.00    -0.042 A 
ATOM     21  C   UNL     1      -3.671  -0.520  23.467  0.00  0.00    +0.005 A 
ATOM     22  C   UNL     1      -3.098  -2.685  25.128  0.00  0.00    +0.004 A 
ATOM     25  C   UNL     1      -4.708  -1.256  24.038  0.00  0.00    +0.000 A 
ATOM     26  C   UNL     1      -4.422  -2.338  24.866  0.00  0.00    +0.000 A 
ENDBRANCH   8   6
BRANCH  10   4
ATOM      4  O   UNL     1       2.840  -1.137  23.808  0.00  0.00    -0.388 OA
ATOM     37  H   UNL     1       2.052  -1.186  24.370  0.00  0.00    +0.210 HD
ENDBRANCH  10   4
BRANCH   9  12
ATOM     12  C   UNL     1       1.098   1.333  24.986  0.00  0.00    +0.118 C 
BRANCH  12   7
ATOM      7  N   UNL     1       0.082   2.280  25.418  0.00  0.00    -0.291 NA
BRANCH   7  19
ATOM     19  C   UNL     1       0.686   3.381  26.173  0.00  0.00    +0.120 C 
BRANCH  19  23
ATOM      1  F   UNL     1       2.291   1.761  31.326  0.00  0.00    -0.205 F 
ATOM     23  C   UNL     1       1.115   2.948  27.550  0.00  0.00    -0.033 A 
ATOM     27  C   UNL     1       2.451   3.062  27.933  0.00  0.00    +0.008 A 
ATOM     29  C   UNL     1       0.176   2.433  28.443  0.00  0.00    +0.008 A 
ATOM     31  C   UNL     1       2.849   2.661  29.208  0.00  0.00    +0.038 A 
ATOM     33  C   UNL     1       0.574   2.032  29.719  0.00  0.00    +0.038 A 
ATOM     35  C   UNL     1       1.909   2.146  30.100  0.00  0.00    +0.123 A 
ENDBRANCH  19  23
ENDBRANCH   7  19
BRANCH   7  20
ATOM     20  C   UNL     1      -0.662   2.803  24.269  0.00  0.00    +0.120 C 
BRANCH  20  24
ATOM      2  F   UNL     1      -5.998   4.027  25.604  0.00  0.00    -0.205 F 
ATOM     24  C   UNL     1      -2.088   3.130  24.626  0.00  0.00    -0.033 A 
ATOM     28  C   UNL     1      -3.118   2.816  23.740  0.00  0.00    +0.008 A 
ATOM     30  C   UNL     1      -2.378   3.748  25.843  0.00  0.00    +0.008 A 
ATOM     32  C   UNL     1      -4.439   3.118  24.069  0.00  0.00    +0.038 A 
ATOM     34  C   UNL     1      -3.700   4.050  26.172  0.00  0.00    +0.038 A 
ATOM     36  C   UNL     1      -4.730   3.736  25.286  0.00  0.00    +0.123 A 
ENDBRANCH  20  24
ENDBRANCH   7  20
ENDBRANCH  12   7
ENDBRANCH   9  12
BRANCH  11  15
ATOM     15  C   UNL     1       4.826   0.676  22.939  0.00  0.00    +0.190 C 
BRANCH  15   5
ATOM      5  O   UNL     1       4.863   0.602  24.356  0.00  0.00    -0.392 OA
ATOM     38  H   UNL     1       4.833  -0.340  24.594  0.00  0.00    +0.210 HD
ENDBRANCH  15   5
ENDBRANCH  11  15
TORSDOF 10
ENDMDL
MODEL 4
REMARK VINA RESULT:       1.3      2.690      6.089
REMARK  Name = 28961245
REMARK  10 active torsions:
REMARK  status: ('A' for Active; 'I' for Inactive)
REMARK    1  A    between atoms: O_4  and  C_10
REMARK    2  A    between atoms: O_5  and  C_15
REMARK    3  A    between atoms: N_6  and  C_8
REMARK    4  A    between atoms: N_7  and  C_12
REMARK    5  A    between atoms: N_7  and  C_19
REMARK    6  A    between atoms: N_7  and  C_20
REMARK    7  A    between atoms: C_9  and  C_12
REMARK    8  A    between atoms: C_11  and  C_15
REMARK    9  A    between atoms: C_19  and  C_23
REMARK   10  A    between atoms: C_20  and  C_24
REMARK                            x       y       z     vdW  Elec       q    Type
REMARK                         _______ _______ _______ _____ _____    ______ ____
ROOT
ATOM      3  O   UNL     1       2.807   1.801  23.175  0.00  0.00    -0.366 OA
ATOM      8  C   UNL     1       1.228   0.111  22.613  0.00  0.00    +0.118 C 
ATOM      9  C   UNL     1       1.411   1.458  23.325  0.00  0.00    +0.152 C 
ATOM     10  C   UNL     1       2.617  -0.507  22.686  0.00  0.00    +0.165 C 
ATOM     11  C   UNL     1       3.485   0.731  22.490  0.00  0.00    +0.174 C 
ENDROOT
BRANCH   8   6
ATOM      6  N   UNL     1       0.143  -0.737  23.104  0.00  0.00    -0.290 NA
ATOM     13  C   UNL     1       0.441  -1.236  24.453  0.00  0.00    +0.090 C 
ATOM     14  C   UNL     1      -1.129   0.007  23.107  0.00  0.00    +0.120 C 
ATOM     16  C   UNL     1      -0.601  -2.282  24.863  0.00  0.00    +0.051 C 
ATOM     17  C   UNL     1      -2.271  -0.760  23.735  0.00  0.00    -0.030 A 
ATOM     18  C   UNL     1      -2.015  -1.830  24.611  0.00  0.00    -0.042 A 
ATOM     21  C   UNL     1      -3.594  -0.368  23.492  0.00  0.00    +0.005 A 
ATOM     22  C   UNL     1      -3.086  -2.511  25.202  0.00  0.00    +0.004 A 
ATOM     25  C   UNL     1      -4.652  -1.047  24.093  0.00  0.00    +0.000 A 
ATOM     26  C   UNL     1      -4.399  -2.119  24.945  0.00  0.00    +0.000 A 
ENDBRANCH   8   6
BRANCH  10   4
ATOM      4  O   UNL     1       2.862  -1.089  23.959  0.00  0.00    -0.388 OA
ATOM     37  H   UNL     1       2.780  -2.052  23.901  0.00  0.00    +0.210 HD
ENDBRANCH  10   4
BRANCH   9  12
ATOM     12  C   UNL     1       1.094   1.493  24.815  0.00  0.00    +0.118 C 
BRANCH  12   7
ATOM      7  N   UNL     1       0.485   2.760  25.189  0.00  0.00    -0.291 NA
BRANCH   7  19
ATOM     19  C   UNL     1      -0.362   3.267  24.107  0.00  0.00    +0.120 C 
BRANCH  19  23
ATOM      1  F   UNL     1      -5.704   3.950  25.766  0.00  0.00    -0.205 F 
ATOM     23  C   UNL     1      -1.790   3.449  24.550  0.00  0.00    -0.033 A 
ATOM     27  C   UNL     1      -2.078   4.235  25.666  0.00  0.00    +0.008 A 
ATOM     29  C   UNL     1      -2.823   2.833  23.844  0.00  0.00    +0.008 A 
ATOM     31  C   UNL     1      -3.400   4.403  26.077  0.00  0.00    +0.038 A 
ATOM     33  C   UNL     1      -4.146   3.003  24.255  0.00  0.00    +0.038 A 
ATOM     35  C   UNL     1      -4.434   3.787  25.371  0.00  0.00    +0.123 A 
ENDBRANCH  19  23
ENDBRANCH   7  19
BRANCH   7  20
ATOM     20  C   UNL     1      -0.299   2.615  26.419  0.00  0.00    +0.120 C 
BRANCH  20  24
ATOM      2  F   UNL     1       2.989   2.412  30.990  0.00  0.00    -0.205 F 
ATOM     24  C   UNL     1       0.579   2.561  27.640  0.00  0.00    -0.033 A 
ATOM     28  C   UNL     1       1.949   2.793  27.524  0.00  0.00    +0.008 A 
ATOM     30  C   UNL     1       0.022   2.279  28.888  0.00  0.00    +0.008 A 
ATOM     32  C   UNL     1       2.764   2.743  28.655  0.00  0.00    +0.038 A 
ATOM     34  C   UNL     1       0.838   2.229  30.019  0.00  0.00    +0.038 A 
ATOM     36  C   UNL     1       2.208   2.461  29.903  0.00  0.00    +0.123 A 
ENDBRANCH  20  24
ENDBRANCH   7  20
ENDBRANCH  12   7
ENDBRANCH   9  12
BRANCH  11  15
ATOM     15  C   UNL     1       4.904   0.621  23.015  0.00  0.00    +0.190 C 
BRANCH  15   5
ATOM      5  O   UNL     1       4.875   0.665  24.433  0.00  0.00    -0.392 OA
ATOM     38  H   UNL     1       5.694   0.248  24.750  0.00  0.00    +0.210 HD
ENDBRANCH  15   5
ENDBRANCH  11  15
TORSDOF 10
ENDMDL
