MODEL 1
REMARK VINA RESULT:      -0.3      0.000      0.000
REMARK  Name = 51137611
REMARK  8 active torsions:
REMARK  status: ('A' for Active; 'I' for Inactive)
REMARK    1  A    between atoms: S_1  and  C_22
REMARK    2  A    between atoms: S_1  and  C_24
REMARK    3  A    between atoms: O_4  and  C_23
REMARK    4  A    between atoms: O_4  and  C_25
REMARK    5  A    between atoms: N_7  and  C_14
REMARK    6  A    between atoms: C_10  and  C_15
REMARK    7  A    between atoms: C_14  and  C_16
REMARK    8  A    between atoms: C_19  and  C_23
REMARK                            x       y       z     vdW  Elec       q    Type
REMARK                         _______ _______ _______ _____ _____    ______ ____
ROOT
ATOM      7  N   UNL     1      -3.549  -1.699  25.468  0.00  0.00    -0.297 NA
ATOM     10  C   UNL     1      -5.048   0.084  25.193  0.00  0.00    +0.092 C 
ATOM     11  C   UNL     1      -4.835  -0.622  23.843  0.00  0.00    +0.029 C 
ATOM     12  C   UNL     1      -3.896  -0.414  26.077  0.00  0.00    +0.097 C 
ATOM     13  C   UNL     1      -3.570  -1.450  24.026  0.00  0.00    +0.085 C 
ENDROOT
BRANCH  10  15
ATOM      3  O   UNL     1      -4.334   2.200  24.190  0.00  0.00    -0.421 OA
ATOM      8  N   UNL     1      -5.848   2.430  25.820  0.00  0.00    -0.112 NA
ATOM      9  N   UNL     1      -5.535   3.690  25.346  0.00  0.00    -0.109 NA
ATOM     15  C   UNL     1      -5.123   1.592  25.117  0.00  0.00    +0.222 A 
ATOM     19  C   UNL     1      -4.648   3.507  24.395  0.00  0.00    +0.254 A 
BRANCH  19  23
ATOM     23  C   UNL     1      -3.970   4.495  23.546  0.00  0.00    +0.326 C 
BRANCH  23   4
ATOM      4  O   UNL     1      -2.972   5.192  24.297  0.00  0.00    -0.483 OA
BRANCH   4  25
ATOM      2  F   UNL     1       0.879   2.099  26.708  0.00  0.00    -0.205 F 
ATOM     25  C   UNL     1      -2.015   4.423  24.896  0.00  0.00    +0.121 A 
ATOM     26  C   UNL     1      -0.800   4.191  24.250  0.00  0.00    +0.048 A 
ATOM     27  C   UNL     1      -2.251   3.870  26.155  0.00  0.00    +0.048 A 
ATOM     28  C   UNL     1       0.177   3.405  24.862  0.00  0.00    +0.042 A 
ATOM     29  C   UNL     1      -1.274   3.085  26.767  0.00  0.00    +0.042 A 
ATOM     30  C   UNL     1      -0.060   2.853  26.120  0.00  0.00    +0.124 A 
ENDBRANCH   4  25
ENDBRANCH  23   4
ENDBRANCH  19  23
ENDBRANCH  10  15
BRANCH   7  14
ATOM     14  C   UNL     1      -2.263  -2.202  25.924  0.00  0.00    +0.119 C 
BRANCH  14  16
ATOM     16  C   UNL     1      -1.120  -1.607  25.146  0.00  0.00    -0.033 A 
ATOM     17  C   UNL     1       0.096  -2.287  25.062  0.00  0.00    +0.007 A 
ATOM     18  C   UNL     1      -1.275  -0.376  24.509  0.00  0.00    +0.007 A 
ATOM     20  C   UNL     1       1.155  -1.737  24.341  0.00  0.00    +0.027 A 
ATOM     21  C   UNL     1      -0.216   0.175  23.788  0.00  0.00    +0.027 A 
ATOM     22  C   UNL     1       0.999  -0.505  23.704  0.00  0.00    +0.088 A 
BRANCH  22   1
ATOM      1  S   UNL     1       2.325   0.182  22.798  0.00  0.00    -0.006 S 
ATOM      5  O   UNL     1       2.148  -0.138  21.388  0.00  0.00    -0.170 OA
ATOM      6  O   UNL     1       2.477   1.569  23.211  0.00  0.00    -0.170 OA
ATOM     24  C   UNL     1       3.754  -0.717  23.358  0.00  0.00    +0.200 C 
ENDBRANCH  22   1
ENDBRANCH  14  16
ENDBRANCH   7  14
TORSDOF 7
ENDMDL
MODEL 2
REMARK VINA RESULT:       0.6      3.299      5.750
REMARK  Name = 51137611
REMARK  8 active torsions:
REMARK  status: ('A' for Active; 'I' for Inactive)
REMARK    1  A    between atoms: S_1  and  C_22
REMARK    2  A    between atoms: S_1  and  C_24
REMARK    3  A    between atoms: O_4  and  C_23
REMARK    4  A    between atoms: O_4  and  C_25
REMARK    5  A    between atoms: N_7  and  C_14
REMARK    6  A    between atoms: C_10  and  C_15
REMARK    7  A    between atoms: C_14  and  C_16
REMARK    8  A    between atoms: C_19  and  C_23
REMARK                            x       y       z     vdW  Elec       q    Type
REMARK                         _______ _______ _______ _____ _____    ______ ____
ROOT
ATOM      7  N   UNL     1      -1.502  -2.859  24.221  0.00  0.00    -0.297 NA
ATOM     10  C   UNL     1       0.239  -1.329  23.865  0.00  0.00    +0.092 C 
ATOM     11  C   UNL     1       0.583  -2.231  25.063  0.00  0.00    +0.029 C 
ATOM     12  C   UNL     1      -1.266  -1.534  23.644  0.00  0.00    +0.097 C 
ATOM     13  C   UNL     1      -0.739  -2.867  25.469  0.00  0.00    +0.085 C 
ENDROOT
BRANCH  10  15
ATOM      3  O   UNL     1       0.044   0.792  25.072  0.00  0.00    -0.421 OA
ATOM      8  N   UNL     1       1.433   0.865  23.320  0.00  0.00    -0.112 NA
ATOM      9  N   UNL     1       1.416   2.117  23.905  0.00  0.00    -0.109 NA
ATOM     15  C   UNL     1       0.617   0.124  24.034  0.00  0.00    +0.222 A 
ATOM     19  C   UNL     1       0.593   2.028  24.924  0.00  0.00    +0.254 A 
BRANCH  19  23
ATOM     23  C   UNL     1       0.197   3.051  25.900  0.00  0.00    +0.326 C 
BRANCH  23   4
ATOM      4  O   UNL     1      -1.210   2.984  26.146  0.00  0.00    -0.483 OA
BRANCH   4  25
ATOM      2  F   UNL     1      -4.489   3.657  21.787  0.00  0.00    -0.205 F 
ATOM     25  C   UNL     1      -2.026   3.151  25.062  0.00  0.00    +0.121 A 
ATOM     26  C   UNL     1      -2.659   4.376  24.848  0.00  0.00    +0.048 A 
ATOM     27  C   UNL     1      -2.224   2.097  24.169  0.00  0.00    +0.048 A 
ATOM     28  C   UNL     1      -3.492   4.546  23.741  0.00  0.00    +0.042 A 
ATOM     29  C   UNL     1      -3.056   2.268  23.063  0.00  0.00    +0.042 A 
ATOM     30  C   UNL     1      -3.689   3.492  22.849  0.00  0.00    +0.124 A 
ENDBRANCH   4  25
ENDBRANCH  23   4
ENDBRANCH  19  23
ENDBRANCH  10  15
BRANCH   7  14
ATOM     14  C   UNL     1      -2.916  -3.128  24.435  0.00  0.00    +0.119 C 
BRANCH  14  16
ATOM     16  C   UNL     1      -3.683  -1.874  24.758  0.00  0.00    -0.033 A 
ATOM     17  C   UNL     1      -3.495  -1.239  25.986  0.00  0.00    +0.007 A 
ATOM     18  C   UNL     1      -4.582  -1.346  23.831  0.00  0.00    +0.007 A 
ATOM     20  C   UNL     1      -4.205  -0.076  26.286  0.00  0.00    +0.027 A 
ATOM     21  C   UNL     1      -5.292  -0.184  24.131  0.00  0.00    +0.027 A 
ATOM     22  C   UNL     1      -5.104   0.451  25.358  0.00  0.00    +0.088 A 
BRANCH  22   1
ATOM      1  S   UNL     1      -5.991   1.908  25.733  0.00  0.00    -0.006 S 
ATOM      5  O   UNL     1      -5.045   2.954  26.098  0.00  0.00    -0.170 OA
ATOM      6  O   UNL     1      -6.946   2.139  24.661  0.00  0.00    -0.170 OA
ATOM     24  C   UNL     1      -6.905   1.502  27.204  0.00  0.00    +0.200 C 
ENDBRANCH  22   1
ENDBRANCH  14  16
ENDBRANCH   7  14
TORSDOF 7
ENDMDL
MODEL 3
REMARK VINA RESULT:       0.6      1.685      2.178
REMARK  Name = 51137611
REMARK  8 active torsions:
REMARK  status: ('A' for Active; 'I' for Inactive)
REMARK    1  A    between atoms: S_1  and  C_22
REMARK    2  A    between atoms: S_1  and  C_24
REMARK    3  A    between atoms: O_4  and  C_23
REMARK    4  A    between atoms: O_4  and  C_25
REMARK    5  A    between atoms: N_7  and  C_14
REMARK    6  A    between atoms: C_10  and  C_15
REMARK    7  A    between atoms: C_14  and  C_16
REMARK    8  A    between atoms: C_19  and  C_23
REMARK                            x       y       z     vdW  Elec       q    Type
REMARK                         _______ _______ _______ _____ _____    ______ ____
ROOT
ATOM      7  N   UNL     1      -3.975  -1.564  25.205  0.00  0.00    -0.297 NA
ATOM     10  C   UNL     1      -5.268   0.389  25.343  0.00  0.00    +0.092 C 
ATOM     11  C   UNL     1      -5.106  -0.019  23.868  0.00  0.00    +0.029 C 
ATOM     12  C   UNL     1      -4.194  -0.416  26.088  0.00  0.00    +0.097 C 
ATOM     13  C   UNL     1      -3.940  -0.999  23.856  0.00  0.00    +0.085 C 
ENDROOT
BRANCH  10  15
ATOM      3  O   UNL     1      -3.964   2.362  25.976  0.00  0.00    -0.421 OA
ATOM      8  N   UNL     1      -6.112   2.794  25.529  0.00  0.00    -0.112 NA
ATOM      9  N   UNL     1      -5.498   3.985  25.870  0.00  0.00    -0.109 NA
ATOM     15  C   UNL     1      -5.179   1.874  25.605  0.00  0.00    +0.222 A 
ATOM     19  C   UNL     1      -4.245   3.684  26.122  0.00  0.00    +0.254 A 
BRANCH  19  23
ATOM     23  C   UNL     1      -3.136   4.559  26.527  0.00  0.00    +0.326 C 
BRANCH  23   4
ATOM      4  O   UNL     1      -2.280   4.822  25.412  0.00  0.00    -0.483 OA
BRANCH   4  25
ATOM      2  F   UNL     1      -2.589   1.299  21.205  0.00  0.00    -0.205 F 
ATOM     25  C   UNL     1      -2.358   3.946  24.366  0.00  0.00    +0.121 A 
ATOM     26  C   UNL     1      -3.412   4.036  23.457  0.00  0.00    +0.048 A 
ATOM     27  C   UNL     1      -1.381   2.963  24.207  0.00  0.00    +0.048 A 
ATOM     28  C   UNL     1      -3.490   3.141  22.389  0.00  0.00    +0.042 A 
ATOM     29  C   UNL     1      -1.459   2.068  23.139  0.00  0.00    +0.042 A 
ATOM     30  C   UNL     1      -2.513   2.158  22.231  0.00  0.00    +0.124 A 
ENDBRANCH   4  25
ENDBRANCH  23   4
ENDBRANCH  19  23
ENDBRANCH  10  15
BRANCH   7  14
ATOM     14  C   UNL     1      -2.758  -2.292  25.532  0.00  0.00    +0.119 C 
BRANCH  14  16
ATOM     16  C   UNL     1      -1.549  -1.691  24.868  0.00  0.00    -0.033 A 
ATOM     17  C   UNL     1      -1.104  -2.194  23.644  0.00  0.00    +0.007 A 
ATOM     18  C   UNL     1      -0.873  -0.633  25.474  0.00  0.00    +0.007 A 
ATOM     20  C   UNL     1       0.017  -1.637  23.028  0.00  0.00    +0.027 A 
ATOM     21  C   UNL     1       0.248  -0.077  24.858  0.00  0.00    +0.027 A 
ATOM     22  C   UNL     1       0.692  -0.578  23.635  0.00  0.00    +0.088 A 
BRANCH  22   1
ATOM      1  S   UNL     1       2.094   0.121  22.862  0.00  0.00    -0.006 S 
ATOM      5  O   UNL     1       2.000  -0.104  21.425  0.00  0.00    -0.170 OA
ATOM      6  O   UNL     1       2.260   1.473  23.372  0.00  0.00    -0.170 OA
ATOM     24  C   UNL     1       3.457  -0.859  23.450  0.00  0.00    +0.200 C 
ENDBRANCH  22   1
ENDBRANCH  14  16
ENDBRANCH   7  14
TORSDOF 7
ENDMDL
MODEL 4
REMARK VINA RESULT:       1.3      3.173      6.095
REMARK  Name = 51137611
REMARK  8 active torsions:
REMARK  status: ('A' for Active; 'I' for Inactive)
REMARK    1  A    between atoms: S_1  and  C_22
REMARK    2  A    between atoms: S_1  and  C_24
REMARK    3  A    between atoms: O_4  and  C_23
REMARK    4  A    between atoms: O_4  and  C_25
REMARK    5  A    between atoms: N_7  and  C_14
REMARK    6  A    between atoms: C_10  and  C_15
REMARK    7  A    between atoms: C_14  and  C_16
REMARK    8  A    between atoms: C_19  and  C_23
REMARK                            x       y       z     vdW  Elec       q    Type
REMARK                         _______ _______ _______ _____ _____    ______ ____
ROOT
ATOM      7  N   UNL     1      -4.457   3.463  25.470  0.00  0.00    -0.297 NA
ATOM     10  C   UNL     1      -2.209   4.006  25.077  0.00  0.00    +0.092 C 
ATOM     11  C   UNL     1      -3.093   4.669  24.007  0.00  0.00    +0.029 C 
ATOM     12  C   UNL     1      -3.111   2.945  25.722  0.00  0.00    +0.097 C 
ATOM     13  C   UNL     1      -4.425   3.934  24.085  0.00  0.00    +0.085 C 
ENDROOT
BRANCH  10  15
ATOM      3  O   UNL     1      -0.865   2.095  24.343  0.00  0.00    -0.421 OA
ATOM      8  N   UNL     1       0.221   4.050  24.284  0.00  0.00    -0.112 NA
ATOM      9  N   UNL     1       1.088   3.065  23.849  0.00  0.00    -0.109 NA
ATOM     15  C   UNL     1      -0.906   3.438  24.562  0.00  0.00    +0.222 A 
ATOM     19  C   UNL     1       0.411   1.941  23.900  0.00  0.00    +0.254 A 
BRANCH  19  23
ATOM     23  C   UNL     1       0.833   0.579  23.550  0.00  0.00    +0.326 C 
BRANCH  23   4
ATOM      4  O   UNL     1       1.885   0.619  22.581  0.00  0.00    -0.483 OA
BRANCH   4  25
ATOM      2  F   UNL     1       6.866  -0.929  24.314  0.00  0.00    -0.205 F 
ATOM     25  C   UNL     1       3.123   0.234  23.012  0.00  0.00    +0.121 A 
ATOM     26  C   UNL     1       4.179   1.146  23.004  0.00  0.00    +0.048 A 
ATOM     27  C   UNL     1       3.331  -1.070  23.460  0.00  0.00    +0.048 A 
ATOM     28  C   UNL     1       5.443   0.753  23.444  0.00  0.00    +0.042 A 
ATOM     29  C   UNL     1       4.595  -1.464  23.900  0.00  0.00    +0.042 A 
ATOM     30  C   UNL     1       5.651  -0.552  23.892  0.00  0.00    +0.124 A 
ENDBRANCH   4  25
ENDBRANCH  23   4
ENDBRANCH  19  23
ENDBRANCH  10  15
BRANCH   7  14
ATOM     14  C   UNL     1      -5.489   2.462  25.690  0.00  0.00    +0.119 C 
BRANCH  14  16
ATOM     16  C   UNL     1      -4.992   1.071  25.399  0.00  0.00    -0.033 A 
ATOM     17  C   UNL     1      -5.180   0.514  24.134  0.00  0.00    +0.007 A 
ATOM     18  C   UNL     1      -4.345   0.339  26.394  0.00  0.00    +0.007 A 
ATOM     20  C   UNL     1      -4.719  -0.775  23.863  0.00  0.00    +0.027 A 
ATOM     21  C   UNL     1      -3.885  -0.950  26.124  0.00  0.00    +0.027 A 
ATOM     22  C   UNL     1      -4.072  -1.506  24.859  0.00  0.00    +0.088 A 
BRANCH  22   1
ATOM      1  S   UNL     1      -3.493  -3.119  24.520  0.00  0.00    -0.006 S 
ATOM      5  O   UNL     1      -3.459  -3.879  25.762  0.00  0.00    -0.170 OA
ATOM      6  O   UNL     1      -4.237  -3.631  23.379  0.00  0.00    -0.170 OA
ATOM     24  C   UNL     1      -1.804  -2.884  24.011  0.00  0.00    +0.200 C 
ENDBRANCH  22   1
ENDBRANCH  14  16
ENDBRANCH   7  14
TORSDOF 7
ENDMDL
MODEL 5
REMARK VINA RESULT:       1.4      1.962      4.593
REMARK  Name = 51137611
REMARK  8 active torsions:
REMARK  status: ('A' for Active; 'I' for Inactive)
REMARK    1  A    between atoms: S_1  and  C_22
REMARK    2  A    between atoms: S_1  and  C_24
REMARK    3  A    between atoms: O_4  and  C_23
REMARK    4  A    between atoms: O_4  and  C_25
REMARK    5  A    between atoms: N_7  and  C_14
REMARK    6  A    between atoms: C_10  and  C_15
REMARK    7  A    between atoms: C_14  and  C_16
REMARK    8  A    between atoms: C_19  and  C_23
REMARK                            x       y       z     vdW  Elec       q    Type
REMARK                         _______ _______ _______ _____ _____    ______ ____
ROOT
ATOM      7  N   UNL     1      -2.504   4.974  25.626  0.00  0.00    -0.297 NA
ATOM     10  C   UNL     1      -4.602   3.930  25.735  0.00  0.00    +0.092 C 
ATOM     11  C   UNL     1      -3.897   3.812  27.097  0.00  0.00    +0.029 C 
ATOM     12  C   UNL     1      -3.490   4.329  24.755  0.00  0.00    +0.097 C 
ATOM     13  C   UNL     1      -2.433   4.119  26.811  0.00  0.00    +0.085 C 
ENDROOT
BRANCH  10  15
ATOM      3  O   UNL     1      -4.613   1.585  25.032  0.00  0.00    -0.421 OA
ATOM      8  N   UNL     1      -6.645   2.515  25.136  0.00  0.00    -0.112 NA
ATOM      9  N   UNL     1      -6.796   1.202  24.729  0.00  0.00    -0.109 NA
ATOM     15  C   UNL     1      -5.355   2.694  25.300  0.00  0.00    +0.222 A 
ATOM     19  C   UNL     1      -5.584   0.698  24.683  0.00  0.00    +0.254 A 
BRANCH  19  23
ATOM     23  C   UNL     1      -5.147  -0.656  24.319  0.00  0.00    +0.326 C 
BRANCH  23   4
ATOM      4  O   UNL     1      -3.886  -0.605  23.647  0.00  0.00    -0.483 OA
BRANCH   4  25
ATOM      2  F   UNL     1       0.433  -2.605  26.397  0.00  0.00    -0.205 F 
ATOM     25  C   UNL     1      -2.812  -1.103  24.331  0.00  0.00    +0.121 A 
ATOM     26  C   UNL     1      -2.313  -2.369  24.022  0.00  0.00    +0.048 A 
ATOM     27  C   UNL     1      -2.214  -0.344  25.337  0.00  0.00    +0.048 A 
ATOM     28  C   UNL     1      -1.218  -2.876  24.720  0.00  0.00    +0.042 A 
ATOM     29  C   UNL     1      -1.118  -0.851  26.035  0.00  0.00    +0.042 A 
ATOM     30  C   UNL     1      -0.620  -2.117  25.726  0.00  0.00    +0.124 A 
ENDBRANCH   4  25
ENDBRANCH  23   4
ENDBRANCH  19  23
ENDBRANCH  10  15
BRANCH   7  14
ATOM     14  C   UNL     1      -1.210   5.132  24.979  0.00  0.00    +0.119 C 
BRANCH  14  16
ATOM     16  C   UNL     1      -0.666   3.819  24.484  0.00  0.00    -0.033 A 
ATOM     17  C   UNL     1      -1.252   3.192  23.384  0.00  0.00    +0.007 A 
ATOM     18  C   UNL     1       0.424   3.230  25.124  0.00  0.00    +0.007 A 
ATOM     20  C   UNL     1      -0.747   1.975  22.924  0.00  0.00    +0.027 A 
ATOM     21  C   UNL     1       0.928   2.013  24.665  0.00  0.00    +0.027 A 
ATOM     22  C   UNL     1       0.343   1.387  23.565  0.00  0.00    +0.088 A 
BRANCH  22   1
ATOM      1  S   UNL     1       0.976  -0.135  22.987  0.00  0.00    -0.006 S 
ATOM      5  O   UNL     1       1.192  -1.018  24.125  0.00  0.00    -0.170 OA
ATOM      6  O   UNL     1       0.143  -0.575  21.878  0.00  0.00    -0.170 OA
ATOM     24  C   UNL     1       2.581   0.273  22.337  0.00  0.00    +0.200 C 
ENDBRANCH  22   1
ENDBRANCH  14  16
ENDBRANCH   7  14
TORSDOF 7
ENDMDL
MODEL 6
REMARK VINA RESULT:       1.6      2.508      4.599
REMARK  Name = 51137611
REMARK  8 active torsions:
REMARK  status: ('A' for Active; 'I' for Inactive)
REMARK    1  A    between atoms: S_1  and  C_22
REMARK    2  A    between atoms: S_1  and  C_24
REMARK    3  A    between atoms: O_4  and  C_23
REMARK    4  A    between atoms: O_4  and  C_25
REMARK    5  A    between atoms: N_7  and  C_14
REMARK    6  A    between atoms: C_10  and  C_15
REMARK    7  A    between atoms: C_14  and  C_16
REMARK    8  A    between atoms: C_19  and  C_23
REMARK                            x       y       z     vdW  Elec       q    Type
REMARK                         _______ _______ _______ _____ _____    ______ ____
ROOT
ATOM      7  N   UNL     1      -0.033   1.843  23.530  0.00  0.00    -0.297 NA
ATOM     10  C   UNL     1      -1.695   3.334  24.245  0.00  0.00    +0.092 C 
ATOM     11  C   UNL     1      -0.656   3.146  25.364  0.00  0.00    +0.029 C 
ATOM     12  C   UNL     1      -1.437   2.172  23.276  0.00  0.00    +0.097 C 
ATOM     13  C   UNL     1       0.107   1.884  24.985  0.00  0.00    +0.085 C 
ENDROOT
BRANCH  10  15
ATOM      3  O   UNL     1      -3.864   2.260  24.613  0.00  0.00    -0.421 OA
ATOM      8  N   UNL     1      -3.798   4.411  25.223  0.00  0.00    -0.112 NA
ATOM      9  N   UNL     1      -5.069   3.932  25.482  0.00  0.00    -0.109 NA
ATOM     15  C   UNL     1      -3.130   3.401  24.716  0.00  0.00    +0.222 A 
ATOM     19  C   UNL     1      -5.061   2.672  25.110  0.00  0.00    +0.254 A 
BRANCH  19  23
ATOM     23  C   UNL     1      -6.139   1.676  25.161  0.00  0.00    +0.326 C 
BRANCH  23   4
ATOM      4  O   UNL     1      -5.733   0.545  25.936  0.00  0.00    -0.483 OA
BRANCH   4  25
ATOM      2  F   UNL     1      -1.619  -2.473  23.893  0.00  0.00    -0.205 F 
ATOM     25  C   UNL     1      -4.710  -0.205  25.428  0.00  0.00    +0.121 A 
ATOM     26  C   UNL     1      -3.520  -0.340  26.145  0.00  0.00    +0.048 A 
ATOM     27  C   UNL     1      -4.855  -0.836  24.193  0.00  0.00    +0.048 A 
ATOM     28  C   UNL     1      -2.476  -1.106  25.626  0.00  0.00    +0.042 A 
ATOM     29  C   UNL     1      -3.811  -1.602  23.674  0.00  0.00    +0.042 A 
ATOM     30  C   UNL     1      -2.623  -1.737  24.391  0.00  0.00    +0.124 A 
ENDBRANCH   4  25
ENDBRANCH  23   4
ENDBRANCH  19  23
ENDBRANCH  10  15
BRANCH   7  14
ATOM     14  C   UNL     1       0.345   0.552  22.973  0.00  0.00    +0.119 C 
BRANCH  14  16
ATOM     16  C   UNL     1       1.821   0.294  23.106  0.00  0.00    -0.033 A 
ATOM     17  C   UNL     1       2.736   1.302  22.797  0.00  0.00    +0.007 A 
ATOM     18  C   UNL     1       2.277  -0.952  23.537  0.00  0.00    +0.007 A 
ATOM     20  C   UNL     1       4.105   1.063  22.921  0.00  0.00    +0.027 A 
ATOM     21  C   UNL     1       3.645  -1.191  23.659  0.00  0.00    +0.027 A 
ATOM     22  C   UNL     1       4.559  -0.183  23.352  0.00  0.00    +0.088 A 
BRANCH  22   1
ATOM      1  S   UNL     1       6.273  -0.481  23.508  0.00  0.00    -0.006 S 
ATOM      5  O   UNL     1       6.488  -1.445  24.579  0.00  0.00    -0.170 OA
ATOM      6  O   UNL     1       6.805  -0.745  22.180  0.00  0.00    -0.170 OA
ATOM     24  C   UNL     1       6.940   1.071  24.068  0.00  0.00    +0.200 C 
ENDBRANCH  22   1
ENDBRANCH  14  16
ENDBRANCH   7  14
TORSDOF 7
ENDMDL
MODEL 7
REMARK VINA RESULT:       2.1      2.773      4.834
REMARK  Name = 51137611
REMARK  8 active torsions:
REMARK  status: ('A' for Active; 'I' for Inactive)
REMARK    1  A    between atoms: S_1  and  C_22
REMARK    2  A    between atoms: S_1  and  C_24
REMARK    3  A    between atoms: O_4  and  C_23
REMARK    4  A    between atoms: O_4  and  C_25
REMARK    5  A    between atoms: N_7  and  C_14
REMARK    6  A    between atoms: C_10  and  C_15
REMARK    7  A    between atoms: C_14  and  C_16
REMARK    8  A    between atoms: C_19  and  C_23
REMARK                            x       y       z     vdW  Elec       q    Type
REMARK                         _______ _______ _______ _____ _____    ______ ____
ROOT
ATOM      7  N   UNL     1      -5.585   2.585  24.868  0.00  0.00    -0.297 NA
ATOM     10  C   UNL     1      -3.955   4.271  24.822  0.00  0.00    +0.092 C 
ATOM     11  C   UNL     1      -4.393   3.940  23.385  0.00  0.00    +0.029 C 
ATOM     12  C   UNL     1      -4.468   3.095  25.665  0.00  0.00    +0.097 C 
ATOM     13  C   UNL     1      -5.097   2.593  23.489  0.00  0.00    +0.085 C 
ENDROOT
BRANCH  10  15
ATOM      3  O   UNL     1      -1.700   3.435  25.283  0.00  0.00    -0.421 OA
ATOM      8  N   UNL     1      -1.796   5.638  24.906  0.00  0.00    -0.112 NA
ATOM      9  N   UNL     1      -0.477   5.303  25.150  0.00  0.00    -0.109 NA
ATOM     15  C   UNL     1      -2.473   4.517  24.994  0.00  0.00    +0.222 A 
ATOM     19  C   UNL     1      -0.469   4.007  25.364  0.00  0.00    +0.254 A 
BRANCH  19  23
ATOM     23  C   UNL     1       0.659   3.117  25.669  0.00  0.00    +0.326 C 
BRANCH  23   4
ATOM      4  O   UNL     1       0.254   1.750  25.559  0.00  0.00    -0.483 OA
BRANCH   4  25
ATOM      2  F   UNL     1       1.327  -0.738  20.776  0.00  0.00    -0.205 F 
ATOM     25  C   UNL     1       0.521   1.131  24.370  0.00  0.00    +0.121 A 
ATOM     26  C   UNL     1      -0.523   0.614  23.602  0.00  0.00    +0.048 A 
ATOM     27  C   UNL     1       1.838   1.017  23.923  0.00  0.00    +0.048 A 
ATOM     28  C   UNL     1      -0.251  -0.017  22.388  0.00  0.00    +0.042 A 
ATOM     29  C   UNL     1       2.110   0.386  22.709  0.00  0.00    +0.042 A 
ATOM     30  C   UNL     1       1.066  -0.131  21.942  0.00  0.00    +0.124 A 
ENDBRANCH   4  25
ENDBRANCH  23   4
ENDBRANCH  19  23
ENDBRANCH  10  15
BRANCH   7  14
ATOM     14  C   UNL     1      -6.015   1.263  25.296  0.00  0.00    +0.119 C 
BRANCH  14  16
ATOM     16  C   UNL     1      -4.916   0.244  25.160  0.00  0.00    -0.033 A 
ATOM     17  C   UNL     1      -3.912   0.168  26.126  0.00  0.00    +0.007 A 
ATOM     18  C   UNL     1      -4.899  -0.624  24.068  0.00  0.00    +0.007 A 
ATOM     20  C   UNL     1      -2.893  -0.777  26.001  0.00  0.00    +0.027 A 
ATOM     21  C   UNL     1      -3.880  -1.568  23.943  0.00  0.00    +0.027 A 
ATOM     22  C   UNL     1      -2.878  -1.645  24.909  0.00  0.00    +0.088 A 
BRANCH  22   1
ATOM      1  S   UNL     1      -1.603  -2.829  24.754  0.00  0.00    -0.006 S 
ATOM      5  O   UNL     1      -1.906  -3.962  25.618  0.00  0.00    -0.170 OA
ATOM      6  O   UNL     1      -1.362  -3.045  23.336  0.00  0.00    -0.170 OA
ATOM     24  C   UNL     1      -0.170  -2.026  25.438  0.00  0.00    +0.200 C 
ENDBRANCH  22   1
ENDBRANCH  14  16
ENDBRANCH   7  14
TORSDOF 7
ENDMDL
MODEL 8
REMARK VINA RESULT:       2.2      1.478      2.056
REMARK  Name = 51137611
REMARK  8 active torsions:
REMARK  status: ('A' for Active; 'I' for Inactive)
REMARK    1  A    between atoms: S_1  and  C_22
REMARK    2  A    between atoms: S_1  and  C_24
REMARK    3  A    between atoms: O_4  and  C_23
REMARK    4  A    between atoms: O_4  and  C_25
REMARK    5  A    between atoms: N_7  and  C_14
REMARK    6  A    between atoms: C_10  and  C_15
REMARK    7  A    between atoms: C_14  and  C_16
REMARK    8  A    between atoms: C_19  and  C_23
REMARK                            x       y       z     vdW  Elec       q    Type
REMARK                         _______ _______ _______ _____ _____    ______ ____
ROOT
ATOM      7  N   UNL     1      -2.052  -1.892  24.718  0.00  0.00    -0.297 NA
ATOM     10  C   UNL     1      -3.454  -0.322  25.751  0.00  0.00    +0.092 C 
ATOM     11  C   UNL     1      -4.027  -1.735  25.954  0.00  0.00    +0.029 C 
ATOM     12  C   UNL     1      -2.422  -0.478  24.626  0.00  0.00    +0.097 C 
ATOM     13  C   UNL     1      -3.315  -2.600  24.922  0.00  0.00    +0.085 C 
ENDROOT
BRANCH  10  15
ATOM      3  O   UNL     1      -4.093   2.039  25.625  0.00  0.00    -0.421 OA
ATOM      8  N   UNL     1      -5.729   0.621  25.064  0.00  0.00    -0.112 NA
ATOM      9  N   UNL     1      -6.221   1.908  24.951  0.00  0.00    -0.109 NA
ATOM     15  C   UNL     1      -4.484   0.746  25.461  0.00  0.00    +0.222 A 
ATOM     19  C   UNL     1      -5.231   2.703  25.287  0.00  0.00    +0.254 A 
BRANCH  19  23
ATOM     23  C   UNL     1      -5.187   4.169  25.345  0.00  0.00    +0.326 C 
BRANCH  23   4
ATOM      4  O   UNL     1      -4.236   4.673  24.403  0.00  0.00    -0.483 OA
BRANCH   4  25
ATOM      2  F   UNL     1       0.699   2.252  24.378  0.00  0.00    -0.205 F 
ATOM     25  C   UNL     1      -3.009   4.072  24.397  0.00  0.00    +0.121 A 
ATOM     26  C   UNL     1      -2.056   4.419  25.356  0.00  0.00    +0.048 A 
ATOM     27  C   UNL     1      -2.709   3.109  23.432  0.00  0.00    +0.048 A 
ATOM     28  C   UNL     1      -0.804   3.804  25.349  0.00  0.00    +0.042 A 
ATOM     29  C   UNL     1      -1.457   2.495  23.425  0.00  0.00    +0.042 A 
ATOM     30  C   UNL     1      -0.505   2.842  24.384  0.00  0.00    +0.124 A 
ENDBRANCH   4  25
ENDBRANCH  23   4
ENDBRANCH  19  23
ENDBRANCH  10  15
BRANCH   7  14
ATOM     14  C   UNL     1      -1.339  -2.358  23.538  0.00  0.00    +0.119 C 
BRANCH  14  16
ATOM     16  C   UNL     1      -0.075  -1.577  23.301  0.00  0.00    -0.033 A 
ATOM     17  C   UNL     1       0.170  -1.010  22.050  0.00  0.00    +0.007 A 
ATOM     18  C   UNL     1       0.852  -1.420  24.331  0.00  0.00    +0.007 A 
ATOM     20  C   UNL     1       1.342  -0.285  21.830  0.00  0.00    +0.027 A 
ATOM     21  C   UNL     1       2.024  -0.697  24.111  0.00  0.00    +0.027 A 
ATOM     22  C   UNL     1       2.268  -0.129  22.861  0.00  0.00    +0.088 A 
BRANCH  22   1
ATOM      1  S   UNL     1       3.734   0.781  22.585  0.00  0.00    -0.006 S 
ATOM      5  O   UNL     1       4.170   0.566  21.212  0.00  0.00    -0.170 OA
ATOM      6  O   UNL     1       3.519   2.135  23.071  0.00  0.00    -0.170 OA
ATOM     24  C   UNL     1       4.939   0.005  23.638  0.00  0.00    +0.200 C 
ENDBRANCH  22   1
ENDBRANCH  14  16
ENDBRANCH   7  14
TORSDOF 7
ENDMDL
MODEL 9
REMARK VINA RESULT:       2.5      2.290      3.539
REMARK  Name = 51137611
REMARK  8 active torsions:
REMARK  status: ('A' for Active; 'I' for Inactive)
REMARK    1  A    between atoms: S_1  and  C_22
REMARK    2  A    between atoms: S_1  and  C_24
REMARK    3  A    between atoms: O_4  and  C_23
REMARK    4  A    between atoms: O_4  and  C_25
REMARK    5  A    between atoms: N_7  and  C_14
REMARK    6  A    between atoms: C_10  and  C_15
REMARK    7  A    between atoms: C_14  and  C_16
REMARK    8  A    between atoms: C_19  and  C_23
REMARK                            x       y       z     vdW  Elec       q    Type
REMARK                         _______ _______ _______ _____ _____    ______ ____
ROOT
ATOM      7  N   UNL     1      -0.371  -0.581  23.818  0.00  0.00    -0.297 NA
ATOM     10  C   UNL     1      -2.303  -0.284  25.114  0.00  0.00    +0.092 C 
ATOM     11  C   UNL     1      -2.064  -1.786  24.883  0.00  0.00    +0.029 C 
ATOM     12  C   UNL     1      -1.413   0.415  24.077  0.00  0.00    +0.097 C 
ATOM     13  C   UNL     1      -1.084  -1.854  23.719  0.00  0.00    +0.085 C 
ENDROOT
BRANCH  10  15
ATOM      3  O   UNL     1      -4.106   1.233  25.778  0.00  0.00    -0.421 OA
ATOM      8  N   UNL     1      -4.741  -0.367  24.349  0.00  0.00    -0.112 NA
ATOM      9  N   UNL     1      -5.846   0.411  24.638  0.00  0.00    -0.109 NA
ATOM     15  C   UNL     1      -3.749   0.149  25.036  0.00  0.00    +0.222 A 
ATOM     19  C   UNL     1      -5.429   1.333  25.475  0.00  0.00    +0.254 A 
BRANCH  19  23
ATOM     23  C   UNL     1      -6.175   2.427  26.109  0.00  0.00    +0.326 C 
BRANCH  23   4
ATOM      4  O   UNL     1      -5.783   3.683  25.550  0.00  0.00    -0.483 OA
BRANCH   4  25
ATOM      2  F   UNL     1      -0.405   4.397  24.668  0.00  0.00    -0.205 F 
ATOM     25  C   UNL     1      -4.445   3.861  25.330  0.00  0.00    +0.121 A 
ATOM     26  C   UNL     1      -3.923   3.712  24.045  0.00  0.00    +0.048 A 
ATOM     27  C   UNL     1      -3.603   4.192  26.392  0.00  0.00    +0.048 A 
ATOM     28  C   UNL     1      -2.558   3.893  23.822  0.00  0.00    +0.042 A 
ATOM     29  C   UNL     1      -2.238   4.373  26.169  0.00  0.00    +0.042 A 
ATOM     30  C   UNL     1      -1.716   4.224  24.884  0.00  0.00    +0.124 A 
ENDBRANCH   4  25
ENDBRANCH  23   4
ENDBRANCH  19  23
ENDBRANCH  10  15
BRANCH   7  14
ATOM     14  C   UNL     1       0.398  -0.282  22.619  0.00  0.00    +0.119 C 
BRANCH  14  16
ATOM     16  C   UNL     1       1.878  -0.270  22.890  0.00  0.00    -0.033 A 
ATOM     17  C   UNL     1       2.644   0.841  22.535  0.00  0.00    +0.007 A 
ATOM     18  C   UNL     1       2.486  -1.370  23.496  0.00  0.00    +0.007 A 
ATOM     20  C   UNL     1       4.016   0.853  22.786  0.00  0.00    +0.027 A 
ATOM     21  C   UNL     1       3.858  -1.359  23.748  0.00  0.00    +0.027 A 
ATOM     22  C   UNL     1       4.622  -0.248  23.393  0.00  0.00    +0.088 A 
BRANCH  22   1
ATOM      1  S   UNL     1       6.340  -0.231  23.710  0.00  0.00    -0.006 S 
ATOM      5  O   UNL     1       6.616  -1.091  24.853  0.00  0.00    -0.170 OA
ATOM      6  O   UNL     1       7.030  -0.459  22.450  0.00  0.00    -0.170 OA
ATOM     24  C   UNL     1       6.677   1.438  24.225  0.00  0.00    +0.200 C 
ENDBRANCH  22   1
ENDBRANCH  14  16
ENDBRANCH   7  14
TORSDOF 7
ENDMDL
MODEL 10
REMARK VINA RESULT:       3.0      3.494      7.364
REMARK  Name = 51137611
REMARK  8 active torsions:
REMARK  status: ('A' for Active; 'I' for Inactive)
REMARK    1  A    between atoms: S_1  and  C_22
REMARK    2  A    between atoms: S_1  and  C_24
REMARK    3  A    between atoms: O_4  and  C_23
REMARK    4  A    between atoms: O_4  and  C_25
REMARK    5  A    between atoms: N_7  and  C_14
REMARK    6  A    between atoms: C_10  and  C_15
REMARK    7  A    between atoms: C_14  and  C_16
REMARK    8  A    between atoms: C_19  and  C_23
REMARK                            x       y       z     vdW  Elec       q    Type
REMARK                         _______ _______ _______ _____ _____    ______ ____
ROOT
ATOM      7  N   UNL     1      -0.557   4.965  24.756  0.00  0.00    -0.297 NA
ATOM     10  C   UNL     1       0.742   3.046  24.391  0.00  0.00    +0.092 C 
ATOM     11  C   UNL     1       0.771   3.934  23.135  0.00  0.00    +0.029 C 
ATOM     12  C   UNL     1      -0.436   3.580  25.217  0.00  0.00    +0.097 C 
ATOM     13  C   UNL     1      -0.400   4.893  23.304  0.00  0.00    +0.085 C 
ENDROOT
BRANCH  10  15
ATOM      3  O   UNL     1       0.199   0.779  25.136  0.00  0.00    -0.421 OA
ATOM      8  N   UNL     1       0.934   0.892  23.027  0.00  0.00    -0.112 NA
ATOM      9  N   UNL     1       0.667  -0.433  23.316  0.00  0.00    -0.109 NA
ATOM     15  C   UNL     1       0.647   1.563  24.118  0.00  0.00    +0.222 A 
ATOM     19  C   UNL     1       0.239  -0.452  24.557  0.00  0.00    +0.254 A 
BRANCH  19  23
ATOM     23  C   UNL     1      -0.190  -1.589  25.381  0.00  0.00    +0.326 C 
BRANCH  23   4
ATOM      4  O   UNL     1      -1.507  -1.361  25.892  0.00  0.00    -0.483 OA
BRANCH   4  25
ATOM      2  F   UNL     1      -5.678  -3.070  22.748  0.00  0.00    -0.205 F 
ATOM     25  C   UNL     1      -2.544  -1.785  25.110  0.00  0.00    +0.121 A 
ATOM     26  C   UNL     1      -3.215  -0.880  24.288  0.00  0.00    +0.048 A 
ATOM     27  C   UNL     1      -2.931  -3.126  25.133  0.00  0.00    +0.048 A 
ATOM     28  C   UNL     1      -4.274  -1.314  23.491  0.00  0.00    +0.042 A 
ATOM     29  C   UNL     1      -3.990  -3.560  24.336  0.00  0.00    +0.042 A 
ATOM     30  C   UNL     1      -4.660  -2.654  23.514  0.00  0.00    +0.124 A 
ENDBRANCH   4  25
ENDBRANCH  23   4
ENDBRANCH  19  23
ENDBRANCH  10  15
BRANCH   7  14
ATOM     14  C   UNL     1      -1.819   5.573  25.148  0.00  0.00    +0.119 C 
BRANCH  14  16
ATOM     16  C   UNL     1      -2.929   4.560  25.228  0.00  0.00    -0.033 A 
ATOM     17  C   UNL     1      -3.405   3.953  24.066  0.00  0.00    +0.007 A 
ATOM     18  C   UNL     1      -3.483   4.228  26.464  0.00  0.00    +0.007 A 
ATOM     20  C   UNL     1      -4.433   3.014  24.140  0.00  0.00    +0.027 A 
ATOM     21  C   UNL     1      -4.512   3.290  26.539  0.00  0.00    +0.027 A 
ATOM     22  C   UNL     1      -4.986   2.682  25.377  0.00  0.00    +0.088 A 
BRANCH  22   1
ATOM      1  S   UNL     1      -6.272   1.504  25.469  0.00  0.00    -0.006 S 
ATOM      5  O   UNL     1      -7.324   1.880  24.534  0.00  0.00    -0.170 OA
ATOM      6  O   UNL     1      -5.674   0.180  25.389  0.00  0.00    -0.170 OA
ATOM     24  C   UNL     1      -6.939   1.705  27.106  0.00  0.00    +0.200 C 
ENDBRANCH  22   1
ENDBRANCH  14  16
ENDBRANCH   7  14
TORSDOF 7
ENDMDL
