MODEL 1
REMARK VINA RESULT:       7.4      0.000      0.000
REMARK  Name = 7156241
REMARK  4 active torsions:
REMARK  status: ('A' for Active; 'I' for Inactive)
REMARK    1  A    between atoms: N_6  and  C_19
REMARK    2  A    between atoms: N_7  and  C_28
REMARK    3  A    between atoms: C_18  and  C_21
REMARK    4  A    between atoms: C_31  and  C_34
REMARK                            x       y       z     vdW  Elec       q    Type
REMARK                         _______ _______ _______ _____ _____    ______ ____
ROOT
ATOM      1  O   UNL     1      -0.290   3.110  25.686  0.00  0.00    -0.266 OA
ATOM      2  O   UNL     1      -3.796  -0.370  27.220  0.00  0.00    -0.270 OA
ATOM      4  N   UNL     1      -4.799   0.976  25.590  0.00  0.00    -0.297 N 
ATOM      5  N   UNL     1      -2.404   2.865  24.721  0.00  0.00    -0.310 N 
ATOM      9  C   UNL     1      -4.570   3.424  25.970  0.00  0.00    +0.027 C 
ATOM     10  C   UNL     1      -4.673   2.549  23.672  0.00  0.00    +0.054 C 
ATOM     11  C   UNL     1      -5.137   3.686  24.579  0.00  0.00    +0.018 C 
ATOM     12  C   UNL     1      -5.077   2.076  26.512  0.00  0.00    +0.113 C 
ATOM     13  C   UNL     1      -3.038   3.478  25.897  0.00  0.00    +0.130 C 
ATOM     14  C   UNL     1      -5.224   1.208  24.200  0.00  0.00    +0.117 C 
ATOM     15  C   UNL     1      -3.158   2.488  23.605  0.00  0.00    +0.027 A 
ATOM     16  C   UNL     1      -2.547   2.038  22.496  0.00  0.00    +0.024 A 
ATOM     17  C   UNL     1      -0.997   2.775  24.735  0.00  0.00    +0.273 A 
ATOM     18  C   UNL     1      -4.154  -0.170  26.060  0.00  0.00    +0.247 C 
ATOM     19  C   UNL     1      -0.357   2.242  23.490  0.00  0.00    +0.100 A 
ATOM     20  C   UNL     1      -1.118   1.913  22.441  0.00  0.00    +0.030 A 
ENDROOT
BRANCH  19   6
ATOM      3  O   UNL     1       1.109  -0.193  23.594  0.00  0.00    -0.252 OA
ATOM      6  N   UNL     1       1.001   2.121  23.471  0.00  0.00    -0.265 N 
ATOM      7  N   UNL     1       3.060   1.108  23.487  0.00  0.00    -0.269 N 
ATOM     24  C   UNL     1       1.678   0.896  23.525  0.00  0.00    +0.308 C 
ATOM     35  H   UNL     1       1.541   2.958  23.673  0.00  0.00    +0.157 HD
ATOM     36  H   UNL     1       3.370   2.075  23.424  0.00  0.00    +0.156 HD
BRANCH   7  28
ATOM     28  C   UNL     1       4.090   0.138  23.519  0.00  0.00    +0.036 A 
ATOM     29  C   UNL     1       5.403   0.536  23.330  0.00  0.00    +0.042 A 
ATOM     30  C   UNL     1       3.763  -1.189  23.740  0.00  0.00    +0.023 A 
ATOM     31  C   UNL     1       6.418  -0.421  23.362  0.00  0.00    +0.054 A 
ATOM     32  C   UNL     1       4.778  -2.146  23.772  0.00  0.00    +0.003 A 
ATOM     33  C   UNL     1       6.104  -1.762  23.583  0.00  0.00    +0.019 A 
BRANCH  31  34
ATOM      8  N   UNL     1       8.884   0.293  23.012  0.00  0.00    -0.191 NA
ATOM     34  C   UNL     1       7.778  -0.026  23.169  0.00  0.00    +0.099 C 
ENDBRANCH  31  34
ENDBRANCH   7  28
ENDBRANCH  19   6
BRANCH  18  21
ATOM     21  C   UNL     1      -3.851  -1.233  25.095  0.00  0.00    +0.037 A 
ATOM     22  C   UNL     1      -4.809  -1.615  24.160  0.00  0.00    +0.013 A 
ATOM     23  C   UNL     1      -2.605  -1.854  25.121  0.00  0.00    +0.013 A 
ATOM     25  C   UNL     1      -4.520  -2.625  23.244  0.00  0.00    +0.001 A 
ATOM     26  C   UNL     1      -2.316  -2.866  24.204  0.00  0.00    +0.001 A 
ATOM     27  C   UNL     1      -3.273  -3.251  23.266  0.00  0.00    +0.000 A 
ENDBRANCH  18  21
TORSDOF 4
ENDMDL
