MODEL 1
REMARK VINA RESULT:      -5.2      0.000      0.000
REMARK  Name = 75367638
REMARK  4 active torsions:
REMARK  status: ('A' for Active; 'I' for Inactive)
REMARK    1  A    between atoms: O_3  and  C_12
REMARK    2  A    between atoms: O_3  and  C_18
REMARK    3  A    between atoms: C_7  and  C_10
REMARK    4  A    between atoms: C_20  and  C_23
REMARK                            x       y       z     vdW  Elec       q    Type
REMARK                         _______ _______ _______ _____ _____    ______ ____
ROOT
ATOM      2  O   UNL     1       0.896   2.578  23.878  0.00  0.00    -0.375 OA
ATOM      4  O   UNL     1      -0.577  -1.923  25.171  0.00  0.00    -0.275 OA
ATOM      5  N   UNL     1      -1.058   0.119  24.153  0.00  0.00    -0.295 N 
ATOM     10  C   UNL     1      -1.366  -1.005  24.932  0.00  0.00    +0.219 C 
ATOM     11  C   UNL     1      -2.030   1.182  23.881  0.00  0.00    +0.154 C 
ATOM     12  C   UNL     1      -1.485   2.506  23.339  0.00  0.00    +0.218 C 
ATOM     13  C   UNL     1       0.284   0.230  23.574  0.00  0.00    +0.136 C 
ATOM     16  C   UNL     1      -0.384   3.102  24.212  0.00  0.00    +0.206 C 
ATOM     17  C   UNL     1       1.129   1.248  24.329  0.00  0.00    +0.179 C 
ENDROOT
BRANCH  10   7
ATOM      1  O   UNL     1      -4.539  -2.713  23.951  0.00  0.00    -0.380 OA
ATOM      7  C   UNL     1      -2.752  -1.061  25.505  0.00  0.00    +0.079 C 
ATOM      8  C   UNL     1      -3.773  -0.478  24.529  0.00  0.00    +0.041 C 
ATOM      9  C   UNL     1      -3.100  -2.497  25.896  0.00  0.00    +0.041 C 
ATOM     14  C   UNL     1      -4.134  -1.455  23.414  0.00  0.00    +0.160 C 
ATOM     15  C   UNL     1      -3.491  -3.341  24.687  0.00  0.00    +0.160 C 
ENDBRANCH  10   7
BRANCH  12   3
ATOM      3  O   UNL     1      -2.565   3.441  23.302  0.00  0.00    -0.469 OA
BRANCH   3  18
ATOM      6  N   UNL     1      -4.594   2.604  24.049  0.00  0.00    -0.218 NA
ATOM     18  C   UNL     1      -3.491   3.343  24.303  0.00  0.00    +0.215 A 
ATOM     19  C   UNL     1      -3.255   3.997  25.503  0.00  0.00    +0.067 A 
ATOM     20  C   UNL     1      -5.502   2.516  25.046  0.00  0.00    +0.042 A 
ATOM     21  C   UNL     1      -4.212   3.883  26.505  0.00  0.00    +0.007 A 
ATOM     22  C   UNL     1      -5.360   3.130  26.281  0.00  0.00    +0.023 A 
ATOM     23  C   UNL     1      -6.723   1.703  24.770  0.00  0.00    +0.066 C 
ENDBRANCH   3  18
ENDBRANCH  12   3
TORSDOF 3
ENDMDL
MODEL 2
REMARK VINA RESULT:      -3.8      1.588      4.534
REMARK  Name = 75367638
REMARK  4 active torsions:
REMARK  status: ('A' for Active; 'I' for Inactive)
REMARK    1  A    between atoms: O_3  and  C_12
REMARK    2  A    between atoms: O_3  and  C_18
REMARK    3  A    between atoms: C_7  and  C_10
REMARK    4  A    between atoms: C_20  and  C_23
REMARK                            x       y       z     vdW  Elec       q    Type
REMARK                         _______ _______ _______ _____ _____    ______ ____
ROOT
ATOM      2  O   UNL     1      -3.844  -2.818  24.645  0.00  0.00    -0.375 OA
ATOM      4  O   UNL     1       0.886  -1.527  24.388  0.00  0.00    -0.275 OA
ATOM      5  N   UNL     1      -1.345  -0.896  24.635  0.00  0.00    -0.295 N 
ATOM     10  C   UNL     1      -0.036  -0.738  24.161  0.00  0.00    +0.219 C 
ATOM     11  C   UNL     1      -2.409   0.074  24.353  0.00  0.00    +0.154 C 
ATOM     12  C   UNL     1      -3.850  -0.377  24.606  0.00  0.00    +0.218 C 
ATOM     13  C   UNL     1      -1.663  -2.067  25.456  0.00  0.00    +0.136 C 
ATOM     16  C   UNL     1      -4.207  -1.673  23.883  0.00  0.00    +0.206 C 
ATOM     17  C   UNL     1      -2.449  -3.102  24.662  0.00  0.00    +0.179 C 
ENDROOT
BRANCH  10   7
ATOM      1  O   UNL     1       2.774   0.360  21.959  0.00  0.00    -0.380 OA
ATOM      7  C   UNL     1       0.229   0.475  23.318  0.00  0.00    +0.079 C 
ATOM      8  C   UNL     1       1.463   1.228  23.814  0.00  0.00    +0.041 C 
ATOM      9  C   UNL     1       0.365   0.075  21.849  0.00  0.00    +0.041 C 
ATOM     14  C   UNL     1       2.764   0.567  23.370  0.00  0.00    +0.160 C 
ATOM     15  C   UNL     1       1.734  -0.523  21.542  0.00  0.00    +0.160 C 
ENDBRANCH  10   7
BRANCH  12   3
ATOM      3  O   UNL     1      -4.719   0.647  24.118  0.00  0.00    -0.469 OA
BRANCH   3  18
ATOM      6  N   UNL     1      -3.323   2.406  24.692  0.00  0.00    -0.218 NA
ATOM     18  C   UNL     1      -4.570   1.889  24.672  0.00  0.00    +0.215 A 
ATOM     19  C   UNL     1      -5.687   2.537  25.176  0.00  0.00    +0.067 A 
ATOM     20  C   UNL     1      -3.189   3.633  25.244  0.00  0.00    +0.042 A 
ATOM     21  C   UNL     1      -5.511   3.798  25.735  0.00  0.00    +0.007 A 
ATOM     22  C   UNL     1      -4.240   4.363  25.773  0.00  0.00    +0.023 A 
ATOM     23  C   UNL     1      -1.812   4.208  25.270  0.00  0.00    +0.066 C 
ENDBRANCH   3  18
ENDBRANCH  12   3
TORSDOF 3
ENDMDL
MODEL 3
REMARK VINA RESULT:      -3.6      1.915      4.935
REMARK  Name = 75367638
REMARK  4 active torsions:
REMARK  status: ('A' for Active; 'I' for Inactive)
REMARK    1  A    between atoms: O_3  and  C_12
REMARK    2  A    between atoms: O_3  and  C_18
REMARK    3  A    between atoms: C_7  and  C_10
REMARK    4  A    between atoms: C_20  and  C_23
REMARK                            x       y       z     vdW  Elec       q    Type
REMARK                         _______ _______ _______ _____ _____    ______ ____
ROOT
ATOM      2  O   UNL     1       0.983  -0.320  23.066  0.00  0.00    -0.375 OA
ATOM      4  O   UNL     1      -0.191   4.201  24.578  0.00  0.00    -0.275 OA
ATOM      5  N   UNL     1      -0.127   1.908  25.000  0.00  0.00    -0.295 N 
ATOM     10  C   UNL     1      -0.707   3.184  25.048  0.00  0.00    +0.219 C 
ATOM     11  C   UNL     1      -0.769   0.727  25.585  0.00  0.00    +0.154 C 
ATOM     12  C   UNL     1      -0.232  -0.642  25.160  0.00  0.00    +0.218 C 
ATOM     13  C   UNL     1       1.178   1.750  24.353  0.00  0.00    +0.136 C 
ATOM     16  C   UNL     1      -0.210  -0.833  23.646  0.00  0.00    +0.206 C 
ATOM     17  C   UNL     1       1.040   1.099  22.982  0.00  0.00    +0.179 C 
ENDROOT
BRANCH  10   7
ATOM      1  O   UNL     1      -4.103   4.287  23.953  0.00  0.00    -0.380 OA
ATOM      7  C   UNL     1      -2.047   3.284  25.716  0.00  0.00    +0.079 C 
ATOM      8  C   UNL     1      -2.533   4.732  25.756  0.00  0.00    +0.041 C 
ATOM      9  C   UNL     1      -3.053   2.371  25.014  0.00  0.00    +0.041 C 
ATOM     14  C   UNL     1      -3.103   5.191  24.418  0.00  0.00    +0.160 C 
ATOM     15  C   UNL     1      -3.575   2.983  23.718  0.00  0.00    +0.160 C 
ENDBRANCH  10   7
BRANCH  12   3
ATOM      3  O   UNL     1      -1.093  -1.640  25.712  0.00  0.00    -0.469 OA
BRANCH   3  18
ATOM      6  N   UNL     1      -3.176  -0.804  25.131  0.00  0.00    -0.218 NA
ATOM     18  C   UNL     1      -2.293  -1.826  25.083  0.00  0.00    +0.215 A 
ATOM     19  C   UNL     1      -2.536  -3.032  24.445  0.00  0.00    +0.067 A 
ATOM     20  C   UNL     1      -4.359  -1.001  24.507  0.00  0.00    +0.042 A 
ATOM     21  C   UNL     1      -3.764  -3.198  23.813  0.00  0.00    +0.007 A 
ATOM     22  C   UNL     1      -4.698  -2.168  23.841  0.00  0.00    +0.023 A 
ATOM     23  C   UNL     1      -5.338   0.124  24.559  0.00  0.00    +0.066 C 
ENDBRANCH   3  18
ENDBRANCH  12   3
TORSDOF 3
ENDMDL
MODEL 4
REMARK VINA RESULT:      -3.3      1.853      5.935
REMARK  Name = 75367638
REMARK  4 active torsions:
REMARK  status: ('A' for Active; 'I' for Inactive)
REMARK    1  A    between atoms: O_3  and  C_12
REMARK    2  A    between atoms: O_3  and  C_18
REMARK    3  A    between atoms: C_7  and  C_10
REMARK    4  A    between atoms: C_20  and  C_23
REMARK                            x       y       z     vdW  Elec       q    Type
REMARK                         _______ _______ _______ _____ _____    ______ ____
ROOT
ATOM      2  O   UNL     1      -6.435   2.709  25.515  0.00  0.00    -0.375 OA
ATOM      4  O   UNL     1      -2.093   4.905  24.855  0.00  0.00    -0.275 OA
ATOM      5  N   UNL     1      -3.347   2.940  24.924  0.00  0.00    -0.295 N 
ATOM     10  C   UNL     1      -2.201   3.713  25.156  0.00  0.00    +0.219 C 
ATOM     11  C   UNL     1      -3.428   1.521  25.285  0.00  0.00    +0.154 C 
ATOM     12  C   UNL     1      -4.821   0.887  25.321  0.00  0.00    +0.218 C 
ATOM     13  C   UNL     1      -4.505   3.568  24.283  0.00  0.00    +0.136 C 
ATOM     16  C   UNL     1      -5.800   1.645  26.214  0.00  0.00    +0.206 C 
ATOM     17  C   UNL     1      -5.611   3.848  25.293  0.00  0.00    +0.179 C 
ENDROOT
BRANCH  10   7
ATOM      1  O   UNL     1       0.785   1.831  23.935  0.00  0.00    -0.380 OA
ATOM      7  C   UNL     1      -1.049   3.019  25.823  0.00  0.00    +0.079 C 
ATOM      8  C   UNL     1      -1.050   1.525  25.501  0.00  0.00    +0.041 C 
ATOM      9  C   UNL     1       0.268   3.682  25.420  0.00  0.00    +0.041 C 
ATOM     14  C   UNL     1      -0.496   1.229  24.111  0.00  0.00    +0.160 C 
ATOM     15  C   UNL     1       0.724   3.253  24.029  0.00  0.00    +0.160 C 
ENDBRANCH  10   7
BRANCH  12   3
ATOM      3  O   UNL     1      -4.686  -0.435  25.847  0.00  0.00    -0.469 OA
BRANCH   3  18
ATOM      6  N   UNL     1      -2.528  -1.248  25.617  0.00  0.00    -0.218 NA
ATOM     18  C   UNL     1      -3.813  -1.263  25.199  0.00  0.00    +0.215 A 
ATOM     19  C   UNL     1      -4.283  -2.057  24.164  0.00  0.00    +0.067 A 
ATOM     20  C   UNL     1      -1.674  -2.070  24.966  0.00  0.00    +0.042 A 
ATOM     21  C   UNL     1      -3.376  -2.890  23.520  0.00  0.00    +0.007 A 
ATOM     22  C   UNL     1      -2.044  -2.903  23.922  0.00  0.00    +0.023 A 
ATOM     23  C   UNL     1      -0.253  -2.056  25.423  0.00  0.00    +0.066 C 
ENDBRANCH   3  18
ENDBRANCH  12   3
TORSDOF 3
ENDMDL
MODEL 5
REMARK VINA RESULT:      -3.2      1.264      1.718
REMARK  Name = 75367638
REMARK  4 active torsions:
REMARK  status: ('A' for Active; 'I' for Inactive)
REMARK    1  A    between atoms: O_3  and  C_12
REMARK    2  A    between atoms: O_3  and  C_18
REMARK    3  A    between atoms: C_7  and  C_10
REMARK    4  A    between atoms: C_20  and  C_23
REMARK                            x       y       z     vdW  Elec       q    Type
REMARK                         _______ _______ _______ _____ _____    ______ ____
ROOT
ATOM      2  O   UNL     1      -0.249   3.494  25.867  0.00  0.00    -0.375 OA
ATOM      4  O   UNL     1       0.183  -1.257  24.706  0.00  0.00    -0.275 OA
ATOM      5  N   UNL     1      -0.642   0.859  24.180  0.00  0.00    -0.295 N 
ATOM     10  C   UNL     1      -0.714  -0.538  24.257  0.00  0.00    +0.219 C 
ATOM     11  C   UNL     1      -1.726   1.676  23.625  0.00  0.00    +0.154 C 
ATOM     12  C   UNL     1      -1.692   3.178  23.922  0.00  0.00    +0.218 C 
ATOM     13  C   UNL     1       0.569   1.532  24.658  0.00  0.00    +0.136 C 
ATOM     16  C   UNL     1      -1.597   3.491  25.413  0.00  0.00    +0.206 C 
ATOM     17  C   UNL     1       0.334   2.202  26.005  0.00  0.00    +0.179 C 
ENDROOT
BRANCH  10   7
ATOM      1  O   UNL     1      -3.502  -2.432  25.866  0.00  0.00    -0.380 OA
ATOM      7  C   UNL     1      -1.981  -1.171  23.760  0.00  0.00    +0.079 C 
ATOM      8  C   UNL     1      -1.968  -2.681  23.995  0.00  0.00    +0.041 C 
ATOM      9  C   UNL     1      -3.191  -0.508  24.418  0.00  0.00    +0.041 C 
ATOM     14  C   UNL     1      -2.287  -3.047  25.441  0.00  0.00    +0.160 C 
ATOM     15  C   UNL     1      -3.417  -1.009  25.840  0.00  0.00    +0.160 C 
ENDBRANCH  10   7
BRANCH  12   3
ATOM      3  O   UNL     1      -2.908   3.747  23.434  0.00  0.00    -0.469 OA
BRANCH   3  18
ATOM      6  N   UNL     1      -4.639   2.371  24.131  0.00  0.00    -0.218 NA
ATOM     18  C   UNL     1      -4.020   3.569  24.211  0.00  0.00    +0.215 A 
ATOM     19  C   UNL     1      -4.445   4.610  25.022  0.00  0.00    +0.067 A 
ATOM     20  C   UNL     1      -5.738   2.209  24.902  0.00  0.00    +0.042 A 
ATOM     21  C   UNL     1      -5.578   4.406  25.801  0.00  0.00    +0.007 A 
ATOM     22  C   UNL     1      -6.243   3.185  25.746  0.00  0.00    +0.023 A 
ATOM     23  C   UNL     1      -6.427   0.888  24.815  0.00  0.00    +0.066 C 
ENDBRANCH   3  18
ENDBRANCH  12   3
TORSDOF 3
ENDMDL
MODEL 6
REMARK VINA RESULT:      -3.2      2.124      6.341
REMARK  Name = 75367638
REMARK  4 active torsions:
REMARK  status: ('A' for Active; 'I' for Inactive)
REMARK    1  A    between atoms: O_3  and  C_12
REMARK    2  A    between atoms: O_3  and  C_18
REMARK    3  A    between atoms: C_7  and  C_10
REMARK    4  A    between atoms: C_20  and  C_23
REMARK                            x       y       z     vdW  Elec       q    Type
REMARK                         _______ _______ _______ _____ _____    ______ ____
ROOT
ATOM      2  O   UNL     1      -1.947  -1.313  25.825  0.00  0.00    -0.375 OA
ATOM      4  O   UNL     1      -5.851   1.370  24.536  0.00  0.00    -0.275 OA
ATOM      5  N   UNL     1      -3.576   0.913  24.299  0.00  0.00    -0.295 N 
ATOM     10  C   UNL     1      -4.690   1.760  24.379  0.00  0.00    +0.219 C 
ATOM     11  C   UNL     1      -2.214   1.417  24.098  0.00  0.00    +0.154 C 
ATOM     12  C   UNL     1      -1.062   0.452  24.388  0.00  0.00    +0.218 C 
ATOM     13  C   UNL     1      -3.781  -0.534  24.407  0.00  0.00    +0.136 C 
ATOM     16  C   UNL     1      -1.126  -0.152  25.788  0.00  0.00    +0.206 C 
ATOM     17  C   UNL     1      -3.345  -1.053  25.772  0.00  0.00    +0.179 C 
ENDROOT
BRANCH  10   7
ATOM      1  O   UNL     1      -3.188   4.322  26.643  0.00  0.00    -0.380 OA
ATOM      7  C   UNL     1      -4.420   3.232  24.270  0.00  0.00    +0.079 C 
ATOM      8  C   UNL     1      -5.206   4.014  25.322  0.00  0.00    +0.041 C 
ATOM      9  C   UNL     1      -2.918   3.499  24.375  0.00  0.00    +0.041 C 
ATOM     14  C   UNL     1      -4.561   3.940  26.702  0.00  0.00    +0.160 C 
ATOM     15  C   UNL     1      -2.426   3.444  25.817  0.00  0.00    +0.160 C 
ENDBRANCH  10   7
BRANCH  12   3
ATOM      3  O   UNL     1       0.159   1.187  24.286  0.00  0.00    -0.469 OA
BRANCH   3  18
ATOM      6  N   UNL     1       2.380   1.014  23.646  0.00  0.00    -0.218 NA
ATOM     18  C   UNL     1       1.087   0.709  23.403  0.00  0.00    +0.215 A 
ATOM     19  C   UNL     1       0.658  -0.047  22.322  0.00  0.00    +0.067 A 
ATOM     20  C   UNL     1       3.287   0.537  22.765  0.00  0.00    +0.042 A 
ATOM     21  C   UNL     1       1.620  -0.521  21.438  0.00  0.00    +0.007 A 
ATOM     22  C   UNL     1       2.963  -0.228  21.656  0.00  0.00    +0.023 A 
ATOM     23  C   UNL     1       4.717   0.873  23.029  0.00  0.00    +0.066 C 
ENDBRANCH   3  18
ENDBRANCH  12   3
TORSDOF 3
ENDMDL
MODEL 7
REMARK VINA RESULT:      -2.8      1.873      5.807
REMARK  Name = 75367638
REMARK  4 active torsions:
REMARK  status: ('A' for Active; 'I' for Inactive)
REMARK    1  A    between atoms: O_3  and  C_12
REMARK    2  A    between atoms: O_3  and  C_18
REMARK    3  A    between atoms: C_7  and  C_10
REMARK    4  A    between atoms: C_20  and  C_23
REMARK                            x       y       z     vdW  Elec       q    Type
REMARK                         _______ _______ _______ _____ _____    ______ ____
ROOT
ATOM      2  O   UNL     1      -5.699   1.666  25.694  0.00  0.00    -0.375 OA
ATOM      4  O   UNL     1      -2.395   5.298  25.728  0.00  0.00    -0.275 OA
ATOM      5  N   UNL     1      -3.361   3.489  24.619  0.00  0.00    -0.295 N 
ATOM     10  C   UNL     1      -2.289   4.304  25.005  0.00  0.00    +0.219 C 
ATOM     11  C   UNL     1      -3.193   2.323  23.745  0.00  0.00    +0.154 C 
ATOM     12  C   UNL     1      -4.346   1.318  23.691  0.00  0.00    +0.218 C 
ATOM     13  C   UNL     1      -4.707   3.820  25.095  0.00  0.00    +0.136 C 
ATOM     16  C   UNL     1      -4.756   0.803  25.068  0.00  0.00    +0.206 C 
ATOM     17  C   UNL     1      -5.148   2.875  26.206  0.00  0.00    +0.179 C 
ENDROOT
BRANCH  10   7
ATOM      1  O   UNL     1       0.282   1.804  26.048  0.00  0.00    -0.380 OA
ATOM      7  C   UNL     1      -0.933   3.912  24.493  0.00  0.00    +0.079 C 
ATOM      8  C   UNL     1       0.146   4.179  25.541  0.00  0.00    +0.041 C 
ATOM      9  C   UNL     1      -0.942   2.448  24.052  0.00  0.00    +0.041 C 
ATOM     14  C   UNL     1       0.183   3.105  26.624  0.00  0.00    +0.160 C 
ATOM     15  C   UNL     1      -0.849   1.492  25.237  0.00  0.00    +0.160 C 
ENDBRANCH  10   7
BRANCH  12   3
ATOM      3  O   UNL     1      -3.911   0.196  22.919  0.00  0.00    -0.469 OA
BRANCH   3  18
ATOM      6  N   UNL     1      -2.209  -0.841  24.101  0.00  0.00    -0.218 NA
ATOM     18  C   UNL     1      -3.470  -0.892  23.619  0.00  0.00    +0.215 A 
ATOM     19  C   UNL     1      -4.323  -1.971  23.791  0.00  0.00    +0.067 A 
ATOM     20  C   UNL     1      -1.784  -1.924  24.790  0.00  0.00    +0.042 A 
ATOM     21  C   UNL     1      -3.851  -3.066  24.506  0.00  0.00    +0.007 A 
ATOM     22  C   UNL     1      -2.558  -3.050  25.018  0.00  0.00    +0.023 A 
ATOM     23  C   UNL     1      -0.391  -1.873  25.323  0.00  0.00    +0.066 C 
ENDBRANCH   3  18
ENDBRANCH  12   3
TORSDOF 3
ENDMDL
MODEL 8
REMARK VINA RESULT:      -2.8      1.749      5.009
REMARK  Name = 75367638
REMARK  4 active torsions:
REMARK  status: ('A' for Active; 'I' for Inactive)
REMARK    1  A    between atoms: O_3  and  C_12
REMARK    2  A    between atoms: O_3  and  C_18
REMARK    3  A    between atoms: C_7  and  C_10
REMARK    4  A    between atoms: C_20  and  C_23
REMARK                            x       y       z     vdW  Elec       q    Type
REMARK                         _______ _______ _______ _____ _____    ______ ____
ROOT
ATOM      2  O   UNL     1      -2.337   4.559  24.990  0.00  0.00    -0.375 OA
ATOM      4  O   UNL     1      -4.947   0.419  24.589  0.00  0.00    -0.275 OA
ATOM      5  N   UNL     1      -2.936   1.467  25.135  0.00  0.00    -0.295 N 
ATOM     10  C   UNL     1      -3.713   0.434  24.592  0.00  0.00    +0.219 C 
ATOM     11  C   UNL     1      -1.470   1.438  25.130  0.00  0.00    +0.154 C 
ATOM     12  C   UNL     1      -0.745   2.756  25.412  0.00  0.00    +0.218 C 
ATOM     13  C   UNL     1      -3.614   2.614  25.745  0.00  0.00    +0.136 C 
ATOM     16  C   UNL     1      -1.185   3.891  24.491  0.00  0.00    +0.206 C 
ATOM     17  C   UNL     1      -3.554   3.837  24.838  0.00  0.00    +0.179 C 
ENDROOT
BRANCH  10   7
ATOM      1  O   UNL     1      -3.965  -3.285  24.817  0.00  0.00    -0.380 OA
ATOM      7  C   UNL     1      -2.965  -0.711  23.974  0.00  0.00    +0.079 C 
ATOM      8  C   UNL     1      -2.272  -1.554  25.044  0.00  0.00    +0.041 C 
ATOM      9  C   UNL     1      -3.910  -1.553  23.116  0.00  0.00    +0.041 C 
ATOM     14  C   UNL     1      -3.237  -2.496  25.756  0.00  0.00    +0.160 C 
ATOM     15  C   UNL     1      -4.775  -2.483  23.960  0.00  0.00    +0.160 C 
ENDBRANCH  10   7
BRANCH  12   3
ATOM      3  O   UNL     1       0.652   2.540  25.200  0.00  0.00    -0.469 OA
BRANCH   3  18
ATOM      6  N   UNL     1       2.268   1.623  23.814  0.00  0.00    -0.218 NA
ATOM     18  C   UNL     1       0.989   1.618  24.247  0.00  0.00    +0.215 A 
ATOM     19  C   UNL     1       0.016   0.746  23.784  0.00  0.00    +0.067 A 
ATOM     20  C   UNL     1       2.588   0.709  22.871  0.00  0.00    +0.042 A 
ATOM     21  C   UNL     1       0.383  -0.181  22.815  0.00  0.00    +0.007 A 
ATOM     22  C   UNL     1       1.692  -0.207  22.344  0.00  0.00    +0.023 A 
ATOM     23  C   UNL     1       4.000   0.712  22.388  0.00  0.00    +0.066 C 
ENDBRANCH   3  18
ENDBRANCH  12   3
TORSDOF 3
ENDMDL
MODEL 9
REMARK VINA RESULT:      -2.4      1.821      3.046
REMARK  Name = 75367638
REMARK  4 active torsions:
REMARK  status: ('A' for Active; 'I' for Inactive)
REMARK    1  A    between atoms: O_3  and  C_12
REMARK    2  A    between atoms: O_3  and  C_18
REMARK    3  A    between atoms: C_7  and  C_10
REMARK    4  A    between atoms: C_20  and  C_23
REMARK                            x       y       z     vdW  Elec       q    Type
REMARK                         _______ _______ _______ _____ _____    ______ ____
ROOT
ATOM      2  O   UNL     1      -1.289   5.442  25.292  0.00  0.00    -0.375 OA
ATOM      4  O   UNL     1       0.906   1.232  24.041  0.00  0.00    -0.275 OA
ATOM      5  N   UNL     1      -0.931   2.657  23.858  0.00  0.00    -0.295 N 
ATOM     10  C   UNL     1      -0.313   1.402  23.952  0.00  0.00    +0.219 C 
ATOM     11  C   UNL     1      -2.384   2.815  23.739  0.00  0.00    +0.154 C 
ATOM     12  C   UNL     1      -2.960   4.207  24.007  0.00  0.00    +0.218 C 
ATOM     13  C   UNL     1      -0.093   3.859  23.862  0.00  0.00    +0.136 C 
ATOM     16  C   UNL     1      -2.545   4.777  25.361  0.00  0.00    +0.206 C 
ATOM     17  C   UNL     1      -0.163   4.576  25.204  0.00  0.00    +0.179 C 
ENDROOT
BRANCH  10   7
ATOM      1  O   UNL     1      -0.352  -1.861  25.767  0.00  0.00    -0.380 OA
ATOM      7  C   UNL     1      -1.222   0.208  23.951  0.00  0.00    +0.079 C 
ATOM      8  C   UNL     1      -0.481  -1.043  23.481  0.00  0.00    +0.041 C 
ATOM      9  C   UNL     1      -1.835   0.014  25.337  0.00  0.00    +0.041 C 
ATOM     14  C   UNL     1       0.397  -1.643  24.574  0.00  0.00    +0.160 C 
ATOM     15  C   UNL     1      -0.859  -0.643  26.308  0.00  0.00    +0.160 C 
ENDBRANCH  10   7
BRANCH  12   3
ATOM      3  O   UNL     1      -4.385   4.100  23.999  0.00  0.00    -0.469 OA
BRANCH   3  18
ATOM      6  N   UNL     1      -4.611   1.800  24.176  0.00  0.00    -0.218 NA
ATOM     18  C   UNL     1      -4.919   3.025  24.654  0.00  0.00    +0.215 A 
ATOM     19  C   UNL     1      -5.737   3.246  25.752  0.00  0.00    +0.067 A 
ATOM     20  C   UNL     1      -5.147   0.746  24.831  0.00  0.00    +0.042 A 
ATOM     21  C   UNL     1      -6.269   2.138  26.400  0.00  0.00    +0.007 A 
ATOM     22  C   UNL     1      -5.973   0.860  25.937  0.00  0.00    +0.023 A 
ATOM     23  C   UNL     1      -4.810  -0.610  24.305  0.00  0.00    +0.066 C 
ENDBRANCH   3  18
ENDBRANCH  12   3
TORSDOF 3
ENDMDL
MODEL 10
REMARK VINA RESULT:      -2.3      1.582      4.461
REMARK  Name = 75367638
REMARK  4 active torsions:
REMARK  status: ('A' for Active; 'I' for Inactive)
REMARK    1  A    between atoms: O_3  and  C_12
REMARK    2  A    between atoms: O_3  and  C_18
REMARK    3  A    between atoms: C_7  and  C_10
REMARK    4  A    between atoms: C_20  and  C_23
REMARK                            x       y       z     vdW  Elec       q    Type
REMARK                         _______ _______ _______ _____ _____    ______ ____
ROOT
ATOM      2  O   UNL     1      -3.775  -3.103  24.135  0.00  0.00    -0.375 OA
ATOM      4  O   UNL     1       0.499  -0.688  24.080  0.00  0.00    -0.275 OA
ATOM      5  N   UNL     1      -1.736  -0.776  24.740  0.00  0.00    -0.295 N 
ATOM     10  C   UNL     1      -0.582  -0.128  24.276  0.00  0.00    +0.219 C 
ATOM     11  C   UNL     1      -2.999  -0.069  24.973  0.00  0.00    +0.154 C 
ATOM     12  C   UNL     1      -4.260  -0.923  25.123  0.00  0.00    +0.218 C 
ATOM     13  C   UNL     1      -1.674  -2.213  25.016  0.00  0.00    +0.136 C 
ATOM     16  C   UNL     1      -4.478  -1.880  23.954  0.00  0.00    +0.206 C 
ATOM     17  C   UNL     1      -2.370  -3.017  23.924  0.00  0.00    +0.179 C 
ENDROOT
BRANCH  10   7
ATOM      1  O   UNL     1       0.662   2.964  25.961  0.00  0.00    -0.380 OA
ATOM      7  C   UNL     1      -0.707   1.343  24.003  0.00  0.00    +0.079 C 
ATOM      8  C   UNL     1      -1.438   2.052  25.141  0.00  0.00    +0.041 C 
ATOM      9  C   UNL     1       0.675   1.949  23.755  0.00  0.00    +0.041 C 
ATOM     14  C   UNL     1      -0.537   2.296  26.348  0.00  0.00    +0.160 C 
ATOM     15  C   UNL     1       1.438   2.184  25.054  0.00  0.00    +0.160 C 
ENDBRANCH  10   7
BRANCH  12   3
ATOM      3  O   UNL     1      -5.382  -0.040  25.178  0.00  0.00    -0.469 OA
BRANCH   3  18
ATOM      6  N   UNL     1      -4.460   1.626  23.856  0.00  0.00    -0.218 NA
ATOM     18  C   UNL     1      -5.122   1.289  24.984  0.00  0.00    +0.215 A 
ATOM     19  C   UNL     1      -5.542   2.201  25.940  0.00  0.00    +0.067 A 
ATOM     20  C   UNL     1      -4.208   2.942  23.677  0.00  0.00    +0.042 A 
ATOM     21  C   UNL     1      -5.266   3.546  25.720  0.00  0.00    +0.007 A 
ATOM     22  C   UNL     1      -4.586   3.932  24.570  0.00  0.00    +0.023 A 
ATOM     23  C   UNL     1      -3.475   3.319  22.433  0.00  0.00    +0.066 C 
ENDBRANCH   3  18
ENDBRANCH  12   3
TORSDOF 3
ENDMDL
