MODEL 1
REMARK VINA RESULT:       3.6      0.000      0.000
REMARK  Name = 44716903
REMARK  13 active torsions:
REMARK  status: ('A' for Active; 'I' for Inactive)
REMARK    1  A    between atoms: O_1  and  C_16
REMARK    2  A    between atoms: O_1  and  C_25
REMARK    3  A    between atoms: O_2  and  C_17
REMARK    4  A    between atoms: O_3  and  C_21
REMARK    5  A    between atoms: O_6  and  C_28
REMARK    6  A    between atoms: O_7  and  C_35
REMARK    7  A    between atoms: O_7  and  C_36
REMARK    8  A    between atoms: N_9  and  C_30
REMARK    9  A    between atoms: C_10  and  C_20
REMARK   10  A    between atoms: C_12  and  C_21
REMARK   11  A    between atoms: C_12  and  C_23
REMARK   12  A    between atoms: C_13  and  C_22
REMARK   13  A    between atoms: C_22  and  C_24
REMARK                            x       y       z     vdW  Elec       q    Type
REMARK                         _______ _______ _______ _____ _____    ______ ____
ROOT
ATOM     10  C   UNL     1      -3.743   1.579  24.502  0.00  0.00    -0.023 C 
ATOM     11  C   UNL     1      -4.502   0.205  24.345  0.00  0.00    +0.007 C 
ATOM     12  C   UNL     1      -3.630  -1.104  24.464  0.00  0.00    +0.031 C 
ATOM     13  C   UNL     1      -4.740   2.716  24.030  0.00  0.00    +0.032 C 
ATOM     14  C   UNL     1      -2.505   1.565  23.565  0.00  0.00    +0.011 C 
ATOM     15  C   UNL     1      -5.800   0.193  25.183  0.00  0.00    +0.007 C 
ATOM     16  C   UNL     1      -2.381  -0.963  23.542  0.00  0.00    +0.186 C 
ATOM     17  C   UNL     1      -6.094   2.694  24.776  0.00  0.00    +0.119 C 
ATOM     18  C   UNL     1      -1.614   0.341  23.740  0.00  0.00    +0.046 C 
ATOM     19  C   UNL     1      -6.747   1.315  24.754  0.00  0.00    +0.032 C 
ATOM     20  C   UNL     1      -3.249   1.853  25.943  0.00  0.00    +0.012 C 
ATOM     23  C   UNL     1      -4.457  -2.316  23.946  0.00  0.00    +0.017 C 
ENDROOT
BRANCH  17   2
ATOM      2  O   UNL     1      -5.940   3.133  26.123  0.00  0.00    -0.391 OA
ATOM     37  H   UNL     1      -6.529   3.895  26.255  0.00  0.00    +0.210 HD
ENDBRANCH  17   2
BRANCH  16   1
ATOM      1  O   UNL     1      -1.453  -2.030  23.740  0.00  0.00    -0.446 OA
BRANCH   1  25
ATOM      5  O   UNL     1       0.095  -1.769  25.404  0.00  0.00    -0.226 OA
ATOM      9  N   UNL     1       0.558  -1.222  23.176  0.00  0.00    -0.251 N 
ATOM     25  C   UNL     1      -0.219  -1.677  24.223  0.00  0.00    +0.405 C 
ATOM     39  H   UNL     1       0.118  -1.218  22.259  0.00  0.00    +0.158 HD
BRANCH   9  30
ATOM     30  C   UNL     1       1.892  -0.756  23.219  0.00  0.00    +0.037 A 
ATOM     31  C   UNL     1       2.893  -1.560  23.763  0.00  0.00    +0.027 A 
ATOM     32  C   UNL     1       2.207   0.507  22.717  0.00  0.00    +0.027 A 
ATOM     33  C   UNL     1       4.210  -1.101  23.806  0.00  0.00    +0.047 A 
ATOM     34  C   UNL     1       3.523   0.966  22.760  0.00  0.00    +0.047 A 
ATOM     35  C   UNL     1       4.525   0.163  23.304  0.00  0.00    +0.120 A 
BRANCH  35   7
ATOM      7  O   UNL     1       5.809   0.610  23.346  0.00  0.00    -0.495 OA
ATOM     36  C   UNL     1       6.837  -0.346  23.083  0.00  0.00    +0.277 C 
ENDBRANCH  35   7
ENDBRANCH   9  30
ENDBRANCH   1  25
ENDBRANCH  16   1
BRANCH  12  21
ATOM     21  C   UNL     1      -3.226  -1.462  25.909  0.00  0.00    +0.166 C 
BRANCH  21   3
ATOM      3  O   UNL     1      -3.235  -2.867  26.026  0.00  0.00    -0.394 OA
ATOM     38  H   UNL     1      -3.152  -3.080  26.972  0.00  0.00    +0.209 HD
ENDBRANCH  21   3
ENDBRANCH  12  21
BRANCH  13  22
ATOM     22  C   UNL     1      -4.156   4.138  24.048  0.00  0.00    +0.102 C 
BRANCH  22  24
ATOM      4  O   UNL     1      -3.722   4.480  26.365  0.00  0.00    -0.276 OA
ATOM      8  N   UNL     1      -1.893   4.229  24.975  0.00  0.00    -0.299 N 
ATOM     24  C   UNL     1      -3.249   4.301  25.241  0.00  0.00    +0.216 C 
ATOM     26  C   UNL     1      -1.271   4.016  23.668  0.00  0.00    +0.139 C 
ATOM     27  C   UNL     1      -0.890   4.362  26.021  0.00  0.00    +0.110 C 
ATOM     28  C   UNL     1       0.203   3.778  23.982  0.00  0.00    +0.133 C 
ATOM     29  C   UNL     1       0.421   4.559  25.273  0.00  0.00    +0.052 C 
BRANCH  28   6
ATOM      6  O   UNL     1       0.431   2.394  24.227  0.00  0.00    -0.390 OA
ATOM     40  H   UNL     1       1.142   2.107  23.630  0.00  0.00    +0.210 HD
ENDBRANCH  28   6
ENDBRANCH  22  24
ENDBRANCH  13  22
TORSDOF 10
ENDMDL
MODEL 2
REMARK VINA RESULT:       4.8     14.250     17.838
REMARK  Name = 44716903
REMARK  13 active torsions:
REMARK  status: ('A' for Active; 'I' for Inactive)
REMARK    1  A    between atoms: O_1  and  C_16
REMARK    2  A    between atoms: O_1  and  C_25
REMARK    3  A    between atoms: O_2  and  C_17
REMARK    4  A    between atoms: O_3  and  C_21
REMARK    5  A    between atoms: O_6  and  C_28
REMARK    6  A    between atoms: O_7  and  C_35
REMARK    7  A    between atoms: O_7  and  C_36
REMARK    8  A    between atoms: N_9  and  C_30
REMARK    9  A    between atoms: C_10  and  C_20
REMARK   10  A    between atoms: C_12  and  C_21
REMARK   11  A    between atoms: C_12  and  C_23
REMARK   12  A    between atoms: C_13  and  C_22
REMARK   13  A    between atoms: C_22  and  C_24
REMARK                            x       y       z     vdW  Elec       q    Type
REMARK                         _______ _______ _______ _____ _____    ______ ____
ROOT
ATOM     10  C   UNL     1      -4.867  -9.593  11.067  0.00  0.00    -0.023 C 
ATOM     11  C   UNL     1      -5.402  -9.024   9.696  0.00  0.00    +0.007 C 
ATOM     12  C   UNL     1      -6.946  -8.710   9.615  0.00  0.00    +0.031 C 
ATOM     13  C   UNL     1      -3.397 -10.123  10.806  0.00  0.00    +0.032 C 
ATOM     14  C   UNL     1      -5.770 -10.781  11.493  0.00  0.00    +0.011 C 
ATOM     15  C   UNL     1      -4.486  -7.898   9.171  0.00  0.00    +0.007 C 
ATOM     16  C   UNL     1      -7.740  -9.943  10.142  0.00  0.00    +0.186 C 
ATOM     17  C   UNL     1      -2.458  -9.058  10.195  0.00  0.00    +0.119 C 
ATOM     18  C   UNL     1      -7.259 -10.452  11.497  0.00  0.00    +0.046 C 
ATOM     19  C   UNL     1      -3.057  -8.399   8.956  0.00  0.00    +0.032 C 
ATOM     20  C   UNL     1      -4.873  -8.553  12.214  0.00  0.00    +0.012 C 
ATOM     23  C   UNL     1      -7.345  -8.500   8.126  0.00  0.00    +0.017 C 
ENDROOT
BRANCH  17   2
ATOM      2  O   UNL     1      -2.124  -8.061  11.156  0.00  0.00    -0.391 OA
ATOM     37  H   UNL     1      -1.946  -7.235  10.677  0.00  0.00    +0.210 HD
ENDBRANCH  17   2
BRANCH  16   1
ATOM      1  O   UNL     1      -9.134  -9.659  10.272  0.00  0.00    -0.446 OA
BRANCH   1  25
ATOM      5  O   UNL     1     -10.707 -10.634  11.616  0.00  0.00    -0.226 OA
ATOM      9  N   UNL     1      -8.953  -9.347  12.482  0.00  0.00    -0.251 N 
ATOM     25  C   UNL     1      -9.700  -9.948  11.487  0.00  0.00    +0.405 C 
ATOM     39  H   UNL     1      -8.145  -8.811  12.176  0.00  0.00    +0.158 HD
BRANCH   9  30
ATOM     30  C   UNL     1      -9.175  -9.380  13.877  0.00  0.00    +0.037 A 
ATOM     31  C   UNL     1      -8.196  -9.897  14.726  0.00  0.00    +0.027 A 
ATOM     32  C   UNL     1     -10.372  -8.896  14.406  0.00  0.00    +0.027 A 
ATOM     33  C   UNL     1      -8.414  -9.931  16.103  0.00  0.00    +0.047 A 
ATOM     34  C   UNL     1     -10.590  -8.930  15.783  0.00  0.00    +0.047 A 
ATOM     35  C   UNL     1      -9.612  -9.447  16.632  0.00  0.00    +0.120 A 
BRANCH  35   7
ATOM      7  O   UNL     1      -9.824  -9.480  17.976  0.00  0.00    -0.495 OA
ATOM     36  C   UNL     1      -9.861 -10.766  18.595  0.00  0.00    +0.277 C 
ENDBRANCH  35   7
ENDBRANCH   9  30
ENDBRANCH   1  25
ENDBRANCH  16   1
BRANCH  12  21
ATOM     21  C   UNL     1      -7.364  -7.417  10.345  0.00  0.00    +0.166 C 
BRANCH  21   3
ATOM      3  O   UNL     1      -7.544  -6.410   9.374  0.00  0.00    -0.394 OA
ATOM     38  H   UNL     1      -6.693  -6.291   8.918  0.00  0.00    +0.209 HD
ENDBRANCH  21   3
ENDBRANCH  12  21
BRANCH  13  22
ATOM     22  C   UNL     1      -2.721 -10.781  12.020  0.00  0.00    +0.102 C 
BRANCH  22  24
ATOM      4  O   UNL     1      -1.068  -9.071  11.900  0.00  0.00    -0.276 OA
ATOM      8  N   UNL     1      -1.596  -9.881  13.998  0.00  0.00    -0.299 N 
ATOM     24  C   UNL     1      -1.716  -9.831  12.621  0.00  0.00    +0.216 C 
ATOM     26  C   UNL     1      -2.337 -10.755  14.907  0.00  0.00    +0.139 C 
ATOM     27  C   UNL     1      -0.674  -9.023  14.727  0.00  0.00    +0.110 C 
ATOM     28  C   UNL     1      -2.003 -10.229  16.299  0.00  0.00    +0.133 C 
ATOM     29  C   UNL     1      -0.614  -9.623  16.125  0.00  0.00    +0.052 C 
BRANCH  28   6
ATOM      6  O   UNL     1      -2.920  -9.204  16.666  0.00  0.00    -0.390 OA
ATOM     40  H   UNL     1      -3.548  -9.100  15.933  0.00  0.00    +0.210 HD
ENDBRANCH  28   6
ENDBRANCH  22  24
ENDBRANCH  13  22
TORSDOF 10
ENDMDL
MODEL 3
REMARK VINA RESULT:       4.9      1.100      1.507
REMARK  Name = 44716903
REMARK  13 active torsions:
REMARK  status: ('A' for Active; 'I' for Inactive)
REMARK    1  A    between atoms: O_1  and  C_16
REMARK    2  A    between atoms: O_1  and  C_25
REMARK    3  A    between atoms: O_2  and  C_17
REMARK    4  A    between atoms: O_3  and  C_21
REMARK    5  A    between atoms: O_6  and  C_28
REMARK    6  A    between atoms: O_7  and  C_35
REMARK    7  A    between atoms: O_7  and  C_36
REMARK    8  A    between atoms: N_9  and  C_30
REMARK    9  A    between atoms: C_10  and  C_20
REMARK   10  A    between atoms: C_12  and  C_21
REMARK   11  A    between atoms: C_12  and  C_23
REMARK   12  A    between atoms: C_13  and  C_22
REMARK   13  A    between atoms: C_22  and  C_24
REMARK                            x       y       z     vdW  Elec       q    Type
REMARK                         _______ _______ _______ _____ _____    ______ ____
ROOT
ATOM     10  C   UNL     1      -3.469   1.559  24.404  0.00  0.00    -0.023 C 
ATOM     11  C   UNL     1      -3.883   0.045  24.561  0.00  0.00    +0.007 C 
ATOM     12  C   UNL     1      -2.709  -1.008  24.614  0.00  0.00    +0.031 C 
ATOM     13  C   UNL     1      -4.787   2.365  24.055  0.00  0.00    +0.032 C 
ATOM     14  C   UNL     1      -2.471   1.675  23.220  0.00  0.00    +0.011 C 
ATOM     15  C   UNL     1      -4.949  -0.124  25.665  0.00  0.00    +0.007 C 
ATOM     16  C   UNL     1      -1.736  -0.738  23.427  0.00  0.00    +0.186 C 
ATOM     17  C   UNL     1      -5.923   2.161  25.083  0.00  0.00    +0.119 C 
ATOM     18  C   UNL     1      -1.290   0.716  23.314  0.00  0.00    +0.046 C 
ATOM     19  C   UNL     1      -6.208   0.686  25.348  0.00  0.00    +0.032 C 
ATOM     20  C   UNL     1      -2.788   2.149  25.663  0.00  0.00    +0.012 C 
ATOM     23  C   UNL     1      -3.296  -2.436  24.420  0.00  0.00    +0.017 C 
ENDROOT
BRANCH  17   2
ATOM      2  O   UNL     1      -5.624   2.822  26.309  0.00  0.00    -0.391 OA
ATOM     37  H   UNL     1      -5.812   3.767  26.190  0.00  0.00    +0.210 HD
ENDBRANCH  17   2
BRANCH  16   1
ATOM      1  O   UNL     1      -0.553  -1.534  23.520  0.00  0.00    -0.446 OA
BRANCH   1  25
ATOM      5  O   UNL     1       0.593  -0.519  21.821  0.00  0.00    -0.226 OA
ATOM      9  N   UNL     1       1.629  -1.138  23.826  0.00  0.00    -0.251 N 
ATOM     25  C   UNL     1       0.575  -1.010  22.943  0.00  0.00    +0.405 C 
ATOM     39  H   UNL     1       1.418  -1.578  24.718  0.00  0.00    +0.158 HD
BRANCH   9  30
ATOM     30  C   UNL     1       2.972  -0.735  23.644  0.00  0.00    +0.037 A 
ATOM     31  C   UNL     1       3.255   0.509  23.079  0.00  0.00    +0.027 A 
ATOM     32  C   UNL     1       4.013  -1.580  24.029  0.00  0.00    +0.027 A 
ATOM     33  C   UNL     1       4.580   0.907  22.899  0.00  0.00    +0.047 A 
ATOM     34  C   UNL     1       5.337  -1.182  23.849  0.00  0.00    +0.047 A 
ATOM     35  C   UNL     1       5.622   0.061  23.284  0.00  0.00    +0.120 A 
BRANCH  35   7
ATOM      7  O   UNL     1       6.914   0.451  23.108  0.00  0.00    -0.495 OA
ATOM     36  C   UNL     1       7.874  -0.578  22.869  0.00  0.00    +0.277 C 
ENDBRANCH  35   7
ENDBRANCH   9  30
ENDBRANCH   1  25
ENDBRANCH  16   1
BRANCH  12  21
ATOM     21  C   UNL     1      -1.958  -1.046  25.961  0.00  0.00    +0.166 C 
BRANCH  21   3
ATOM      3  O   UNL     1      -0.787  -0.271  25.826  0.00  0.00    -0.394 OA
ATOM     38  H   UNL     1      -0.924   0.551  26.328  0.00  0.00    +0.209 HD
ENDBRANCH  21   3
ENDBRANCH  12  21
BRANCH  13  22
ATOM     22  C   UNL     1      -4.578   3.867  23.797  0.00  0.00    +0.102 C 
BRANCH  22  24
ATOM      4  O   UNL     1      -4.304   4.766  25.986  0.00  0.00    -0.276 OA
ATOM      8  N   UNL     1      -2.422   4.644  24.651  0.00  0.00    -0.299 N 
ATOM     24  C   UNL     1      -3.768   4.468  24.916  0.00  0.00    +0.216 C 
ATOM     26  C   UNL     1      -1.726   4.310  23.408  0.00  0.00    +0.139 C 
ATOM     27  C   UNL     1      -1.506   5.208  25.632  0.00  0.00    +0.110 C 
ATOM     28  C   UNL     1      -0.247   4.472  23.743  0.00  0.00    +0.133 C 
ATOM     29  C   UNL     1      -0.246   5.531  24.840  0.00  0.00    +0.052 C 
BRANCH  28   6
ATOM      6  O   UNL     1       0.271   3.254  24.266  0.00  0.00    -0.390 OA
ATOM     40  H   UNL     1       0.645   2.754  23.522  0.00  0.00    +0.210 HD
ENDBRANCH  28   6
ENDBRANCH  22  24
ENDBRANCH  13  22
TORSDOF 10
ENDMDL
MODEL 4
REMARK VINA RESULT:       6.3      1.989      4.592
REMARK  Name = 44716903
REMARK  13 active torsions:
REMARK  status: ('A' for Active; 'I' for Inactive)
REMARK    1  A    between atoms: O_1  and  C_16
REMARK    2  A    between atoms: O_1  and  C_25
REMARK    3  A    between atoms: O_2  and  C_17
REMARK    4  A    between atoms: O_3  and  C_21
REMARK    5  A    between atoms: O_6  and  C_28
REMARK    6  A    between atoms: O_7  and  C_35
REMARK    7  A    between atoms: O_7  and  C_36
REMARK    8  A    between atoms: N_9  and  C_30
REMARK    9  A    between atoms: C_10  and  C_20
REMARK   10  A    between atoms: C_12  and  C_21
REMARK   11  A    between atoms: C_12  and  C_23
REMARK   12  A    between atoms: C_13  and  C_22
REMARK   13  A    between atoms: C_22  and  C_24
REMARK                            x       y       z     vdW  Elec       q    Type
REMARK                         _______ _______ _______ _____ _____    ______ ____
ROOT
ATOM     10  C   UNL     1      -3.389   1.686  24.317  0.00  0.00    -0.023 C 
ATOM     11  C   UNL     1      -2.570   2.564  25.340  0.00  0.00    +0.007 C 
ATOM     12  C   UNL     1      -1.131   3.022  24.887  0.00  0.00    +0.031 C 
ATOM     13  C   UNL     1      -4.629   1.093  25.105  0.00  0.00    +0.032 C 
ATOM     14  C   UNL     1      -2.484   0.519  23.837  0.00  0.00    +0.011 C 
ATOM     15  C   UNL     1      -3.449   3.690  25.928  0.00  0.00    +0.007 C 
ATOM     16  C   UNL     1      -0.352   1.782  24.353  0.00  0.00    +0.186 C 
ATOM     17  C   UNL     1      -5.497   2.175  25.790  0.00  0.00    +0.119 C 
ATOM     18  C   UNL     1      -1.124   0.969  23.318  0.00  0.00    +0.046 C 
ATOM     19  C   UNL     1      -4.668   3.120  26.655  0.00  0.00    +0.032 C 
ATOM     20  C   UNL     1      -3.862   2.469  23.068  0.00  0.00    +0.012 C 
ATOM     23  C   UNL     1      -0.355   3.562  26.123  0.00  0.00    +0.017 C 
ENDROOT
BRANCH  17   2
ATOM      2  O   UNL     1      -6.232   2.923  24.827  0.00  0.00    -0.391 OA
ATOM     37  H   UNL     1      -6.481   2.318  24.109  0.00  0.00    +0.210 HD
ENDBRANCH  17   2
BRANCH  16   1
ATOM      1  O   UNL     1       0.890   2.153  23.753  0.00  0.00    -0.446 OA
BRANCH   1  25
ATOM      5  O   UNL     1       1.391  -0.016  23.230  0.00  0.00    -0.226 OA
ATOM      9  N   UNL     1       3.049   1.612  23.511  0.00  0.00    -0.251 N 
ATOM     25  C   UNL     1       1.756   1.128  23.471  0.00  0.00    +0.405 C 
ATOM     39  H   UNL     1       3.154   2.599  23.732  0.00  0.00    +0.158 HD
BRANCH   9  30
ATOM     30  C   UNL     1       4.251   0.904  23.284  0.00  0.00    +0.037 A 
ATOM     31  C   UNL     1       4.530   0.391  22.017  0.00  0.00    +0.027 A 
ATOM     32  C   UNL     1       5.160   0.717  24.327  0.00  0.00    +0.027 A 
ATOM     33  C   UNL     1       5.715  -0.309  21.793  0.00  0.00    +0.047 A 
ATOM     34  C   UNL     1       6.345   0.018  24.103  0.00  0.00    +0.047 A 
ATOM     35  C   UNL     1       6.624  -0.495  22.836  0.00  0.00    +0.120 A 
BRANCH  35   7
ATOM      7  O   UNL     1       7.781  -1.177  22.617  0.00  0.00    -0.495 OA
ATOM     36  C   UNL     1       9.001  -0.457  22.791  0.00  0.00    +0.277 C 
ENDBRANCH  35   7
ENDBRANCH   9  30
ENDBRANCH   1  25
ENDBRANCH  16   1
BRANCH  12  21
ATOM     21  C   UNL     1      -1.131   4.172  23.859  0.00  0.00    +0.166 C 
BRANCH  21   3
ATOM      3  O   UNL     1      -0.623   5.323  24.496  0.00  0.00    -0.394 OA
ATOM     38  H   UNL     1       0.193   5.063  24.958  0.00  0.00    +0.209 HD
ENDBRANCH  21   3
ENDBRANCH  12  21
BRANCH  13  22
ATOM     22  C   UNL     1      -5.524   0.147  24.287  0.00  0.00    +0.102 C 
BRANCH  22  24
ATOM      4  O   UNL     1      -4.909  -1.649  22.849  0.00  0.00    -0.276 OA
ATOM      8  N   UNL     1      -3.908  -1.574  24.930  0.00  0.00    -0.299 N 
ATOM     24  C   UNL     1      -4.761  -1.107  23.946  0.00  0.00    +0.216 C 
ATOM     26  C   UNL     1      -3.686  -0.976  26.247  0.00  0.00    +0.139 C 
ATOM     27  C   UNL     1      -3.099  -2.770  24.751  0.00  0.00    +0.110 C 
ATOM     28  C   UNL     1      -2.490  -1.736  26.813  0.00  0.00    +0.133 C 
ATOM     29  C   UNL     1      -2.592  -3.104  26.147  0.00  0.00    +0.052 C 
BRANCH  28   6
ATOM      6  O   UNL     1      -1.279  -1.107  26.412  0.00  0.00    -0.390 OA
ATOM     40  H   UNL     1      -0.787  -0.881  27.219  0.00  0.00    +0.210 HD
ENDBRANCH  28   6
ENDBRANCH  22  24
ENDBRANCH  13  22
TORSDOF 10
ENDMDL
MODEL 5
REMARK VINA RESULT:       7.5      1.793      4.603
REMARK  Name = 44716903
REMARK  13 active torsions:
REMARK  status: ('A' for Active; 'I' for Inactive)
REMARK    1  A    between atoms: O_1  and  C_16
REMARK    2  A    between atoms: O_1  and  C_25
REMARK    3  A    between atoms: O_2  and  C_17
REMARK    4  A    between atoms: O_3  and  C_21
REMARK    5  A    between atoms: O_6  and  C_28
REMARK    6  A    between atoms: O_7  and  C_35
REMARK    7  A    between atoms: O_7  and  C_36
REMARK    8  A    between atoms: N_9  and  C_30
REMARK    9  A    between atoms: C_10  and  C_20
REMARK   10  A    between atoms: C_12  and  C_21
REMARK   11  A    between atoms: C_12  and  C_23
REMARK   12  A    between atoms: C_13  and  C_22
REMARK   13  A    between atoms: C_22  and  C_24
REMARK                            x       y       z     vdW  Elec       q    Type
REMARK                         _______ _______ _______ _____ _____    ______ ____
ROOT
ATOM     10  C   UNL     1      -4.174   1.779  24.427  0.00  0.00    -0.023 C 
ATOM     11  C   UNL     1      -3.873   2.966  25.422  0.00  0.00    +0.007 C 
ATOM     12  C   UNL     1      -2.846   4.058  24.931  0.00  0.00    +0.031 C 
ATOM     13  C   UNL     1      -4.957   0.674  25.249  0.00  0.00    +0.032 C 
ATOM     14  C   UNL     1      -2.823   1.191  23.940  0.00  0.00    +0.011 C 
ATOM     15  C   UNL     1      -5.181   3.533  26.017  0.00  0.00    +0.007 C 
ATOM     16  C   UNL     1      -1.570   3.343  24.393  0.00  0.00    +0.186 C 
ATOM     17  C   UNL     1      -6.231   1.209  25.942  0.00  0.00    +0.119 C 
ATOM     18  C   UNL     1      -1.861   2.236  23.385  0.00  0.00    +0.046 C 
ATOM     19  C   UNL     1      -5.957   2.456  26.777  0.00  0.00    +0.032 C 
ATOM     20  C   UNL     1      -4.987   2.206  23.181  0.00  0.00    +0.012 C 
ATOM     23  C   UNL     1      -2.415   4.933  26.143  0.00  0.00    +0.017 C 
ENDROOT
BRANCH  17   2
ATOM      2  O   UNL     1      -7.252   1.484  24.987  0.00  0.00    -0.391 OA
ATOM     37  H   UNL     1      -7.488   0.646  24.556  0.00  0.00    +0.210 HD
ENDBRANCH  17   2
BRANCH  16   1
ATOM      1  O   UNL     1      -0.675   4.261  23.762  0.00  0.00    -0.446 OA
BRANCH   1  25
ATOM      5  O   UNL     1       1.357   4.394  22.721  0.00  0.00    -0.226 OA
ATOM      9  N   UNL     1       0.595   2.417  23.716  0.00  0.00    -0.251 N 
ATOM     25  C   UNL     1       0.521   3.743  23.336  0.00  0.00    +0.405 C 
ATOM     39  H   UNL     1      -0.206   2.050  24.224  0.00  0.00    +0.158 HD
BRANCH   9  30
ATOM     30  C   UNL     1       1.647   1.502  23.485  0.00  0.00    +0.037 A 
ATOM     31  C   UNL     1       1.404   0.130  23.548  0.00  0.00    +0.027 A 
ATOM     32  C   UNL     1       2.929   1.971  23.193  0.00  0.00    +0.027 A 
ATOM     33  C   UNL     1       2.443  -0.774  23.320  0.00  0.00    +0.047 A 
ATOM     34  C   UNL     1       3.966   1.067  22.966  0.00  0.00    +0.047 A 
ATOM     35  C   UNL     1       3.724  -0.304  23.029  0.00  0.00    +0.120 A 
BRANCH  35   7
ATOM      7  O   UNL     1       4.737  -1.186  22.806  0.00  0.00    -0.495 OA
ATOM     36  C   UNL     1       5.642  -1.420  23.885  0.00  0.00    +0.277 C 
ENDBRANCH  35   7
ENDBRANCH   9  30
ENDBRANCH   1  25
ENDBRANCH  16   1
BRANCH  12  21
ATOM     21  C   UNL     1      -3.422   5.041  23.890  0.00  0.00    +0.166 C 
BRANCH  21   3
ATOM      3  O   UNL     1      -2.617   6.199  23.897  0.00  0.00    -0.394 OA
ATOM     38  H   UNL     1      -2.990   6.808  24.557  0.00  0.00    +0.209 HD
ENDBRANCH  21   3
ENDBRANCH  12  21
BRANCH  13  22
ATOM     22  C   UNL     1      -5.288  -0.605  24.462  0.00  0.00    +0.102 C 
BRANCH  22  24
ATOM      4  O   UNL     1      -4.003  -1.419  22.629  0.00  0.00    -0.276 OA
ATOM      8  N   UNL     1      -2.961  -1.324  24.689  0.00  0.00    -0.299 N 
ATOM     24  C   UNL     1      -4.034  -1.155  23.832  0.00  0.00    +0.216 C 
ATOM     26  C   UNL     1      -2.932  -1.028  26.121  0.00  0.00    +0.139 C 
ATOM     27  C   UNL     1      -1.679  -1.840  24.232  0.00  0.00    +0.110 C 
ATOM     28  C   UNL     1      -1.463  -1.160  26.509  0.00  0.00    +0.133 C 
ATOM     29  C   UNL     1      -0.923  -2.178  25.510  0.00  0.00    +0.052 C 
BRANCH  28   6
ATOM      6  O   UNL     1      -0.795   0.083  26.320  0.00  0.00    -0.390 OA
ATOM     40  H   UNL     1      -0.919   0.605  27.130  0.00  0.00    +0.210 HD
ENDBRANCH  28   6
ENDBRANCH  22  24
ENDBRANCH  13  22
TORSDOF 10
ENDMDL
