MODEL 1
REMARK VINA RESULT:      -1.2      0.000      0.000
REMARK  Name = 75536304
REMARK  6 active torsions:
REMARK  status: ('A' for Active; 'I' for Inactive)
REMARK    1  A    between atoms: O_2  and  C_10
REMARK    2  A    between atoms: N_6  and  C_14
REMARK    3  A    between atoms: C_9  and  C_14
REMARK    4  A    between atoms: C_11  and  C_15
REMARK    5  A    between atoms: C_15  and  C_16
REMARK    6  A    between atoms: C_23  and  C_24
REMARK                            x       y       z     vdW  Elec       q    Type
REMARK                         _______ _______ _______ _____ _____    ______ ____
ROOT
ATOM      1  O   UNL     1      -4.294   3.062  26.403  0.00  0.00    -0.369 OA
ATOM      9  C   UNL     1      -5.571   2.816  25.798  0.00  0.00    +0.164 C 
ATOM     10  C   UNL     1      -6.084   4.054  25.053  0.00  0.00    +0.145 C 
ATOM     11  C   UNL     1      -3.277   3.517  25.507  0.00  0.00    +0.125 C 
ATOM     12  C   UNL     1      -5.036   4.642  24.113  0.00  0.00    +0.036 C 
ATOM     13  C   UNL     1      -3.699   4.818  24.827  0.00  0.00    +0.034 C 
ENDROOT
BRANCH  10   2
ATOM      2  O   UNL     1      -6.425   5.060  26.010  0.00  0.00    -0.389 OA
ATOM     31  H   UNL     1      -6.032   5.898  25.709  0.00  0.00    +0.210 HD
ENDBRANCH  10   2
BRANCH   9  14
ATOM     14  C   UNL     1      -5.535   1.565  24.923  0.00  0.00    +0.140 C 
BRANCH  14   6
ATOM      3  O   UNL     1      -0.492  -2.383  25.335  0.00  0.00    -0.377 OA
ATOM      5  O   UNL     1      -5.020  -1.004  23.895  0.00  0.00    -0.253 OA
ATOM      6  N   UNL     1      -4.389   0.744  25.241  0.00  0.00    -0.297 N 
ATOM      7  N   UNL     1      -3.046  -1.197  25.099  0.00  0.00    -0.281 N 
ATOM     17  C   UNL     1      -4.207  -0.518  24.688  0.00  0.00    +0.302 C 
ATOM     18  C   UNL     1      -2.779  -2.538  24.571  0.00  0.00    +0.137 C 
ATOM     19  C   UNL     1      -2.111  -0.761  26.145  0.00  0.00    +0.137 C 
ATOM     21  C   UNL     1      -1.311  -2.698  24.208  0.00  0.00    +0.179 C 
ATOM     22  C   UNL     1      -0.669  -1.021  25.725  0.00  0.00    +0.179 C 
ATOM     30  H   UNL     1      -3.736   1.133  25.907  0.00  0.00    +0.150 HD
ENDBRANCH  14   6
ENDBRANCH   9  14
BRANCH  11  15
ATOM     15  C   UNL     1      -2.005   3.718  26.323  0.00  0.00    +0.090 C 
BRANCH  15  16
ATOM      4  O   UNL     1       1.051   1.905  25.720  0.00  0.00    -0.354 OA
ATOM      8  N   UNL     1       0.179   2.607  26.544  0.00  0.00    -0.083 NA
ATOM     16  C   UNL     1      -0.850   2.937  25.758  0.00  0.00    +0.087 A 
ATOM     20  C   UNL     1      -0.685   2.475  24.441  0.00  0.00    +0.076 A 
ATOM     23  C   UNL     1       0.525   1.833  24.470  0.00  0.00    +0.167 A 
BRANCH  23  24
ATOM     24  C   UNL     1       1.316   1.130  23.502  0.00  0.00    +0.020 A 
ATOM     25  C   UNL     1       0.725   0.162  22.690  0.00  0.00    +0.011 A 
ATOM     26  C   UNL     1       2.675   1.416  23.372  0.00  0.00    +0.011 A 
ATOM     27  C   UNL     1       1.494  -0.521  21.748  0.00  0.00    +0.001 A 
ATOM     28  C   UNL     1       3.444   0.733  22.430  0.00  0.00    +0.001 A 
ATOM     29  C   UNL     1       2.854  -0.236  21.617  0.00  0.00    +0.000 A 
ENDBRANCH  23  24
ENDBRANCH  15  16
ENDBRANCH  11  15
TORSDOF 6
ENDMDL
MODEL 2
REMARK VINA RESULT:       0.9      2.002      5.021
REMARK  Name = 75536304
REMARK  6 active torsions:
REMARK  status: ('A' for Active; 'I' for Inactive)
REMARK    1  A    between atoms: O_2  and  C_10
REMARK    2  A    between atoms: N_6  and  C_14
REMARK    3  A    between atoms: C_9  and  C_14
REMARK    4  A    between atoms: C_11  and  C_15
REMARK    5  A    between atoms: C_15  and  C_16
REMARK    6  A    between atoms: C_23  and  C_24
REMARK                            x       y       z     vdW  Elec       q    Type
REMARK                         _______ _______ _______ _____ _____    ______ ____
ROOT
ATOM      1  O   UNL     1      -3.512  -0.598  23.264  0.00  0.00    -0.369 OA
ATOM      9  C   UNL     1      -4.448  -1.065  24.244  0.00  0.00    +0.164 C 
ATOM     10  C   UNL     1      -3.813  -2.114  25.167  0.00  0.00    +0.145 C 
ATOM     11  C   UNL     1      -2.292  -0.072  23.791  0.00  0.00    +0.125 C 
ATOM     12  C   UNL     1      -2.472  -1.655  25.731  0.00  0.00    +0.036 C 
ATOM     13  C   UNL     1      -1.565  -1.126  24.624  0.00  0.00    +0.034 C 
ENDROOT
BRANCH  10   2
ATOM      2  O   UNL     1      -3.585  -3.310  24.417  0.00  0.00    -0.389 OA
ATOM     31  H   UNL     1      -2.897  -3.820  24.879  0.00  0.00    +0.210 HD
ENDBRANCH  10   2
BRANCH   9  14
ATOM     14  C   UNL     1      -5.074   0.100  25.008  0.00  0.00    +0.140 C 
BRANCH  14   6
ATOM      3  O   UNL     1      -1.809   5.610  25.403  0.00  0.00    -0.377 OA
ATOM      5  O   UNL     1      -5.678   2.612  26.124  0.00  0.00    -0.253 OA
ATOM      6  N   UNL     1      -4.273   1.295  24.876  0.00  0.00    -0.297 N 
ATOM      7  N   UNL     1      -3.763   3.575  25.237  0.00  0.00    -0.281 N 
ATOM     17  C   UNL     1      -4.641   2.501  25.461  0.00  0.00    +0.302 C 
ATOM     18  C   UNL     1      -4.077   4.886  25.811  0.00  0.00    +0.137 C 
ATOM     19  C   UNL     1      -2.597   3.571  24.342  0.00  0.00    +0.137 C 
ATOM     21  C   UNL     1      -2.834   5.539  26.395  0.00  0.00    +0.179 C 
ATOM     22  C   UNL     1      -1.422   4.303  24.978  0.00  0.00    +0.179 C 
ATOM     30  H   UNL     1      -3.438   1.209  24.313  0.00  0.00    +0.150 HD
ENDBRANCH  14   6
ENDBRANCH   9  14
BRANCH  11  15
ATOM     15  C   UNL     1      -1.436   0.372  22.611  0.00  0.00    +0.090 C 
BRANCH  15  16
ATOM      4  O   UNL     1       1.770   1.440  23.864  0.00  0.00    -0.354 OA
ATOM      8  N   UNL     1       0.403   1.611  23.677  0.00  0.00    -0.083 NA
ATOM     16  C   UNL     1       0.009   0.530  22.997  0.00  0.00    +0.087 A 
ATOM     20  C   UNL     1       1.073  -0.349  22.729  0.00  0.00    +0.076 A 
ATOM     23  C   UNL     1       2.156   0.269  23.295  0.00  0.00    +0.167 A 
BRANCH  23  24
ATOM     24  C   UNL     1       3.551  -0.048  23.410  0.00  0.00    +0.020 A 
ATOM     25  C   UNL     1       4.512   0.922  23.125  0.00  0.00    +0.011 A 
ATOM     26  C   UNL     1       3.945  -1.325  23.808  0.00  0.00    +0.011 A 
ATOM     27  C   UNL     1       5.867   0.613  23.237  0.00  0.00    +0.001 A 
ATOM     28  C   UNL     1       5.300  -1.634  23.921  0.00  0.00    +0.001 A 
ATOM     29  C   UNL     1       6.262  -0.664  23.636  0.00  0.00    +0.000 A 
ENDBRANCH  23  24
ENDBRANCH  15  16
ENDBRANCH  11  15
TORSDOF 6
ENDMDL
MODEL 3
REMARK VINA RESULT:       2.4      2.195      3.475
REMARK  Name = 75536304
REMARK  6 active torsions:
REMARK  status: ('A' for Active; 'I' for Inactive)
REMARK    1  A    between atoms: O_2  and  C_10
REMARK    2  A    between atoms: N_6  and  C_14
REMARK    3  A    between atoms: C_9  and  C_14
REMARK    4  A    between atoms: C_11  and  C_15
REMARK    5  A    between atoms: C_15  and  C_16
REMARK    6  A    between atoms: C_23  and  C_24
REMARK                            x       y       z     vdW  Elec       q    Type
REMARK                         _______ _______ _______ _____ _____    ______ ____
ROOT
ATOM      1  O   UNL     1      -0.618   2.703  24.126  0.00  0.00    -0.369 OA
ATOM      9  C   UNL     1      -0.699   3.424  25.363  0.00  0.00    +0.164 C 
ATOM     10  C   UNL     1      -1.813   4.479  25.323  0.00  0.00    +0.145 C 
ATOM     11  C   UNL     1      -1.834   2.078  23.707  0.00  0.00    +0.125 C 
ATOM     12  C   UNL     1      -3.137   3.907  24.829  0.00  0.00    +0.036 C 
ATOM     13  C   UNL     1      -2.944   3.114  23.539  0.00  0.00    +0.034 C 
ENDROOT
BRANCH  10   2
ATOM      2  O   UNL     1      -1.426   5.523  24.425  0.00  0.00    -0.389 OA
ATOM     31  H   UNL     1      -0.517   5.336  24.132  0.00  0.00    +0.210 HD
ENDBRANCH  10   2
BRANCH   9  14
ATOM     14  C   UNL     1      -0.825   2.469  26.549  0.00  0.00    +0.140 C 
BRANCH  14   6
ATOM      3  O   UNL     1      -2.299  -3.267  24.079  0.00  0.00    -0.377 OA
ATOM      5  O   UNL     1      -3.252   1.077  26.246  0.00  0.00    -0.253 OA
ATOM      6  N   UNL     1      -0.962   1.102  26.101  0.00  0.00    -0.297 N 
ATOM      7  N   UNL     1      -2.171  -0.849  25.535  0.00  0.00    -0.281 N 
ATOM     17  C   UNL     1      -2.201   0.485  25.977  0.00  0.00    +0.302 C 
ATOM     18  C   UNL     1      -3.433  -1.579  25.382  0.00  0.00    +0.137 C 
ATOM     19  C   UNL     1      -0.969  -1.671  25.340  0.00  0.00    +0.137 C 
ATOM     21  C   UNL     1      -3.435  -2.402  24.105  0.00  0.00    +0.179 C 
ATOM     22  C   UNL     1      -1.087  -2.513  24.074  0.00  0.00    +0.179 C 
ATOM     30  H   UNL     1      -0.101   0.612  25.904  0.00  0.00    +0.150 HD
ENDBRANCH  14   6
ENDBRANCH   9  14
BRANCH  11  15
ATOM     15  C   UNL     1      -1.552   1.367  22.388  0.00  0.00    +0.090 C 
BRANCH  15  16
ATOM      4  O   UNL     1       1.395  -0.616  21.774  0.00  0.00    -0.354 OA
ATOM      8  N   UNL     1       0.078  -0.256  21.514  0.00  0.00    -0.083 NA
ATOM     16  C   UNL     1      -0.191   0.724  22.381  0.00  0.00    +0.087 A 
ATOM     20  C   UNL     1       0.907   1.023  23.206  0.00  0.00    +0.076 A 
ATOM     23  C   UNL     1       1.877   0.153  22.783  0.00  0.00    +0.167 A 
BRANCH  23  24
ATOM     24  C   UNL     1       3.236  -0.102  23.165  0.00  0.00    +0.020 A 
ATOM     25  C   UNL     1       3.601  -1.361  23.642  0.00  0.00    +0.011 A 
ATOM     26  C   UNL     1       4.193   0.908  23.057  0.00  0.00    +0.011 A 
ATOM     27  C   UNL     1       4.923  -1.609  24.013  0.00  0.00    +0.001 A 
ATOM     28  C   UNL     1       5.514   0.660  23.428  0.00  0.00    +0.001 A 
ATOM     29  C   UNL     1       5.880  -0.599  23.906  0.00  0.00    +0.000 A 
ENDBRANCH  23  24
ENDBRANCH  15  16
ENDBRANCH  11  15
TORSDOF 6
ENDMDL
