MODEL 1
REMARK VINA RESULT:      -5.2      0.000      0.000
REMARK  Name = 11882062
REMARK  11 active torsions:
REMARK  status: ('A' for Active; 'I' for Inactive)
REMARK    1  A    between atoms: S_1  and  C_20
REMARK    2  A    between atoms: S_1  and  C_26
REMARK    3  A    between atoms: N_8  and  C_12
REMARK    4  A    between atoms: N_9  and  C_18
REMARK    5  A    between atoms: N_10  and  C_24
REMARK    6  A    between atoms: C_13  and  C_16
REMARK    7  A    between atoms: C_17  and  C_20
REMARK    8  A    between atoms: C_18  and  C_21
REMARK    9  A    between atoms: C_18  and  C_22
REMARK   10  A    between atoms: C_21  and  C_23
REMARK   11  A    between atoms: C_24  and  C_28
REMARK                            x       y       z     vdW  Elec       q    Type
REMARK                         _______ _______ _______ _____ _____    ______ ____
ROOT
ATOM      4  O   UNL     1      -0.332   3.534  25.637  0.00  0.00    -0.275 OA
ATOM      7  N   UNL     1      -0.492   1.243  25.345  0.00  0.00    -0.287 N 
ATOM     12  C   UNL     1      -0.327  -0.178  23.454  0.00  0.00    +0.105 C 
ATOM     13  C   UNL     1      -0.575   1.267  23.889  0.00  0.00    +0.182 C 
ATOM     14  C   UNL     1      -0.808  -0.999  24.653  0.00  0.00    +0.043 C 
ATOM     15  C   UNL     1      -0.464  -0.125  25.854  0.00  0.00    +0.110 C 
ATOM     17  C   UNL     1      -0.302   2.392  26.099  0.00  0.00    +0.226 C 
ENDROOT
BRANCH  12   8
ATOM      5  O   UNL     1       1.780   1.793  23.437  0.00  0.00    -0.253 OA
ATOM      8  N   UNL     1       1.074  -0.405  23.190  0.00  0.00    -0.294 N 
ATOM     10  N   UNL     1       3.297   0.117  22.916  0.00  0.00    -0.296 N 
ATOM     19  C   UNL     1       2.027   0.611  23.203  0.00  0.00    +0.300 C 
ATOM     31  H   UNL     1       1.394  -1.359  23.050  0.00  0.00    +0.151 HD
ATOM     33  H   UNL     1       3.408  -0.880  22.754  0.00  0.00    +0.151 HD
BRANCH  10  24
ATOM     24  C   UNL     1       4.470   0.957  22.864  0.00  0.00    +0.132 C 
BRANCH  24  28
ATOM     28  C   UNL     1       5.550   0.338  23.688  0.00  0.00    -0.016 C 
ATOM     30  C   UNL     1       5.451  -0.863  24.268  0.00  0.00    +0.005 C 
ENDBRANCH  24  28
ENDBRANCH  10  24
ENDBRANCH  12   8
BRANCH  13  16
ATOM      3  O   UNL     1      -2.287   2.017  22.403  0.00  0.00    -0.274 OA
ATOM      9  N   UNL     1      -2.792   1.749  24.659  0.00  0.00    -0.302 N 
ATOM     16  C   UNL     1      -1.967   1.711  23.548  0.00  0.00    +0.236 C 
ATOM     32  H   UNL     1      -2.394   1.552  25.573  0.00  0.00    +0.150 HD
BRANCH   9  18
ATOM     18  C   UNL     1      -4.175   2.166  24.604  0.00  0.00    +0.163 C 
BRANCH  18  22
ATOM      6  O   UNL     1      -3.359   4.016  25.953  0.00  0.00    -0.274 OA
ATOM     11  N   UNL     1      -5.628   3.714  25.760  0.00  0.00    -0.328 N 
ATOM     22  C   UNL     1      -4.313   3.377  25.516  0.00  0.00    +0.231 C 
ATOM     34  H   UNL     1      -5.860   4.513  26.342  0.00  0.00    +0.145 HD
ATOM     35  H   UNL     1      -6.407   3.180  25.390  0.00  0.00    +0.145 HD
ENDBRANCH  18  22
BRANCH  18  21
ATOM     21  C   UNL     1      -5.136   1.055  25.041  0.00  0.00    +0.074 C 
BRANCH  21  23
ATOM      2  S   UNL     1      -3.804  -1.119  26.165  0.00  0.00    -0.102 S 
ATOM     23  C   UNL     1      -4.549  -0.322  24.844  0.00  0.00    -0.008 A 
ATOM     25  C   UNL     1      -4.516  -1.084  23.696  0.00  0.00    +0.011 A 
ATOM     27  C   UNL     1      -3.872  -2.337  23.904  0.00  0.00    +0.008 A 
ATOM     29  C   UNL     1      -3.437  -2.487  25.203  0.00  0.00    +0.045 A 
ENDBRANCH  21  23
ENDBRANCH  18  21
ENDBRANCH   9  18
ENDBRANCH  13  16
BRANCH  17  20
ATOM     20  C   UNL     1      -0.057   2.171  27.570  0.00  0.00    +0.164 C 
BRANCH  20   1
ATOM      1  S   UNL     1       1.583   2.802  27.952  0.00  0.00    -0.155 S 
ATOM     26  C   UNL     1       1.641   2.383  29.712  0.00  0.00    +0.085 C 
ENDBRANCH  20   1
ENDBRANCH  17  20
TORSDOF 10
ENDMDL
MODEL 2
REMARK VINA RESULT:      -3.0      2.003      2.367
REMARK  Name = 11882062
REMARK  11 active torsions:
REMARK  status: ('A' for Active; 'I' for Inactive)
REMARK    1  A    between atoms: S_1  and  C_20
REMARK    2  A    between atoms: S_1  and  C_26
REMARK    3  A    between atoms: N_8  and  C_12
REMARK    4  A    between atoms: N_9  and  C_18
REMARK    5  A    between atoms: N_10  and  C_24
REMARK    6  A    between atoms: C_13  and  C_16
REMARK    7  A    between atoms: C_17  and  C_20
REMARK    8  A    between atoms: C_18  and  C_21
REMARK    9  A    between atoms: C_18  and  C_22
REMARK   10  A    between atoms: C_21  and  C_23
REMARK   11  A    between atoms: C_24  and  C_28
REMARK                            x       y       z     vdW  Elec       q    Type
REMARK                         _______ _______ _______ _____ _____    ______ ____
ROOT
ATOM      4  O   UNL     1      -2.577   4.689  23.471  0.00  0.00    -0.275 OA
ATOM      7  N   UNL     1      -1.407   3.137  24.729  0.00  0.00    -0.287 N 
ATOM     12  C   UNL     1      -0.186   1.180  24.184  0.00  0.00    +0.105 C 
ATOM     13  C   UNL     1      -1.251   2.148  23.669  0.00  0.00    +0.182 C 
ATOM     14  C   UNL     1      -0.328   1.271  25.706  0.00  0.00    +0.043 C 
ATOM     15  C   UNL     1      -0.719   2.724  25.949  0.00  0.00    +0.110 C 
ATOM     17  C   UNL     1      -2.003   4.372  24.514  0.00  0.00    +0.226 C 
ENDROOT
BRANCH  12   8
ATOM      5  O   UNL     1       1.917  -0.525  23.187  0.00  0.00    -0.253 OA
ATOM      8  N   UNL     1       1.131   1.584  23.755  0.00  0.00    -0.294 N 
ATOM     10  N   UNL     1       3.268   1.345  22.940  0.00  0.00    -0.296 N 
ATOM     19  C   UNL     1       2.089   0.689  23.284  0.00  0.00    +0.300 C 
ATOM     31  H   UNL     1       1.352   2.576  23.733  0.00  0.00    +0.151 HD
ATOM     33  H   UNL     1       3.312   2.355  23.037  0.00  0.00    +0.151 HD
BRANCH  10  24
ATOM     24  C   UNL     1       4.426   0.654  22.423  0.00  0.00    +0.132 C 
BRANCH  24  28
ATOM     28  C   UNL     1       5.344   0.326  23.554  0.00  0.00    -0.016 C 
ATOM     30  C   UNL     1       5.434  -0.884  24.115  0.00  0.00    +0.005 C 
ENDBRANCH  24  28
ENDBRANCH  10  24
ENDBRANCH  12   8
BRANCH  13  16
ATOM      3  O   UNL     1      -2.857   0.801  22.527  0.00  0.00    -0.274 OA
ATOM      9  N   UNL     1      -3.421   1.719  24.590  0.00  0.00    -0.302 N 
ATOM     16  C   UNL     1      -2.581   1.472  23.517  0.00  0.00    +0.236 C 
ATOM     32  H   UNL     1      -3.112   2.358  25.317  0.00  0.00    +0.150 HD
BRANCH   9  18
ATOM     18  C   UNL     1      -4.767   1.201  24.677  0.00  0.00    +0.163 C 
BRANCH  18  22
ATOM      6  O   UNL     1      -5.603   3.474  24.883  0.00  0.00    -0.274 OA
ATOM     11  N   UNL     1      -6.497   1.847  26.236  0.00  0.00    -0.328 N 
ATOM     22  C   UNL     1      -5.634   2.306  25.264  0.00  0.00    +0.231 C 
ATOM     34  H   UNL     1      -7.143   2.479  26.699  0.00  0.00    +0.145 HD
ATOM     35  H   UNL     1      -6.515   0.879  26.539  0.00  0.00    +0.145 HD
ENDBRANCH  18  22
BRANCH  18  21
ATOM     21  C   UNL     1      -4.851  -0.062  25.542  0.00  0.00    +0.074 C 
BRANCH  21  23
ATOM      2  S   UNL     1      -2.431  -1.429  25.731  0.00  0.00    -0.102 S 
ATOM     23  C   UNL     1      -3.970  -1.173  25.023  0.00  0.00    -0.008 A 
ATOM     25  C   UNL     1      -4.227  -2.066  24.006  0.00  0.00    +0.011 A 
ATOM     27  C   UNL     1      -3.146  -2.973  23.806  0.00  0.00    +0.008 A 
ATOM     29  C   UNL     1      -2.105  -2.739  24.677  0.00  0.00    +0.045 A 
ENDBRANCH  21  23
ENDBRANCH  18  21
ENDBRANCH   9  18
ENDBRANCH  13  16
BRANCH  17  20
ATOM     20  C   UNL     1      -1.922   5.342  25.665  0.00  0.00    +0.164 C 
BRANCH  20   1
ATOM      1  S   UNL     1      -3.550   5.430  26.423  0.00  0.00    -0.155 S 
ATOM     26  C   UNL     1      -3.440   3.973  27.492  0.00  0.00    +0.085 C 
ENDBRANCH  20   1
ENDBRANCH  17  20
TORSDOF 10
ENDMDL
MODEL 3
REMARK VINA RESULT:      -1.9      2.516      3.754
REMARK  Name = 11882062
REMARK  11 active torsions:
REMARK  status: ('A' for Active; 'I' for Inactive)
REMARK    1  A    between atoms: S_1  and  C_20
REMARK    2  A    between atoms: S_1  and  C_26
REMARK    3  A    between atoms: N_8  and  C_12
REMARK    4  A    between atoms: N_9  and  C_18
REMARK    5  A    between atoms: N_10  and  C_24
REMARK    6  A    between atoms: C_13  and  C_16
REMARK    7  A    between atoms: C_17  and  C_20
REMARK    8  A    between atoms: C_18  and  C_21
REMARK    9  A    between atoms: C_18  and  C_22
REMARK   10  A    between atoms: C_21  and  C_23
REMARK   11  A    between atoms: C_24  and  C_28
REMARK                            x       y       z     vdW  Elec       q    Type
REMARK                         _______ _______ _______ _____ _____    ______ ____
ROOT
ATOM      4  O   UNL     1      -1.642  -0.338  26.255  0.00  0.00    -0.275 OA
ATOM      7  N   UNL     1      -0.489  -0.267  24.249  0.00  0.00    -0.287 N 
ATOM     12  C   UNL     1       1.075   1.252  23.317  0.00  0.00    +0.105 C 
ATOM     13  C   UNL     1      -0.017   1.107  24.378  0.00  0.00    +0.182 C 
ATOM     14  C   UNL     1       0.669   0.236  22.247  0.00  0.00    +0.043 C 
ATOM     15  C   UNL     1       0.037  -0.899  23.043  0.00  0.00    +0.110 C 
ATOM     17  C   UNL     1      -1.212  -0.903  25.247  0.00  0.00    +0.226 C 
ENDROOT
BRANCH  12   8
ATOM      5  O   UNL     1       3.524   0.815  21.855  0.00  0.00    -0.253 OA
ATOM      8  N   UNL     1       2.373   0.945  23.867  0.00  0.00    -0.294 N 
ATOM     10  N   UNL     1       4.623   0.465  23.868  0.00  0.00    -0.296 N 
ATOM     19  C   UNL     1       3.508   0.748  23.083  0.00  0.00    +0.300 C 
ATOM     31  H   UNL     1       2.482   0.932  24.877  0.00  0.00    +0.151 HD
ATOM     33  H   UNL     1       4.517   0.450  24.878  0.00  0.00    +0.151 HD
BRANCH  10  24
ATOM     24  C   UNL     1       5.931   0.219  23.309  0.00  0.00    +0.132 C 
BRANCH  24  28
ATOM     28  C   UNL     1       6.269  -1.226  23.475  0.00  0.00    -0.016 C 
ATOM     30  C   UNL     1       5.404  -2.149  23.907  0.00  0.00    +0.005 C 
ENDBRANCH  24  28
ENDBRANCH  10  24
ENDBRANCH  12   8
BRANCH  13  16
ATOM      3  O   UNL     1      -1.941   1.777  23.132  0.00  0.00    -0.274 OA
ATOM      9  N   UNL     1      -1.292   3.047  24.972  0.00  0.00    -0.302 N 
ATOM     16  C   UNL     1      -1.192   1.992  24.081  0.00  0.00    +0.236 C 
ATOM     32  H   UNL     1      -0.566   3.169  25.671  0.00  0.00    +0.150 HD
BRANCH   9  18
ATOM     18  C   UNL     1      -2.324   4.055  24.890  0.00  0.00    +0.163 C 
BRANCH  18  22
ATOM      6  O   UNL     1      -2.190   6.432  25.377  0.00  0.00    -0.274 OA
ATOM     11  N   UNL     1      -0.301   5.355  24.636  0.00  0.00    -0.328 N 
ATOM     22  C   UNL     1      -1.634   5.409  24.986  0.00  0.00    +0.231 C 
ATOM     34  H   UNL     1       0.280   6.186  24.670  0.00  0.00    +0.145 HD
ATOM     35  H   UNL     1       0.146   4.501  24.318  0.00  0.00    +0.145 HD
ENDBRANCH  18  22
BRANCH  18  21
ATOM     21  C   UNL     1      -3.371   3.908  26.000  0.00  0.00    +0.074 C 
BRANCH  21  23
ATOM      2  S   UNL     1      -6.085   3.563  25.476  0.00  0.00    -0.102 S 
ATOM     23  C   UNL     1      -4.486   2.966  25.616  0.00  0.00    -0.008 A 
ATOM     25  C   UNL     1      -4.413   1.616  25.346  0.00  0.00    +0.011 A 
ATOM     27  C   UNL     1      -5.686   1.067  25.019  0.00  0.00    +0.008 A 
ATOM     29  C   UNL     1      -6.684   2.016  25.051  0.00  0.00    +0.045 A 
ENDBRANCH  21  23
ENDBRANCH  18  21
ENDBRANCH   9  18
ENDBRANCH  13  16
BRANCH  17  20
ATOM     20  C   UNL     1      -1.465  -2.373  25.031  0.00  0.00    +0.164 C 
BRANCH  20   1
ATOM      1  S   UNL     1      -3.227  -2.663  25.247  0.00  0.00    -0.155 S 
ATOM     26  C   UNL     1      -3.839  -1.748  23.810  0.00  0.00    +0.085 C 
ENDBRANCH  20   1
ENDBRANCH  17  20
TORSDOF 10
ENDMDL
MODEL 4
REMARK VINA RESULT:      -1.8      1.907      4.216
REMARK  Name = 11882062
REMARK  11 active torsions:
REMARK  status: ('A' for Active; 'I' for Inactive)
REMARK    1  A    between atoms: S_1  and  C_20
REMARK    2  A    between atoms: S_1  and  C_26
REMARK    3  A    between atoms: N_8  and  C_12
REMARK    4  A    between atoms: N_9  and  C_18
REMARK    5  A    between atoms: N_10  and  C_24
REMARK    6  A    between atoms: C_13  and  C_16
REMARK    7  A    between atoms: C_17  and  C_20
REMARK    8  A    between atoms: C_18  and  C_21
REMARK    9  A    between atoms: C_18  and  C_22
REMARK   10  A    between atoms: C_21  and  C_23
REMARK   11  A    between atoms: C_24  and  C_28
REMARK                            x       y       z     vdW  Elec       q    Type
REMARK                         _______ _______ _______ _____ _____    ______ ____
ROOT
ATOM      4  O   UNL     1      -0.079  -0.865  23.832  0.00  0.00    -0.275 OA
ATOM      7  N   UNL     1       0.172   1.435  23.737  0.00  0.00    -0.287 N 
ATOM     12  C   UNL     1      -0.482   3.209  25.166  0.00  0.00    +0.105 C 
ATOM     13  C   UNL     1      -0.761   1.748  24.814  0.00  0.00    +0.182 C 
ATOM     14  C   UNL     1       0.054   3.795  23.858  0.00  0.00    +0.043 C 
ATOM     15  C   UNL     1       0.821   2.639  23.228  0.00  0.00    +0.110 C 
ATOM     17  C   UNL     1       0.490   0.132  23.382  0.00  0.00    +0.226 C 
ENDROOT
BRANCH  12   8
ATOM      5  O   UNL     1      -0.106   1.374  27.361  0.00  0.00    -0.253 OA
ATOM      8  N   UNL     1       0.493   3.308  26.225  0.00  0.00    -0.294 N 
ATOM     10  N   UNL     1       1.626   2.710  28.135  0.00  0.00    -0.296 N 
ATOM     19  C   UNL     1       0.605   2.371  27.250  0.00  0.00    +0.300 C 
ATOM     31  H   UNL     1       1.174   4.062  26.190  0.00  0.00    +0.151 HD
ATOM     33  H   UNL     1       2.174   3.545  27.952  0.00  0.00    +0.151 HD
BRANCH  10  24
ATOM     24  C   UNL     1       1.957   1.910  29.290  0.00  0.00    +0.132 C 
BRANCH  24  28
ATOM     28  C   UNL     1       1.415   2.571  30.515  0.00  0.00    -0.016 C 
ATOM     30  C   UNL     1       0.193   3.107  30.593  0.00  0.00    +0.005 C 
ENDBRANCH  24  28
ENDBRANCH  10  24
ENDBRANCH  12   8
BRANCH  13  16
ATOM      3  O   UNL     1      -2.324   1.269  23.073  0.00  0.00    -0.274 OA
ATOM      9  N   UNL     1      -3.126   1.810  25.190  0.00  0.00    -0.302 N 
ATOM     16  C   UNL     1      -2.139   1.571  24.249  0.00  0.00    +0.236 C 
ATOM     32  H   UNL     1      -2.854   2.134  26.114  0.00  0.00    +0.150 HD
BRANCH   9  18
ATOM     18  C   UNL     1      -4.538   1.730  24.894  0.00  0.00    +0.163 C 
BRANCH  18  22
ATOM      6  O   UNL     1      -4.932   4.095  25.292  0.00  0.00    -0.274 OA
ATOM     11  N   UNL     1      -6.181   2.561  26.460  0.00  0.00    -0.328 N 
ATOM     22  C   UNL     1      -5.203   2.927  25.559  0.00  0.00    +0.231 C 
ATOM     34  H   UNL     1      -6.714   3.263  26.963  0.00  0.00    +0.145 HD
ATOM     35  H   UNL     1      -6.398   1.592  26.669  0.00  0.00    +0.145 HD
ENDBRANCH  18  22
BRANCH  18  21
ATOM     21  C   UNL     1      -5.165   0.423  25.393  0.00  0.00    +0.074 C 
BRANCH  21  23
ATOM      2  S   UNL     1      -3.184  -1.391  26.134  0.00  0.00    -0.102 S 
ATOM     23  C   UNL     1      -4.340  -0.787  25.024  0.00  0.00    -0.008 A 
ATOM     25  C   UNL     1      -4.375  -1.525  23.861  0.00  0.00    +0.011 A 
ATOM     27  C   UNL     1      -3.441  -2.600  23.882  0.00  0.00    +0.008 A 
ATOM     29  C   UNL     1      -2.728  -2.644  25.059  0.00  0.00    +0.045 A 
ENDBRANCH  21  23
ENDBRANCH  18  21
ENDBRANCH   9  18
ENDBRANCH  13  16
BRANCH  17  20
ATOM     20  C   UNL     1       1.603  -0.015  22.376  0.00  0.00    +0.164 C 
BRANCH  20   1
ATOM      1  S   UNL     1       3.097  -0.463  23.273  0.00  0.00    -0.155 S 
ATOM     26  C   UNL     1       4.156   0.910  22.755  0.00  0.00    +0.085 C 
ENDBRANCH  20   1
ENDBRANCH  17  20
TORSDOF 10
ENDMDL
MODEL 5
REMARK VINA RESULT:      -1.3      2.475      5.174
REMARK  Name = 11882062
REMARK  11 active torsions:
REMARK  status: ('A' for Active; 'I' for Inactive)
REMARK    1  A    between atoms: S_1  and  C_20
REMARK    2  A    between atoms: S_1  and  C_26
REMARK    3  A    between atoms: N_8  and  C_12
REMARK    4  A    between atoms: N_9  and  C_18
REMARK    5  A    between atoms: N_10  and  C_24
REMARK    6  A    between atoms: C_13  and  C_16
REMARK    7  A    between atoms: C_17  and  C_20
REMARK    8  A    between atoms: C_18  and  C_21
REMARK    9  A    between atoms: C_18  and  C_22
REMARK   10  A    between atoms: C_21  and  C_23
REMARK   11  A    between atoms: C_24  and  C_28
REMARK                            x       y       z     vdW  Elec       q    Type
REMARK                         _______ _______ _______ _____ _____    ______ ____
ROOT
ATOM      4  O   UNL     1       0.920  -1.307  23.681  0.00  0.00    -0.275 OA
ATOM      7  N   UNL     1       0.472   0.965  23.715  0.00  0.00    -0.287 N 
ATOM     12  C   UNL     1      -0.485   2.417  25.325  0.00  0.00    +0.105 C 
ATOM     13  C   UNL     1      -0.366   0.951  24.908  0.00  0.00    +0.182 C 
ATOM     14  C   UNL     1      -0.315   3.177  24.008  0.00  0.00    +0.043 C 
ATOM     15  C   UNL     1       0.670   2.324  23.219  0.00  0.00    +0.110 C 
ATOM     17  C   UNL     1       1.110  -0.172  23.240  0.00  0.00    +0.226 C 
ENDROOT
BRANCH  12   8
ATOM      5  O   UNL     1      -0.168   1.405  28.009  0.00  0.00    -0.253 OA
ATOM      8  N   UNL     1       0.546   2.770  26.272  0.00  0.00    -0.294 N 
ATOM     10  N   UNL     1       1.711   2.743  28.255  0.00  0.00    -0.296 N 
ATOM     19  C   UNL     1       0.623   2.229  27.554  0.00  0.00    +0.300 C 
ATOM     31  H   UNL     1       1.289   3.395  25.971  0.00  0.00    +0.151 HD
ATOM     33  H   UNL     1       2.323   3.407  27.789  0.00  0.00    +0.151 HD
BRANCH  10  24
ATOM     24  C   UNL     1       2.025   2.352  29.608  0.00  0.00    +0.132 C 
BRANCH  24  28
ATOM     28  C   UNL     1       0.931   2.809  30.515  0.00  0.00    -0.016 C 
ATOM     30  C   UNL     1       0.657   2.245  31.696  0.00  0.00    +0.005 C 
ENDBRANCH  24  28
ENDBRANCH  10  24
ENDBRANCH  12   8
BRANCH  13  16
ATOM      3  O   UNL     1      -1.995   0.251  23.309  0.00  0.00    -0.274 OA
ATOM      9  N   UNL     1      -2.497   0.085  25.576  0.00  0.00    -0.302 N 
ATOM     16  C   UNL     1      -1.693   0.389  24.492  0.00  0.00    +0.236 C 
ATOM     32  H   UNL     1      -2.171   0.318  26.510  0.00  0.00    +0.150 HD
BRANCH   9  18
ATOM     18  C   UNL     1      -3.834  -0.449  25.445  0.00  0.00    +0.163 C 
BRANCH  18  22
ATOM      6  O   UNL     1      -3.264  -2.788  25.776  0.00  0.00    -0.274 OA
ATOM     11  N   UNL     1      -4.152  -2.149  23.756  0.00  0.00    -0.328 N 
ATOM     22  C   UNL     1      -3.695  -1.908  25.035  0.00  0.00    +0.231 C 
ATOM     34  H   UNL     1      -4.130  -3.085  23.363  0.00  0.00    +0.145 HD
ATOM     35  H   UNL     1      -4.509  -1.413  23.155  0.00  0.00    +0.145 HD
ENDBRANCH  18  22
BRANCH  18  21
ATOM     21  C   UNL     1      -4.668   0.320  24.413  0.00  0.00    +0.074 C 
BRANCH  21  23
ATOM      2  S   UNL     1      -5.899   2.299  25.939  0.00  0.00    -0.102 S 
ATOM     23  C   UNL     1      -4.782   1.788  24.746  0.00  0.00    -0.008 A 
ATOM     25  C   UNL     1      -4.084   2.846  24.205  0.00  0.00    +0.011 A 
ATOM     27  C   UNL     1      -4.471   4.092  24.778  0.00  0.00    +0.008 A 
ATOM     29  C   UNL     1      -5.450   3.939  25.735  0.00  0.00    +0.045 A 
ENDBRANCH  21  23
ENDBRANCH  18  21
ENDBRANCH   9  18
ENDBRANCH  13  16
BRANCH  17  20
ATOM     20  C   UNL     1       2.079   0.052  22.107  0.00  0.00    +0.164 C 
BRANCH  20   1
ATOM      1  S   UNL     1       3.601   0.704  22.809  0.00  0.00    -0.155 S 
ATOM     26  C   UNL     1       4.263  -0.826  23.514  0.00  0.00    +0.085 C 
ENDBRANCH  20   1
ENDBRANCH  17  20
TORSDOF 10
ENDMDL
