MODEL 1
REMARK VINA RESULT:       5.7      0.000      0.000
REMARK  Name = 11886119
REMARK  4 active torsions:
REMARK  status: ('A' for Active; 'I' for Inactive)
REMARK    1  A    between atoms: N_4  and  C_12
REMARK    2  A    between atoms: N_5  and  C_13
REMARK    3  A    between atoms: N_9  and  C_21
REMARK    4  A    between atoms: C_16  and  C_18
REMARK                            x       y       z     vdW  Elec       q    Type
REMARK                         _______ _______ _______ _____ _____    ______ ____
ROOT
ATOM      1  O   UNL     1      -4.352  -1.353  24.143  0.00  0.00    -0.370 OA
ATOM      2  O   UNL     1      -1.865  -0.758  25.975  0.00  0.00    -0.370 OA
ATOM     10  C   UNL     1      -2.669   0.045  25.092  0.00  0.00    +0.176 C 
ATOM     11  C   UNL     1      -3.037  -0.825  23.905  0.00  0.00    +0.171 C 
ATOM     12  C   UNL     1      -3.993   0.373  25.756  0.00  0.00    +0.168 C 
ATOM     13  C   UNL     1      -2.015  -1.938  23.926  0.00  0.00    +0.131 C 
ATOM     14  C   UNL     1      -4.874  -0.807  25.363  0.00  0.00    +0.190 C 
ATOM     15  C   UNL     1      -1.705  -2.066  25.407  0.00  0.00    +0.185 C 
ENDROOT
BRANCH  13   5
ATOM      3  O   UNL     1       0.149  -0.289  24.821  0.00  0.00    -0.252 OA
ATOM      5  N   UNL     1      -0.836  -1.580  23.175  0.00  0.00    -0.292 N 
ATOM      9  N   UNL     1       1.191  -0.592  22.739  0.00  0.00    -0.269 N 
ATOM     17  C   UNL     1       0.181  -0.765  23.689  0.00  0.00    +0.304 C 
ATOM     34  H   UNL     1      -0.703  -1.995  22.258  0.00  0.00    +0.151 HD
ATOM     35  H   UNL     1       0.947  -0.902  21.806  0.00  0.00    +0.156 HD
BRANCH   9  21
ATOM     21  C   UNL     1       2.384   0.158  22.868  0.00  0.00    +0.042 A 
ATOM     22  C   UNL     1       3.568  -0.434  23.312  0.00  0.00    +0.003 A 
ATOM     25  C   UNL     1       2.321   1.505  22.534  0.00  0.00    +0.024 A 
ATOM     26  C   UNL     1       4.730   0.367  23.422  0.00  0.00    -0.016 A 
ATOM     28  C   UNL     1       3.638  -1.795  23.651  0.00  0.00    +0.010 A 
ATOM     29  C   UNL     1       3.464   2.292  22.642  0.00  0.00    +0.002 A 
ATOM     30  C   UNL     1       4.661   1.729  23.083  0.00  0.00    +0.008 A 
ATOM     31  C   UNL     1       5.927  -0.217  23.867  0.00  0.00    +0.008 A 
ATOM     32  C   UNL     1       4.836  -2.358  24.092  0.00  0.00    +0.001 A 
ATOM     33  C   UNL     1       5.978  -1.571  24.200  0.00  0.00    +0.001 A 
ENDBRANCH   9  21
ENDBRANCH  13   5
BRANCH  12   4
ATOM      4  N   UNL     1      -4.506   1.688  25.364  0.00  0.00    -0.217 N 
ATOM      6  N   UNL     1      -5.823   1.913  25.305  0.00  0.00    -0.043 NA
ATOM      7  N   UNL     1      -4.694   3.751  24.745  0.00  0.00    -0.108 NA
ATOM      8  N   UNL     1      -5.933   3.179  24.925  0.00  0.00    -0.023 NA
ATOM     16  C   UNL     1      -3.825   2.807  25.023  0.00  0.00    +0.182 A 
BRANCH  16  18
ATOM     18  C   UNL     1      -2.388   2.912  24.983  0.00  0.00    +0.021 A 
ATOM     19  C   UNL     1      -1.719   2.884  23.758  0.00  0.00    +0.011 A 
ATOM     20  C   UNL     1      -1.663   3.042  26.168  0.00  0.00    +0.011 A 
ATOM     23  C   UNL     1      -0.329   2.984  23.718  0.00  0.00    +0.001 A 
ATOM     24  C   UNL     1      -0.271   3.144  26.129  0.00  0.00    +0.001 A 
ATOM     27  C   UNL     1       0.395   3.114  24.904  0.00  0.00    +0.000 A 
ENDBRANCH  16  18
ENDBRANCH  12   4
TORSDOF 4
ENDMDL
MODEL 2
REMARK VINA RESULT:       7.6      2.117      3.607
REMARK  Name = 11886119
REMARK  4 active torsions:
REMARK  status: ('A' for Active; 'I' for Inactive)
REMARK    1  A    between atoms: N_4  and  C_12
REMARK    2  A    between atoms: N_5  and  C_13
REMARK    3  A    between atoms: N_9  and  C_21
REMARK    4  A    between atoms: C_16  and  C_18
REMARK                            x       y       z     vdW  Elec       q    Type
REMARK                         _______ _______ _______ _____ _____    ______ ____
ROOT
ATOM      1  O   UNL     1      -3.009   4.035  27.179  0.00  0.00    -0.370 OA
ATOM      2  O   UNL     1      -2.002   4.150  24.201  0.00  0.00    -0.370 OA
ATOM     10  C   UNL     1      -2.819   3.226  24.944  0.00  0.00    +0.176 C 
ATOM     11  C   UNL     1      -2.245   3.148  26.345  0.00  0.00    +0.171 C 
ATOM     12  C   UNL     1      -4.211   3.800  25.127  0.00  0.00    +0.168 C 
ATOM     13  C   UNL     1      -0.829   3.657  26.199  0.00  0.00    +0.131 C 
ATOM     14  C   UNL     1      -4.081   4.606  26.416  0.00  0.00    +0.190 C 
ATOM     15  C   UNL     1      -0.956   4.642  25.051  0.00  0.00    +0.185 C 
ENDROOT
BRANCH  13   5
ATOM      3  O   UNL     1       0.115   2.953  23.589  0.00  0.00    -0.252 OA
ATOM      5  N   UNL     1       0.080   2.586  25.871  0.00  0.00    -0.292 N 
ATOM      9  N   UNL     1       1.372   1.220  24.552  0.00  0.00    -0.269 N 
ATOM     17  C   UNL     1       0.495   2.308  24.563  0.00  0.00    +0.304 C 
ATOM     34  H   UNL     1       0.495   2.055  26.631  0.00  0.00    +0.151 HD
ATOM     35  H   UNL     1       1.412   0.704  25.424  0.00  0.00    +0.156 HD
BRANCH   9  21
ATOM     21  C   UNL     1       2.009   0.629  23.435  0.00  0.00    +0.042 A 
ATOM     22  C   UNL     1       3.394   0.455  23.399  0.00  0.00    +0.003 A 
ATOM     25  C   UNL     1       1.195   0.236  22.381  0.00  0.00    +0.024 A 
ATOM     26  C   UNL     1       3.975  -0.141  22.254  0.00  0.00    -0.016 A 
ATOM     28  C   UNL     1       4.222   0.852  24.461  0.00  0.00    +0.010 A 
ATOM     29  C   UNL     1       1.767  -0.351  21.256  0.00  0.00    +0.002 A 
ATOM     30  C   UNL     1       3.147  -0.538  21.191  0.00  0.00    +0.008 A 
ATOM     31  C   UNL     1       5.367  -0.322  22.205  0.00  0.00    +0.008 A 
ATOM     32  C   UNL     1       5.603   0.664  24.396  0.00  0.00    +0.001 A 
ATOM     33  C   UNL     1       6.174   0.079  23.271  0.00  0.00    +0.001 A 
ENDBRANCH   9  21
ENDBRANCH  13   5
BRANCH  12   4
ATOM      4  N   UNL     1      -5.247   2.765  25.145  0.00  0.00    -0.217 N 
ATOM      6  N   UNL     1      -6.530   3.091  25.337  0.00  0.00    -0.043 NA
ATOM      7  N   UNL     1      -6.317   0.888  25.077  0.00  0.00    -0.108 NA
ATOM      8  N   UNL     1      -7.182   1.936  25.293  0.00  0.00    -0.023 NA
ATOM     16  C   UNL     1      -5.123   1.426  24.987  0.00  0.00    +0.182 A 
BRANCH  16  18
ATOM     18  C   UNL     1      -3.877   0.739  24.760  0.00  0.00    +0.021 A 
ATOM     19  C   UNL     1      -3.198   0.902  23.551  0.00  0.00    +0.011 A 
ATOM     20  C   UNL     1      -3.347  -0.092  25.749  0.00  0.00    +0.011 A 
ATOM     23  C   UNL     1      -1.993   0.236  23.331  0.00  0.00    +0.001 A 
ATOM     24  C   UNL     1      -2.140  -0.758  25.529  0.00  0.00    +0.001 A 
ATOM     27  C   UNL     1      -1.464  -0.594  24.321  0.00  0.00    +0.000 A 
ENDBRANCH  16  18
ENDBRANCH  12   4
TORSDOF 4
ENDMDL
MODEL 3
REMARK VINA RESULT:       9.3      1.839      3.823
REMARK  Name = 11886119
REMARK  4 active torsions:
REMARK  status: ('A' for Active; 'I' for Inactive)
REMARK    1  A    between atoms: N_4  and  C_12
REMARK    2  A    between atoms: N_5  and  C_13
REMARK    3  A    between atoms: N_9  and  C_21
REMARK    4  A    between atoms: C_16  and  C_18
REMARK                            x       y       z     vdW  Elec       q    Type
REMARK                         _______ _______ _______ _____ _____    ______ ____
ROOT
ATOM      1  O   UNL     1      -3.013   4.019  25.406  0.00  0.00    -0.370 OA
ATOM      2  O   UNL     1      -4.013   2.852  22.662  0.00  0.00    -0.370 OA
ATOM     10  C   UNL     1      -4.037   2.372  24.019  0.00  0.00    +0.176 C 
ATOM     11  C   UNL     1      -2.742   2.814  24.673  0.00  0.00    +0.171 C 
ATOM     12  C   UNL     1      -5.126   3.085  24.798  0.00  0.00    +0.168 C 
ATOM     13  C   UNL     1      -1.816   3.104  23.513  0.00  0.00    +0.131 C 
ATOM     14  C   UNL     1      -4.413   4.324  25.328  0.00  0.00    +0.190 C 
ATOM     15  C   UNL     1      -2.783   3.554  22.433  0.00  0.00    +0.185 C 
ENDROOT
BRANCH  13   5
ATOM      3  O   UNL     1       0.334   1.843  24.924  0.00  0.00    -0.252 OA
ATOM      5  N   UNL     1      -1.097   1.920  23.110  0.00  0.00    -0.292 N 
ATOM      9  N   UNL     1       0.451   0.227  23.225  0.00  0.00    -0.269 N 
ATOM     17  C   UNL     1      -0.054   1.365  23.861  0.00  0.00    +0.304 C 
ATOM     34  H   UNL     1      -1.408   1.425  22.279  0.00  0.00    +0.151 HD
ATOM     35  H   UNL     1       0.133   0.104  22.271  0.00  0.00    +0.156 HD
BRANCH   9  21
ATOM     21  C   UNL     1       1.503  -0.615  23.658  0.00  0.00    +0.042 A 
ATOM     22  C   UNL     1       2.839  -0.288  23.417  0.00  0.00    +0.003 A 
ATOM     25  C   UNL     1       1.145  -1.776  24.329  0.00  0.00    +0.024 A 
ATOM     26  C   UNL     1       3.848  -1.169  23.873  0.00  0.00    -0.016 A 
ATOM     28  C   UNL     1       3.207   0.885  22.737  0.00  0.00    +0.010 A 
ATOM     29  C   UNL     1       2.138  -2.642  24.778  0.00  0.00    +0.002 A 
ATOM     30  C   UNL     1       3.481  -2.343  24.552  0.00  0.00    +0.008 A 
ATOM     31  C   UNL     1       5.196  -0.851  23.636  0.00  0.00    +0.008 A 
ATOM     32  C   UNL     1       4.551   1.185  22.512  0.00  0.00    +0.001 A 
ATOM     33  C   UNL     1       5.543   0.319  22.960  0.00  0.00    +0.001 A 
ENDBRANCH   9  21
ENDBRANCH  13   5
BRANCH  12   4
ATOM      4  N   UNL     1      -5.731   2.232  25.824  0.00  0.00    -0.217 N 
ATOM      6  N   UNL     1      -6.671   2.716  26.642  0.00  0.00    -0.043 NA
ATOM      7  N   UNL     1      -6.261   0.576  27.109  0.00  0.00    -0.108 NA
ATOM      8  N   UNL     1      -6.992   1.697  27.428  0.00  0.00    -0.023 NA
ATOM     16  C   UNL     1      -5.486   0.931  26.111  0.00  0.00    +0.182 A 
BRANCH  16  18
ATOM     18  C   UNL     1      -4.529   0.105  25.419  0.00  0.00    +0.021 A 
ATOM     19  C   UNL     1      -4.867  -0.484  24.199  0.00  0.00    +0.011 A 
ATOM     20  C   UNL     1      -3.263  -0.109  25.967  0.00  0.00    +0.011 A 
ATOM     23  C   UNL     1      -3.942  -1.285  23.529  0.00  0.00    +0.001 A 
ATOM     24  C   UNL     1      -2.338  -0.909  25.297  0.00  0.00    +0.001 A 
ATOM     27  C   UNL     1      -2.677  -1.498  24.079  0.00  0.00    +0.000 A 
ENDBRANCH  16  18
ENDBRANCH  12   4
TORSDOF 4
ENDMDL
