MODEL 1
REMARK VINA RESULT:      -6.0      0.000      0.000
REMARK  Name = 75367000
REMARK  11 active torsions:
REMARK  status: ('A' for Active; 'I' for Inactive)
REMARK    1  A    between atoms: O_2  and  C_11
REMARK    2  A    between atoms: O_5  and  C_21
REMARK    3  A    between atoms: O_5  and  C_24
REMARK    4  A    between atoms: N_6  and  C_15
REMARK    5  A    between atoms: N_8  and  C_20
REMARK    6  A    between atoms: C_9  and  C_15
REMARK    7  A    between atoms: C_10  and  C_14
REMARK    8  A    between atoms: C_14  and  C_16
REMARK    9  A    between atoms: C_19  and  C_21
REMARK   10  A    between atoms: C_20  and  C_22
REMARK   11  A    between atoms: C_20  and  C_23
REMARK                            x       y       z     vdW  Elec       q    Type
REMARK                         _______ _______ _______ _____ _____    ______ ____
ROOT
ATOM      1  O   UNL     1      -2.343   0.185  24.517  0.00  0.00    -0.369 OA
ATOM      9  C   UNL     1      -0.919   0.036  24.594  0.00  0.00    +0.164 C 
ATOM     10  C   UNL     1      -3.042  -0.930  23.957  0.00  0.00    +0.125 C 
ATOM     11  C   UNL     1      -0.530  -1.231  25.365  0.00  0.00    +0.145 C 
ATOM     12  C   UNL     1      -2.774  -2.197  24.769  0.00  0.00    +0.034 C 
ATOM     13  C   UNL     1      -1.276  -2.466  24.868  0.00  0.00    +0.036 C 
ENDROOT
BRANCH  11   2
ATOM      2  O   UNL     1      -0.860  -1.050  26.746  0.00  0.00    -0.389 OA
ATOM     30  H   UNL     1      -0.038  -0.834  27.218  0.00  0.00    +0.210 HD
ENDBRANCH  11   2
BRANCH  10  14
ATOM     14  C   UNL     1      -4.526  -0.588  23.958  0.00  0.00    +0.090 C 
BRANCH  14  16
ATOM      3  O   UNL     1      -5.588   2.133  26.068  0.00  0.00    -0.356 OA
ATOM      7  N   UNL     1      -5.546   0.788  25.724  0.00  0.00    -0.083 NA
ATOM     16  C   UNL     1      -4.793   0.736  24.622  0.00  0.00    +0.086 A 
ATOM     17  C   UNL     1      -4.337   2.006  24.227  0.00  0.00    +0.074 A 
ATOM     19  C   UNL     1      -4.865   2.849  25.170  0.00  0.00    +0.175 A 
BRANCH  19  21
ATOM     21  C   UNL     1      -4.802   4.300  25.386  0.00  0.00    +0.306 C 
BRANCH  21   5
ATOM      5  O   UNL     1      -3.750   4.620  26.300  0.00  0.00    -0.484 OA
BRANCH   5  24
ATOM     24  C   UNL     1      -2.480   4.307  25.899  0.00  0.00    +0.121 A 
ATOM     25  C   UNL     1      -1.848   3.173  26.407  0.00  0.00    +0.045 A 
ATOM     26  C   UNL     1      -1.818   5.124  24.984  0.00  0.00    +0.045 A 
ATOM     27  C   UNL     1      -0.553   2.854  25.999  0.00  0.00    +0.004 A 
ATOM     28  C   UNL     1      -0.523   4.806  24.575  0.00  0.00    +0.004 A 
ATOM     29  C   UNL     1       0.110   3.671  25.082  0.00  0.00    +0.000 A 
ENDBRANCH   5  24
ENDBRANCH  21   5
ENDBRANCH  19  21
ENDBRANCH  14  16
ENDBRANCH  10  14
BRANCH   9  15
ATOM     15  C   UNL     1      -0.283   0.110  23.208  0.00  0.00    +0.140 C 
BRANCH  15   6
ATOM      4  O   UNL     1       2.311   1.374  23.183  0.00  0.00    -0.253 OA
ATOM      6  N   UNL     1       0.993  -0.540  23.194  0.00  0.00    -0.297 N 
ATOM      8  N   UNL     1       3.296  -0.727  23.169  0.00  0.00    -0.297 N 
ATOM     18  C   UNL     1       2.212   0.147  23.182  0.00  0.00    +0.300 C 
ATOM     31  H   UNL     1       1.014  -1.555  23.173  0.00  0.00    +0.150 HD
ATOM     32  H   UNL     1       3.113  -1.723  23.244  0.00  0.00    +0.150 HD
BRANCH   8  20
ATOM     20  C   UNL     1       4.667  -0.274  23.155  0.00  0.00    +0.068 C 
ATOM     22  C   UNL     1       5.426  -0.848  24.344  0.00  0.00    +0.027 C 
ATOM     23  C   UNL     1       4.727   1.248  23.145  0.00  0.00    +0.027 C 
ENDBRANCH   8  20
ENDBRANCH  15   6
ENDBRANCH   9  15
TORSDOF 9
ENDMDL
MODEL 2
REMARK VINA RESULT:      -4.8      1.822      6.734
REMARK  Name = 75367000
REMARK  11 active torsions:
REMARK  status: ('A' for Active; 'I' for Inactive)
REMARK    1  A    between atoms: O_2  and  C_11
REMARK    2  A    between atoms: O_5  and  C_21
REMARK    3  A    between atoms: O_5  and  C_24
REMARK    4  A    between atoms: N_6  and  C_15
REMARK    5  A    between atoms: N_8  and  C_20
REMARK    6  A    between atoms: C_9  and  C_15
REMARK    7  A    between atoms: C_10  and  C_14
REMARK    8  A    between atoms: C_14  and  C_16
REMARK    9  A    between atoms: C_19  and  C_21
REMARK   10  A    between atoms: C_20  and  C_22
REMARK   11  A    between atoms: C_20  and  C_23
REMARK                            x       y       z     vdW  Elec       q    Type
REMARK                         _______ _______ _______ _____ _____    ______ ____
ROOT
ATOM      1  O   UNL     1      -4.073   2.963  26.276  0.00  0.00    -0.369 OA
ATOM      9  C   UNL     1      -5.428   2.914  25.810  0.00  0.00    +0.164 C 
ATOM     10  C   UNL     1      -3.099   3.283  25.280  0.00  0.00    +0.125 C 
ATOM     11  C   UNL     1      -5.831   4.225  25.124  0.00  0.00    +0.145 C 
ATOM     12  C   UNL     1      -3.397   4.643  24.650  0.00  0.00    +0.034 C 
ATOM     13  C   UNL     1      -4.813   4.673  24.080  0.00  0.00    +0.036 C 
ENDROOT
BRANCH  11   2
ATOM      2  O   UNL     1      -5.922   5.254  26.114  0.00  0.00    -0.389 OA
ATOM     30  H   UNL     1      -5.016   5.518  26.348  0.00  0.00    +0.210 HD
ENDBRANCH  11   2
BRANCH  10  14
ATOM     14  C   UNL     1      -1.735   3.286  25.958  0.00  0.00    +0.090 C 
BRANCH  14  16
ATOM      3  O   UNL     1       1.163   1.590  24.648  0.00  0.00    -0.356 OA
ATOM      7  N   UNL     1       0.558   2.553  25.446  0.00  0.00    -0.083 NA
ATOM     16  C   UNL     1      -0.753   2.398  25.242  0.00  0.00    +0.086 A 
ATOM     17  C   UNL     1      -1.032   1.363  24.332  0.00  0.00    +0.074 A 
ATOM     19  C   UNL     1       0.206   0.888  23.989  0.00  0.00    +0.175 A 
BRANCH  19  21
ATOM     21  C   UNL     1       0.675  -0.178  23.095  0.00  0.00    +0.306 C 
BRANCH  21   5
ATOM      5  O   UNL     1       1.801   0.272  22.336  0.00  0.00    -0.484 OA
BRANCH   5  24
ATOM     24  C   UNL     1       3.034   0.013  22.865  0.00  0.00    +0.121 A 
ATOM     25  C   UNL     1       3.313  -1.246  23.398  0.00  0.00    +0.045 A 
ATOM     26  C   UNL     1       4.013   1.006  22.872  0.00  0.00    +0.045 A 
ATOM     27  C   UNL     1       4.572  -1.510  23.938  0.00  0.00    +0.004 A 
ATOM     28  C   UNL     1       5.271   0.742  23.412  0.00  0.00    +0.004 A 
ATOM     29  C   UNL     1       5.552  -0.516  23.945  0.00  0.00    +0.000 A 
ENDBRANCH   5  24
ENDBRANCH  21   5
ENDBRANCH  19  21
ENDBRANCH  14  16
ENDBRANCH  10  14
BRANCH   9  15
ATOM     15  C   UNL     1      -5.664   1.686  24.934  0.00  0.00    +0.140 C 
BRANCH  15   6
ATOM      4  O   UNL     1      -3.969  -0.016  23.336  0.00  0.00    -0.253 OA
ATOM      6  N   UNL     1      -4.885   0.573  25.388  0.00  0.00    -0.297 N 
ATOM      8  N   UNL     1      -3.437  -1.221  25.247  0.00  0.00    -0.297 N 
ATOM     18  C   UNL     1      -4.085  -0.206  24.546  0.00  0.00    +0.300 C 
ATOM     31  H   UNL     1      -4.931   0.326  26.372  0.00  0.00    +0.150 HD
ATOM     32  H   UNL     1      -3.539  -1.251  26.256  0.00  0.00    +0.150 HD
BRANCH   8  20
ATOM     20  C   UNL     1      -2.550  -2.168  24.611  0.00  0.00    +0.068 C 
ATOM     22  C   UNL     1      -3.226  -3.527  24.491  0.00  0.00    +0.027 C 
ATOM     23  C   UNL     1      -1.238  -2.269  25.378  0.00  0.00    +0.027 C 
ENDBRANCH   8  20
ENDBRANCH  15   6
ENDBRANCH   9  15
TORSDOF 9
ENDMDL
MODEL 3
REMARK VINA RESULT:      -3.1     16.659     19.259
REMARK  Name = 75367000
REMARK  11 active torsions:
REMARK  status: ('A' for Active; 'I' for Inactive)
REMARK    1  A    between atoms: O_2  and  C_11
REMARK    2  A    between atoms: O_5  and  C_21
REMARK    3  A    between atoms: O_5  and  C_24
REMARK    4  A    between atoms: N_6  and  C_15
REMARK    5  A    between atoms: N_8  and  C_20
REMARK    6  A    between atoms: C_9  and  C_15
REMARK    7  A    between atoms: C_10  and  C_14
REMARK    8  A    between atoms: C_14  and  C_16
REMARK    9  A    between atoms: C_19  and  C_21
REMARK   10  A    between atoms: C_20  and  C_22
REMARK   11  A    between atoms: C_20  and  C_23
REMARK                            x       y       z     vdW  Elec       q    Type
REMARK                         _______ _______ _______ _____ _____    ______ ____
ROOT
ATOM      1  O   UNL     1      12.781  -6.906  32.721  0.00  0.00    -0.369 OA
ATOM      9  C   UNL     1      12.009  -8.113  32.680  0.00  0.00    +0.164 C 
ATOM     10  C   UNL     1      13.177  -6.395  31.446  0.00  0.00    +0.125 C 
ATOM     11  C   UNL     1      10.762  -7.951  31.802  0.00  0.00    +0.145 C 
ATOM     12  C   UNL     1      11.954  -6.106  30.577  0.00  0.00    +0.034 C 
ATOM     13  C   UNL     1      11.088  -7.355  30.436  0.00  0.00    +0.036 C 
ENDROOT
BRANCH  11   2
ATOM      2  O   UNL     1       9.849  -7.066  32.457  0.00  0.00    -0.389 OA
ATOM     30  H   UNL     1      10.109  -6.156  32.233  0.00  0.00    +0.210 HD
ENDBRANCH  11   2
BRANCH  10  14
ATOM     14  C   UNL     1      13.981  -5.125  31.691  0.00  0.00    +0.090 C 
BRANCH  14  16
ATOM      3  O   UNL     1      17.238  -4.651  30.225  0.00  0.00    -0.356 OA
ATOM      7  N   UNL     1      16.346  -4.580  31.287  0.00  0.00    -0.083 NA
ATOM     16  C   UNL     1      15.194  -5.051  30.803  0.00  0.00    +0.086 A 
ATOM     17  C   UNL     1      15.297  -5.429  29.453  0.00  0.00    +0.074 A 
ATOM     19  C   UNL     1      16.603  -5.158  29.138  0.00  0.00    +0.175 A 
BRANCH  19  21
ATOM     21  C   UNL     1      17.405  -5.302  27.917  0.00  0.00    +0.306 C 
BRANCH  21   5
ATOM      5  O   UNL     1      17.112  -4.241  27.004  0.00  0.00    -0.484 OA
BRANCH   5  24
ATOM     24  C   UNL     1      17.162  -4.552  25.674  0.00  0.00    +0.121 A 
ATOM     25  C   UNL     1      17.038  -3.545  24.717  0.00  0.00    +0.045 A 
ATOM     26  C   UNL     1      17.336  -5.877  25.274  0.00  0.00    +0.045 A 
ATOM     27  C   UNL     1      17.089  -3.863  23.359  0.00  0.00    +0.004 A 
ATOM     28  C   UNL     1      17.387  -6.195  23.917  0.00  0.00    +0.004 A 
ATOM     29  C   UNL     1      17.264  -5.189  22.959  0.00  0.00    +0.000 A 
ENDBRANCH   5  24
ENDBRANCH  21   5
ENDBRANCH  19  21
ENDBRANCH  14  16
ENDBRANCH  10  14
BRANCH   9  15
ATOM     15  C   UNL     1      12.873  -9.306  32.275  0.00  0.00    +0.140 C 
BRANCH  15   6
ATOM      4  O   UNL     1      15.249 -10.295  30.971  0.00  0.00    -0.253 OA
ATOM      6  N   UNL     1      13.162  -9.278  30.873  0.00  0.00    -0.297 N 
ATOM      8  N   UNL     1      14.366  -9.624  28.932  0.00  0.00    -0.297 N 
ATOM     18  C   UNL     1      14.343  -9.779  30.316  0.00  0.00    +0.300 C 
ATOM     31  H   UNL     1      12.480  -8.853  30.251  0.00  0.00    +0.150 HD
ATOM     32  H   UNL     1      13.539  -9.254  28.475  0.00  0.00    +0.150 HD
BRANCH   8  20
ATOM     20  C   UNL     1      15.474 -10.060  28.114  0.00  0.00    +0.068 C 
ATOM     22  C   UNL     1      16.368  -8.879  27.762  0.00  0.00    +0.027 C 
ATOM     23  C   UNL     1      14.969 -10.763  26.861  0.00  0.00    +0.027 C 
ENDBRANCH   8  20
ENDBRANCH  15   6
ENDBRANCH   9  15
TORSDOF 9
ENDMDL
MODEL 4
REMARK VINA RESULT:      -2.5      1.851      6.434
REMARK  Name = 75367000
REMARK  11 active torsions:
REMARK  status: ('A' for Active; 'I' for Inactive)
REMARK    1  A    between atoms: O_2  and  C_11
REMARK    2  A    between atoms: O_5  and  C_21
REMARK    3  A    between atoms: O_5  and  C_24
REMARK    4  A    between atoms: N_6  and  C_15
REMARK    5  A    between atoms: N_8  and  C_20
REMARK    6  A    between atoms: C_9  and  C_15
REMARK    7  A    between atoms: C_10  and  C_14
REMARK    8  A    between atoms: C_14  and  C_16
REMARK    9  A    between atoms: C_19  and  C_21
REMARK   10  A    between atoms: C_20  and  C_22
REMARK   11  A    between atoms: C_20  and  C_23
REMARK                            x       y       z     vdW  Elec       q    Type
REMARK                         _______ _______ _______ _____ _____    ______ ____
ROOT
ATOM      1  O   UNL     1      -2.696  -0.125  24.385  0.00  0.00    -0.369 OA
ATOM      9  C   UNL     1      -4.045  -0.217  23.909  0.00  0.00    +0.164 C 
ATOM     10  C   UNL     1      -2.483  -0.618  25.710  0.00  0.00    +0.125 C 
ATOM     11  C   UNL     1      -4.572  -1.654  23.995  0.00  0.00    +0.145 C 
ATOM     12  C   UNL     1      -2.887  -2.088  25.810  0.00  0.00    +0.034 C 
ATOM     13  C   UNL     1      -4.334  -2.280  25.366  0.00  0.00    +0.036 C 
ENDROOT
BRANCH  11   2
ATOM      2  O   UNL     1      -3.889  -2.455  23.026  0.00  0.00    -0.389 OA
ATOM     30  H   UNL     1      -3.311  -3.070  23.508  0.00  0.00    +0.210 HD
ENDBRANCH  11   2
BRANCH  10  14
ATOM     14  C   UNL     1      -1.006  -0.437  26.034  0.00  0.00    +0.090 C 
BRANCH  14  16
ATOM      3  O   UNL     1       0.870   1.175  23.413  0.00  0.00    -0.356 OA
ATOM      7  N   UNL     1       0.158   1.194  24.606  0.00  0.00    -0.083 NA
ATOM     16  C   UNL     1      -0.206  -0.075  24.812  0.00  0.00    +0.086 A 
ATOM     17  C   UNL     1       0.242  -0.931  23.791  0.00  0.00    +0.074 A 
ATOM     19  C   UNL     1       0.914  -0.095  22.937  0.00  0.00    +0.175 A 
BRANCH  19  21
ATOM     21  C   UNL     1       1.633  -0.297  21.674  0.00  0.00    +0.306 C 
BRANCH  21   5
ATOM      5  O   UNL     1       2.858   0.442  21.677  0.00  0.00    -0.484 OA
BRANCH   5  24
ATOM     24  C   UNL     1       3.793   0.065  22.599  0.00  0.00    +0.121 A 
ATOM     25  C   UNL     1       4.756   0.977  23.029  0.00  0.00    +0.045 A 
ATOM     26  C   UNL     1       3.785  -1.233  23.110  0.00  0.00    +0.045 A 
ATOM     27  C   UNL     1       5.711   0.592  23.971  0.00  0.00    +0.004 A 
ATOM     28  C   UNL     1       4.739  -1.618  24.051  0.00  0.00    +0.004 A 
ATOM     29  C   UNL     1       5.703  -0.706  24.482  0.00  0.00    +0.000 A 
ENDBRANCH   5  24
ENDBRANCH  21   5
ENDBRANCH  19  21
ENDBRANCH  14  16
ENDBRANCH  10  14
BRANCH   9  15
ATOM     15  C   UNL     1      -4.947   0.792  24.616  0.00  0.00    +0.140 C 
BRANCH  15   6
ATOM      4  O   UNL     1      -3.306   2.687  23.187  0.00  0.00    -0.253 OA
ATOM      6  N   UNL     1      -4.179   1.864  25.177  0.00  0.00    -0.297 N 
ATOM      8  N   UNL     1      -2.763   3.688  25.209  0.00  0.00    -0.297 N 
ATOM     18  C   UNL     1      -3.405   2.744  24.412  0.00  0.00    +0.300 C 
ATOM     31  H   UNL     1      -4.183   1.979  26.186  0.00  0.00    +0.150 HD
ATOM     32  H   UNL     1      -2.965   3.699  26.203  0.00  0.00    +0.150 HD
BRANCH   8  20
ATOM     20  C   UNL     1      -1.902   4.714  24.667  0.00  0.00    +0.068 C 
ATOM     22  C   UNL     1      -0.441   4.356  24.902  0.00  0.00    +0.027 C 
ATOM     23  C   UNL     1      -2.241   6.071  25.269  0.00  0.00    +0.027 C 
ENDBRANCH   8  20
ENDBRANCH  15   6
ENDBRANCH   9  15
TORSDOF 9
ENDMDL
MODEL 5
REMARK VINA RESULT:      -2.3      1.770      6.590
REMARK  Name = 75367000
REMARK  11 active torsions:
REMARK  status: ('A' for Active; 'I' for Inactive)
REMARK    1  A    between atoms: O_2  and  C_11
REMARK    2  A    between atoms: O_5  and  C_21
REMARK    3  A    between atoms: O_5  and  C_24
REMARK    4  A    between atoms: N_6  and  C_15
REMARK    5  A    between atoms: N_8  and  C_20
REMARK    6  A    between atoms: C_9  and  C_15
REMARK    7  A    between atoms: C_10  and  C_14
REMARK    8  A    between atoms: C_14  and  C_16
REMARK    9  A    between atoms: C_19  and  C_21
REMARK   10  A    between atoms: C_20  and  C_22
REMARK   11  A    between atoms: C_20  and  C_23
REMARK                            x       y       z     vdW  Elec       q    Type
REMARK                         _______ _______ _______ _____ _____    ______ ____
ROOT
ATOM      1  O   UNL     1      -2.642  -0.349  24.318  0.00  0.00    -0.369 OA
ATOM      9  C   UNL     1      -3.844  -0.977  23.856  0.00  0.00    +0.164 C 
ATOM     10  C   UNL     1      -2.397  -0.464  25.722  0.00  0.00    +0.125 C 
ATOM     11  C   UNL     1      -3.888  -2.459  24.246  0.00  0.00    +0.145 C 
ATOM     12  C   UNL     1      -2.314  -1.932  26.136  0.00  0.00    +0.034 C 
ATOM     13  C   UNL     1      -3.580  -2.680  25.725  0.00  0.00    +0.036 C 
ENDROOT
BRANCH  11   2
ATOM      2  O   UNL     1      -2.903  -3.165  23.486  0.00  0.00    -0.389 OA
ATOM     30  H   UNL     1      -2.060  -2.691  23.584  0.00  0.00    +0.210 HD
ENDBRANCH  11   2
BRANCH  10  14
ATOM     14  C   UNL     1      -1.090   0.258  26.020  0.00  0.00    +0.090 C 
BRANCH  14  16
ATOM      3  O   UNL     1       0.985   1.385  23.297  0.00  0.00    -0.356 OA
ATOM      7  N   UNL     1       0.266   1.601  24.466  0.00  0.00    -0.083 NA
ATOM     16  C   UNL     1      -0.240   0.407  24.787  0.00  0.00    +0.086 A 
ATOM     17  C   UNL     1       0.122  -0.591  23.865  0.00  0.00    +0.074 A 
ATOM     19  C   UNL     1       0.893   0.076  22.949  0.00  0.00    +0.175 A 
BRANCH  19  21
ATOM     21  C   UNL     1       1.600  -0.329  21.728  0.00  0.00    +0.306 C 
BRANCH  21   5
ATOM      5  O   UNL     1       2.854   0.352  21.634  0.00  0.00    -0.484 OA
BRANCH   5  24
ATOM     24  C   UNL     1       3.794   0.029  22.573  0.00  0.00    +0.121 A 
ATOM     25  C   UNL     1       3.819  -1.252  23.122  0.00  0.00    +0.045 A 
ATOM     26  C   UNL     1       4.726   0.982  22.982  0.00  0.00    +0.045 A 
ATOM     27  C   UNL     1       4.778  -1.581  24.080  0.00  0.00    +0.004 A 
ATOM     28  C   UNL     1       5.685   0.653  23.939  0.00  0.00    +0.004 A 
ATOM     29  C   UNL     1       5.712  -0.628  24.489  0.00  0.00    +0.000 A 
ENDBRANCH   5  24
ENDBRANCH  21   5
ENDBRANCH  19  21
ENDBRANCH  14  16
ENDBRANCH  10  14
BRANCH   9  15
ATOM     15  C   UNL     1      -5.080  -0.203  24.312  0.00  0.00    +0.140 C 
BRANCH  15   6
ATOM      4  O   UNL     1      -3.983   2.346  23.522  0.00  0.00    -0.253 OA
ATOM      6  N   UNL     1      -4.717   0.883  25.171  0.00  0.00    -0.297 N 
ATOM      8  N   UNL     1      -3.925   2.974  25.755  0.00  0.00    -0.297 N 
ATOM     18  C   UNL     1      -4.189   2.093  24.709  0.00  0.00    +0.300 C 
ATOM     31  H   UNL     1      -4.834   0.762  26.173  0.00  0.00    +0.150 HD
ATOM     32  H   UNL     1      -4.198   2.701  26.694  0.00  0.00    +0.150 HD
BRANCH   8  20
ATOM     20  C   UNL     1      -3.375   4.293  25.548  0.00  0.00    +0.068 C 
ATOM     22  C   UNL     1      -3.949   4.912  24.281  0.00  0.00    +0.027 C 
ATOM     23  C   UNL     1      -1.854   4.236  25.495  0.00  0.00    +0.027 C 
ENDBRANCH   8  20
ENDBRANCH  15   6
ENDBRANCH   9  15
TORSDOF 9
ENDMDL
MODEL 6
REMARK VINA RESULT:      -2.3      1.746      2.705
REMARK  Name = 75367000
REMARK  11 active torsions:
REMARK  status: ('A' for Active; 'I' for Inactive)
REMARK    1  A    between atoms: O_2  and  C_11
REMARK    2  A    between atoms: O_5  and  C_21
REMARK    3  A    between atoms: O_5  and  C_24
REMARK    4  A    between atoms: N_6  and  C_15
REMARK    5  A    between atoms: N_8  and  C_20
REMARK    6  A    between atoms: C_9  and  C_15
REMARK    7  A    between atoms: C_10  and  C_14
REMARK    8  A    between atoms: C_14  and  C_16
REMARK    9  A    between atoms: C_19  and  C_21
REMARK   10  A    between atoms: C_20  and  C_22
REMARK   11  A    between atoms: C_20  and  C_23
REMARK                            x       y       z     vdW  Elec       q    Type
REMARK                         _______ _______ _______ _____ _____    ______ ____
ROOT
ATOM      1  O   UNL     1      -1.168  -0.441  23.309  0.00  0.00    -0.369 OA
ATOM      9  C   UNL     1      -0.118   0.383  22.788  0.00  0.00    +0.164 C 
ATOM     10  C   UNL     1      -0.949  -0.942  24.631  0.00  0.00    +0.125 C 
ATOM     11  C   UNL     1       0.184   1.562  23.721  0.00  0.00    +0.145 C 
ATOM     12  C   UNL     1      -0.760   0.208  25.619  0.00  0.00    +0.034 C 
ATOM     13  C   UNL     1       0.376   1.123  25.170  0.00  0.00    +0.036 C 
ENDROOT
BRANCH  11   2
ATOM      2  O   UNL     1      -0.919   2.472  23.685  0.00  0.00    -0.389 OA
ATOM     30  H   UNL     1      -0.815   3.091  24.427  0.00  0.00    +0.210 HD
ENDBRANCH  11   2
BRANCH  10  14
ATOM     14  C   UNL     1      -2.158  -1.788  25.006  0.00  0.00    +0.090 C 
BRANCH  14  16
ATOM      3  O   UNL     1      -5.370  -0.377  24.180  0.00  0.00    -0.356 OA
ATOM      7  N   UNL     1      -4.328  -1.271  23.967  0.00  0.00    -0.083 NA
ATOM     16  C   UNL     1      -3.438  -0.999  24.926  0.00  0.00    +0.086 A 
ATOM     17  C   UNL     1      -3.860   0.046  25.765  0.00  0.00    +0.074 A 
ATOM     19  C   UNL     1      -5.081   0.402  25.253  0.00  0.00    +0.175 A 
BRANCH  19  21
ATOM     21  C   UNL     1      -6.083   1.409  25.621  0.00  0.00    +0.306 C 
BRANCH  21   5
ATOM      5  O   UNL     1      -5.894   2.601  24.853  0.00  0.00    -0.484 OA
BRANCH   5  24
ATOM     24  C   UNL     1      -4.729   3.284  25.068  0.00  0.00    +0.121 A 
ATOM     25  C   UNL     1      -4.299   3.538  26.370  0.00  0.00    +0.045 A 
ATOM     26  C   UNL     1      -3.972   3.727  23.984  0.00  0.00    +0.045 A 
ATOM     27  C   UNL     1      -3.111   4.235  26.589  0.00  0.00    +0.004 A 
ATOM     28  C   UNL     1      -2.784   4.424  24.203  0.00  0.00    +0.004 A 
ATOM     29  C   UNL     1      -2.353   4.678  25.505  0.00  0.00    +0.000 A 
ENDBRANCH   5  24
ENDBRANCH  21   5
ENDBRANCH  19  21
ENDBRANCH  14  16
ENDBRANCH  10  14
BRANCH   9  15
ATOM     15  C   UNL     1       1.121  -0.447  22.457  0.00  0.00    +0.140 C 
BRANCH  15   6
ATOM      4  O   UNL     1       3.635  -1.380  23.522  0.00  0.00    -0.253 OA
ATOM      6  N   UNL     1       2.317   0.319  22.642  0.00  0.00    -0.297 N 
ATOM      8  N   UNL     1       4.506   0.752  23.238  0.00  0.00    -0.297 N 
ATOM     18  C   UNL     1       3.501  -0.209  23.167  0.00  0.00    +0.300 C 
ATOM     31  H   UNL     1       2.298   1.304  22.394  0.00  0.00    +0.150 HD
ATOM     32  H   UNL     1       4.321   1.673  22.853  0.00  0.00    +0.150 HD
BRANCH   8  20
ATOM     20  C   UNL     1       5.829   0.466  23.744  0.00  0.00    +0.068 C 
ATOM     22  C   UNL     1       6.611  -0.365  22.736  0.00  0.00    +0.027 C 
ATOM     23  C   UNL     1       5.744  -0.238  25.092  0.00  0.00    +0.027 C 
ENDBRANCH   8  20
ENDBRANCH  15   6
ENDBRANCH   9  15
TORSDOF 9
ENDMDL
