MODEL 1
REMARK VINA RESULT:       0.3      0.000      0.000
REMARK  Name = 26743522
REMARK  7 active torsions:
REMARK  status: ('A' for Active; 'I' for Inactive)
REMARK    1  A    between atoms: O_1  and  C_12
REMARK    2  A    between atoms: N_4  and  C_14
REMARK    3  A    between atoms: N_7  and  C_22
REMARK    4  A    between atoms: C_10  and  C_15
REMARK    5  A    between atoms: C_14  and  C_16
REMARK    6  A    between atoms: C_19  and  C_23
REMARK    7  A    between atoms: C_25  and  C_28
REMARK                            x       y       z     vdW  Elec       q    Type
REMARK                         _______ _______ _______ _____ _____    ______ ____
ROOT
ATOM      4  N   UNL     1      -3.790   4.245  25.596  0.00  0.00    -0.285 NA
ATOM     10  C   UNL     1      -4.547   3.013  25.901  0.00  0.00    +0.149 C 
ATOM     11  C   UNL     1      -6.022   3.390  25.675  0.00  0.00    +0.061 C 
ATOM     12  C   UNL     1      -5.999   4.864  25.289  0.00  0.00    +0.130 C 
ATOM     13  C   UNL     1      -4.691   5.362  25.875  0.00  0.00    +0.116 C 
ENDROOT
BRANCH  10  15
ATOM      2  O   UNL     1      -3.845   2.092  23.748  0.00  0.00    -0.336 OA
ATOM      5  N   UNL     1      -3.937   0.584  25.402  0.00  0.00    -0.189 NA
ATOM      6  N   UNL     1      -3.462   0.870  23.183  0.00  0.00    -0.054 NA
ATOM     15  C   UNL     1      -4.107   1.835  25.057  0.00  0.00    +0.245 A 
ATOM     19  C   UNL     1      -3.541   0.031  24.219  0.00  0.00    +0.222 A 
BRANCH  19  23
ATOM      8  N   UNL     1      -1.949  -1.720  24.320  0.00  0.00    -0.249 NA
ATOM      9  N   UNL     1      -3.925  -3.607  23.689  0.00  0.00    -0.260 NA
ATOM     23  C   UNL     1      -3.232  -1.365  24.107  0.00  0.00    +0.129 A 
ATOM     24  C   UNL     1      -4.202  -2.293  23.797  0.00  0.00    +0.142 A 
ATOM     26  C   UNL     1      -1.671  -3.034  24.212  0.00  0.00    +0.131 A 
ATOM     27  C   UNL     1      -2.642  -3.961  23.902  0.00  0.00    +0.130 A 
ENDBRANCH  19  23
ENDBRANCH  10  15
BRANCH  12   1
ATOM      1  O   UNL     1      -7.112   5.544  25.835  0.00  0.00    -0.390 OA
ATOM     29  H   UNL     1      -7.254   5.196  26.733  0.00  0.00    +0.210 HD
ENDBRANCH  12   1
BRANCH   4  14
ATOM     14  C   UNL     1      -2.541   4.350  26.337  0.00  0.00    +0.120 C 
BRANCH  14  16
ATOM     16  C   UNL     1      -1.418   3.617  25.650  0.00  0.00    -0.033 A 
ATOM     17  C   UNL     1      -0.929   4.076  24.428  0.00  0.00    +0.007 A 
ATOM     18  C   UNL     1      -0.870   2.476  26.237  0.00  0.00    +0.007 A 
ATOM     20  C   UNL     1       0.110   3.397  23.792  0.00  0.00    +0.023 A 
ATOM     21  C   UNL     1       0.168   1.795  25.601  0.00  0.00    +0.023 A 
ATOM     22  C   UNL     1       0.658   2.256  24.379  0.00  0.00    +0.033 A 
BRANCH  22   7
ATOM      3  O   UNL     1       0.648  -0.336  22.846  0.00  0.00    -0.276 OA
ATOM      7  N   UNL     1       1.697   1.575  23.743  0.00  0.00    -0.286 N 
ATOM     25  C   UNL     1       1.636   0.364  23.042  0.00  0.00    +0.214 C 
ATOM     28  C   UNL     1       2.986  -0.037  22.500  0.00  0.00    +0.109 C 
ATOM     30  H   UNL     1       2.609   2.023  23.802  0.00  0.00    +0.155 HD
ENDBRANCH  22   7
ENDBRANCH  14  16
ENDBRANCH   4  14
TORSDOF 6
ENDMDL
MODEL 2
REMARK VINA RESULT:       0.6      2.567      4.763
REMARK  Name = 26743522
REMARK  7 active torsions:
REMARK  status: ('A' for Active; 'I' for Inactive)
REMARK    1  A    between atoms: O_1  and  C_12
REMARK    2  A    between atoms: N_4  and  C_14
REMARK    3  A    between atoms: N_7  and  C_22
REMARK    4  A    between atoms: C_10  and  C_15
REMARK    5  A    between atoms: C_14  and  C_16
REMARK    6  A    between atoms: C_19  and  C_23
REMARK    7  A    between atoms: C_25  and  C_28
REMARK                            x       y       z     vdW  Elec       q    Type
REMARK                         _______ _______ _______ _____ _____    ______ ____
ROOT
ATOM      4  N   UNL     1      -4.036   1.801  25.161  0.00  0.00    -0.285 NA
ATOM     10  C   UNL     1      -3.228   2.985  24.804  0.00  0.00    +0.149 C 
ATOM     11  C   UNL     1      -4.041   4.186  25.318  0.00  0.00    +0.061 C 
ATOM     12  C   UNL     1      -5.311   3.582  25.907  0.00  0.00    +0.130 C 
ATOM     13  C   UNL     1      -5.428   2.246  25.197  0.00  0.00    +0.116 C 
ENDROOT
BRANCH  10  15
ATOM      2  O   UNL     1      -0.803   3.043  24.501  0.00  0.00    -0.336 OA
ATOM      5  N   UNL     1      -1.453   2.792  26.630  0.00  0.00    -0.189 NA
ATOM      6  N   UNL     1       0.371   2.967  25.261  0.00  0.00    -0.054 NA
ATOM     15  C   UNL     1      -1.831   2.932  25.385  0.00  0.00    +0.245 A 
ATOM     19  C   UNL     1      -0.095   2.819  26.504  0.00  0.00    +0.222 A 
BRANCH  19  23
ATOM      8  N   UNL     1       2.071   2.989  27.448  0.00  0.00    -0.249 NA
ATOM      9  N   UNL     1       1.087   2.182  29.947  0.00  0.00    -0.260 NA
ATOM     23  C   UNL     1       0.770   2.697  27.643  0.00  0.00    +0.129 A 
ATOM     24  C   UNL     1       0.287   2.300  28.870  0.00  0.00    +0.142 A 
ATOM     26  C   UNL     1       2.873   2.870  28.526  0.00  0.00    +0.131 A 
ATOM     27  C   UNL     1       2.389   2.474  29.753  0.00  0.00    +0.130 A 
ENDBRANCH  19  23
ENDBRANCH  10  15
BRANCH  12   1
ATOM      1  O   UNL     1      -6.427   4.412  25.652  0.00  0.00    -0.390 OA
ATOM     29  H   UNL     1      -7.110   4.193  26.309  0.00  0.00    +0.210 HD
ENDBRANCH  12   1
BRANCH   4  14
ATOM     14  C   UNL     1      -3.844   0.678  24.252  0.00  0.00    +0.120 C 
BRANCH  14  16
ATOM     16  C   UNL     1      -2.384   0.378  24.033  0.00  0.00    -0.033 A 
ATOM     17  C   UNL     1      -1.743   0.831  22.881  0.00  0.00    +0.007 A 
ATOM     18  C   UNL     1      -1.674  -0.356  24.983  0.00  0.00    +0.007 A 
ATOM     20  C   UNL     1      -0.392   0.553  22.678  0.00  0.00    +0.023 A 
ATOM     21  C   UNL     1      -0.323  -0.635  24.781  0.00  0.00    +0.023 A 
ATOM     22  C   UNL     1       0.318  -0.182  23.628  0.00  0.00    +0.033 A 
BRANCH  22   7
ATOM      3  O   UNL     1       2.648   1.667  23.155  0.00  0.00    -0.276 OA
ATOM      7  N   UNL     1       1.670  -0.461  23.426  0.00  0.00    -0.286 N 
ATOM     25  C   UNL     1       2.717   0.443  23.208  0.00  0.00    +0.214 C 
ATOM     28  C   UNL     1       4.039  -0.263  23.035  0.00  0.00    +0.109 C 
ATOM     30  H   UNL     1       1.916  -1.449  23.441  0.00  0.00    +0.155 HD
ENDBRANCH  22   7
ENDBRANCH  14  16
ENDBRANCH   4  14
TORSDOF 6
ENDMDL
MODEL 3
REMARK VINA RESULT:       1.3      1.773      4.444
REMARK  Name = 26743522
REMARK  7 active torsions:
REMARK  status: ('A' for Active; 'I' for Inactive)
REMARK    1  A    between atoms: O_1  and  C_12
REMARK    2  A    between atoms: N_4  and  C_14
REMARK    3  A    between atoms: N_7  and  C_22
REMARK    4  A    between atoms: C_10  and  C_15
REMARK    5  A    between atoms: C_14  and  C_16
REMARK    6  A    between atoms: C_19  and  C_23
REMARK    7  A    between atoms: C_25  and  C_28
REMARK                            x       y       z     vdW  Elec       q    Type
REMARK                         _______ _______ _______ _____ _____    ______ ____
ROOT
ATOM      4  N   UNL     1      -5.277   2.271  25.319  0.00  0.00    -0.285 NA
ATOM     10  C   UNL     1      -4.410   3.005  24.375  0.00  0.00    +0.149 C 
ATOM     11  C   UNL     1      -4.651   4.491  24.692  0.00  0.00    +0.061 C 
ATOM     12  C   UNL     1      -5.702   4.495  25.796  0.00  0.00    +0.130 C 
ATOM     13  C   UNL     1      -6.399   3.158  25.625  0.00  0.00    +0.116 C 
ENDROOT
BRANCH  10  15
ATOM      2  O   UNL     1      -2.319   2.969  25.641  0.00  0.00    -0.336 OA
ATOM      5  N   UNL     1      -2.198   1.960  23.645  0.00  0.00    -0.189 NA
ATOM      6  N   UNL     1      -1.006   2.501  25.521  0.00  0.00    -0.054 NA
ATOM     15  C   UNL     1      -2.954   2.608  24.494  0.00  0.00    +0.245 A 
ATOM     19  C   UNL     1      -1.011   1.918  24.319  0.00  0.00    +0.222 A 
BRANCH  19  23
ATOM      8  N   UNL     1      -0.050   0.120  23.113  0.00  0.00    -0.249 NA
ATOM      9  N   UNL     1       2.499   1.260  23.371  0.00  0.00    -0.260 NA
ATOM     23  C   UNL     1       0.149   1.285  23.763  0.00  0.00    +0.129 A 
ATOM     24  C   UNL     1       1.402   1.844  23.889  0.00  0.00    +0.142 A 
ATOM     26  C   UNL     1       1.049  -0.465  22.595  0.00  0.00    +0.131 A 
ATOM     27  C   UNL     1       2.301   0.095  22.722  0.00  0.00    +0.130 A 
ENDBRANCH  19  23
ENDBRANCH  10  15
BRANCH  12   1
ATOM      1  O   UNL     1      -6.597   5.578  25.634  0.00  0.00    -0.390 OA
ATOM     29  H   UNL     1      -6.850   5.609  24.695  0.00  0.00    +0.210 HD
ENDBRANCH  12   1
BRANCH   4  14
ATOM     14  C   UNL     1      -5.723   0.981  24.808  0.00  0.00    +0.120 C 
BRANCH  14  16
ATOM     16  C   UNL     1      -4.628  -0.051  24.861  0.00  0.00    -0.033 A 
ATOM     17  C   UNL     1      -3.903  -0.240  26.037  0.00  0.00    +0.007 A 
ATOM     18  C   UNL     1      -4.338  -0.818  23.732  0.00  0.00    +0.007 A 
ATOM     20  C   UNL     1      -2.888  -1.196  26.086  0.00  0.00    +0.023 A 
ATOM     21  C   UNL     1      -3.323  -1.774  23.780  0.00  0.00    +0.023 A 
ATOM     22  C   UNL     1      -2.598  -1.962  24.957  0.00  0.00    +0.033 A 
BRANCH  22   7
ATOM      3  O   UNL     1       0.296  -1.704  25.746  0.00  0.00    -0.276 OA
ATOM      7  N   UNL     1      -1.583  -2.919  25.005  0.00  0.00    -0.286 N 
ATOM     25  C   UNL     1      -0.246  -2.742  25.381  0.00  0.00    +0.214 C 
ATOM     28  C   UNL     1       0.533  -4.032  25.298  0.00  0.00    +0.109 C 
ATOM     30  H   UNL     1      -1.860  -3.859  24.732  0.00  0.00    +0.155 HD
ENDBRANCH  22   7
ENDBRANCH  14  16
ENDBRANCH   4  14
TORSDOF 6
ENDMDL
MODEL 4
REMARK VINA RESULT:       1.6      3.025      5.883
REMARK  Name = 26743522
REMARK  7 active torsions:
REMARK  status: ('A' for Active; 'I' for Inactive)
REMARK    1  A    between atoms: O_1  and  C_12
REMARK    2  A    between atoms: N_4  and  C_14
REMARK    3  A    between atoms: N_7  and  C_22
REMARK    4  A    between atoms: C_10  and  C_15
REMARK    5  A    between atoms: C_14  and  C_16
REMARK    6  A    between atoms: C_19  and  C_23
REMARK    7  A    between atoms: C_25  and  C_28
REMARK                            x       y       z     vdW  Elec       q    Type
REMARK                         _______ _______ _______ _____ _____    ______ ____
ROOT
ATOM      4  N   UNL     1      -2.867  -0.096  23.746  0.00  0.00    -0.285 NA
ATOM     10  C   UNL     1      -1.768  -0.832  24.403  0.00  0.00    +0.149 C 
ATOM     11  C   UNL     1      -2.195  -2.309  24.350  0.00  0.00    +0.061 C 
ATOM     12  C   UNL     1      -3.567  -2.301  23.686  0.00  0.00    +0.130 C 
ATOM     13  C   UNL     1      -4.075  -0.895  23.945  0.00  0.00    +0.116 C 
ENDROOT
BRANCH  10  15
ATOM      2  O   UNL     1      -0.453  -0.226  22.433  0.00  0.00    -0.336 OA
ATOM      5  N   UNL     1       0.776  -0.667  24.252  0.00  0.00    -0.189 NA
ATOM      6  N   UNL     1       0.883  -0.056  22.051  0.00  0.00    -0.054 NA
ATOM     15  C   UNL     1      -0.427  -0.585  23.743  0.00  0.00    +0.245 A 
ATOM     19  C   UNL     1       1.547  -0.334  23.176  0.00  0.00    +0.222 A 
BRANCH  19  23
ATOM      8  N   UNL     1       3.592  -1.388  23.737  0.00  0.00    -0.249 NA
ATOM      9  N   UNL     1       5.027   0.887  22.944  0.00  0.00    -0.260 NA
ATOM     23  C   UNL     1       2.978  -0.287  23.260  0.00  0.00    +0.129 A 
ATOM     24  C   UNL     1       3.683   0.830  22.870  0.00  0.00    +0.142 A 
ATOM     26  C   UNL     1       4.937  -1.331  23.812  0.00  0.00    +0.131 A 
ATOM     27  C   UNL     1       5.641  -0.213  23.421  0.00  0.00    +0.130 A 
ENDBRANCH  19  23
ENDBRANCH  10  15
BRANCH  12   1
ATOM      1  O   UNL     1      -4.410  -3.278  24.264  0.00  0.00    -0.390 OA
ATOM     29  H   UNL     1      -4.705  -2.937  25.126  0.00  0.00    +0.210 HD
ENDBRANCH  12   1
BRANCH   4  14
ATOM     14  C   UNL     1      -3.023   1.266  24.239  0.00  0.00    +0.120 C 
BRANCH  14  16
ATOM     16  C   UNL     1      -1.844   1.701  25.068  0.00  0.00    -0.033 A 
ATOM     17  C   UNL     1      -1.089   2.807  24.682  0.00  0.00    +0.007 A 
ATOM     18  C   UNL     1      -1.505   0.994  26.222  0.00  0.00    +0.007 A 
ATOM     20  C   UNL     1       0.004   3.210  25.449  0.00  0.00    +0.023 A 
ATOM     21  C   UNL     1      -0.412   1.396  26.990  0.00  0.00    +0.023 A 
ATOM     22  C   UNL     1       0.342   2.503  26.603  0.00  0.00    +0.033 A 
BRANCH  22   7
ATOM      3  O   UNL     1       0.868   2.220  29.555  0.00  0.00    -0.276 OA
ATOM      7  N   UNL     1       1.436   2.905  27.372  0.00  0.00    -0.286 N 
ATOM     25  C   UNL     1       1.628   2.748  28.750  0.00  0.00    +0.214 C 
ATOM     28  C   UNL     1       2.950   3.320  29.199  0.00  0.00    +0.109 C 
ATOM     30  H   UNL     1       2.181   3.368  26.857  0.00  0.00    +0.155 HD
ENDBRANCH  22   7
ENDBRANCH  14  16
ENDBRANCH   4  14
TORSDOF 6
ENDMDL
MODEL 5
REMARK VINA RESULT:       3.0      1.645      6.289
REMARK  Name = 26743522
REMARK  7 active torsions:
REMARK  status: ('A' for Active; 'I' for Inactive)
REMARK    1  A    between atoms: O_1  and  C_12
REMARK    2  A    between atoms: N_4  and  C_14
REMARK    3  A    between atoms: N_7  and  C_22
REMARK    4  A    between atoms: C_10  and  C_15
REMARK    5  A    between atoms: C_14  and  C_16
REMARK    6  A    between atoms: C_19  and  C_23
REMARK    7  A    between atoms: C_25  and  C_28
REMARK                            x       y       z     vdW  Elec       q    Type
REMARK                         _______ _______ _______ _____ _____    ______ ____
ROOT
ATOM      4  N   UNL     1       2.537   1.270  23.643  0.00  0.00    -0.285 NA
ATOM     10  C   UNL     1       2.077   0.089  22.884  0.00  0.00    +0.149 C 
ATOM     11  C   UNL     1       3.312  -0.823  22.786  0.00  0.00    +0.061 C 
ATOM     12  C   UNL     1       4.430  -0.052  23.479  0.00  0.00    +0.130 C 
ATOM     13  C   UNL     1       3.972   1.392  23.387  0.00  0.00    +0.116 C 
ENDROOT
BRANCH  10  15
ATOM      2  O   UNL     1       1.158  -1.351  24.634  0.00  0.00    -0.336 OA
ATOM      5  N   UNL     1      -0.370  -0.570  23.194  0.00  0.00    -0.189 NA
ATOM      6  N   UNL     1      -0.072  -1.873  25.051  0.00  0.00    -0.054 NA
ATOM     15  C   UNL     1       0.893  -0.595  23.535  0.00  0.00    +0.245 A 
ATOM     19  C   UNL     1      -0.924  -1.368  24.154  0.00  0.00    +0.222 A 
BRANCH  19  23
ATOM      8  N   UNL     1      -3.154  -0.573  24.214  0.00  0.00    -0.249 NA
ATOM      9  N   UNL     1      -4.132  -3.202  24.221  0.00  0.00    -0.260 NA
ATOM     23  C   UNL     1      -2.331  -1.641  24.187  0.00  0.00    +0.129 A 
ATOM     24  C   UNL     1      -2.812  -2.932  24.191  0.00  0.00    +0.142 A 
ATOM     26  C   UNL     1      -4.474  -0.843  24.245  0.00  0.00    +0.131 A 
ATOM     27  C   UNL     1      -4.954  -2.134  24.249  0.00  0.00    +0.130 A 
ENDBRANCH  19  23
ENDBRANCH  10  15
BRANCH  12   1
ATOM      1  O   UNL     1       5.663  -0.254  22.818  0.00  0.00    -0.390 OA
ATOM     29  H   UNL     1       5.465  -0.568  21.919  0.00  0.00    +0.210 HD
ENDBRANCH  12   1
BRANCH   4  14
ATOM     14  C   UNL     1       1.815   2.489  23.305  0.00  0.00    +0.120 C 
BRANCH  14  16
ATOM     16  C   UNL     1       0.451   2.527  23.942  0.00  0.00    -0.033 A 
ATOM     17  C   UNL     1       0.318   2.347  25.318  0.00  0.00    +0.007 A 
ATOM     18  C   UNL     1      -0.680   2.740  23.154  0.00  0.00    +0.007 A 
ATOM     20  C   UNL     1      -0.945   2.382  25.908  0.00  0.00    +0.023 A 
ATOM     21  C   UNL     1      -1.944   2.775  23.743  0.00  0.00    +0.023 A 
ATOM     22  C   UNL     1      -2.076   2.595  25.120  0.00  0.00    +0.033 A 
BRANCH  22   7
ATOM      3  O   UNL     1      -4.816   2.610  23.871  0.00  0.00    -0.276 OA
ATOM      7  N   UNL     1      -3.341   2.630  25.709  0.00  0.00    -0.286 N 
ATOM     25  C   UNL     1      -4.590   2.637  25.076  0.00  0.00    +0.214 C 
ATOM     28  C   UNL     1      -5.722   2.677  26.073  0.00  0.00    +0.109 C 
ATOM     30  H   UNL     1      -3.345   2.653  26.727  0.00  0.00    +0.155 HD
ENDBRANCH  22   7
ENDBRANCH  14  16
ENDBRANCH   4  14
TORSDOF 6
ENDMDL
MODEL 6
REMARK VINA RESULT:       3.0      2.337      5.857
REMARK  Name = 26743522
REMARK  7 active torsions:
REMARK  status: ('A' for Active; 'I' for Inactive)
REMARK    1  A    between atoms: O_1  and  C_12
REMARK    2  A    between atoms: N_4  and  C_14
REMARK    3  A    between atoms: N_7  and  C_22
REMARK    4  A    between atoms: C_10  and  C_15
REMARK    5  A    between atoms: C_14  and  C_16
REMARK    6  A    between atoms: C_19  and  C_23
REMARK    7  A    between atoms: C_25  and  C_28
REMARK                            x       y       z     vdW  Elec       q    Type
REMARK                         _______ _______ _______ _____ _____    ______ ____
ROOT
ATOM      4  N   UNL     1      -4.296  -1.309  24.006  0.00  0.00    -0.285 NA
ATOM     10  C   UNL     1      -3.250  -1.698  24.975  0.00  0.00    +0.149 C 
ATOM     11  C   UNL     1      -2.989  -3.188  24.697  0.00  0.00    +0.061 C 
ATOM     12  C   UNL     1      -3.965  -3.561  23.587  0.00  0.00    +0.130 C 
ATOM     13  C   UNL     1      -5.062  -2.521  23.718  0.00  0.00    +0.116 C 
ENDROOT
BRANCH  10  15
ATOM      2  O   UNL     1      -1.840   0.129  25.782  0.00  0.00    -0.336 OA
ATOM      5  N   UNL     1      -1.035  -0.918  23.973  0.00  0.00    -0.189 NA
ATOM      6  N   UNL     1      -0.633   0.766  25.468  0.00  0.00    -0.054 NA
ATOM     15  C   UNL     1      -2.001  -0.851  24.853  0.00  0.00    +0.245 A 
ATOM     19  C   UNL     1      -0.219   0.093  24.391  0.00  0.00    +0.222 A 
BRANCH  19  23
ATOM      8  N   UNL     1       1.463  -0.516  22.839  0.00  0.00    -0.249 NA
ATOM      9  N   UNL     1       2.821   1.893  23.305  0.00  0.00    -0.260 NA
ATOM     23  C   UNL     1       1.004   0.405  23.710  0.00  0.00    +0.129 A 
ATOM     24  C   UNL     1       1.671   1.588  23.939  0.00  0.00    +0.142 A 
ATOM     26  C   UNL     1       2.614  -0.212  22.206  0.00  0.00    +0.131 A 
ATOM     27  C   UNL     1       3.280   0.972  22.435  0.00  0.00    +0.130 A 
ENDBRANCH  19  23
ENDBRANCH  10  15
BRANCH  12   1
ATOM      1  O   UNL     1      -4.461  -4.872  23.774  0.00  0.00    -0.390 OA
ATOM     29  H   UNL     1      -5.418  -4.803  23.932  0.00  0.00    +0.210 HD
ENDBRANCH  12   1
BRANCH   4  14
ATOM     14  C   UNL     1      -5.144  -0.224  24.479  0.00  0.00    +0.120 C 
BRANCH  14  16
ATOM     16  C   UNL     1      -4.413   1.092  24.499  0.00  0.00    -0.033 A 
ATOM     17  C   UNL     1      -3.558   1.431  23.450  0.00  0.00    +0.007 A 
ATOM     18  C   UNL     1      -4.589   1.971  25.567  0.00  0.00    +0.007 A 
ATOM     20  C   UNL     1      -2.880   2.650  23.468  0.00  0.00    +0.023 A 
ATOM     21  C   UNL     1      -3.911   3.190  25.586  0.00  0.00    +0.023 A 
ATOM     22  C   UNL     1      -3.056   3.529  24.537  0.00  0.00    +0.033 A 
BRANCH  22   7
ATOM      3  O   UNL     1      -0.241   4.188  25.378  0.00  0.00    -0.276 OA
ATOM      7  N   UNL     1      -2.378   4.748  24.556  0.00  0.00    -0.286 N 
ATOM     25  C   UNL     1      -1.061   4.999  24.961  0.00  0.00    +0.214 C 
ATOM     28  C   UNL     1      -0.703   6.459  24.828  0.00  0.00    +0.109 C 
ATOM     30  H   UNL     1      -2.916   5.549  24.233  0.00  0.00    +0.155 HD
ENDBRANCH  22   7
ENDBRANCH  14  16
ENDBRANCH   4  14
TORSDOF 6
ENDMDL
MODEL 7
REMARK VINA RESULT:       3.1      2.187      7.089
REMARK  Name = 26743522
REMARK  7 active torsions:
REMARK  status: ('A' for Active; 'I' for Inactive)
REMARK    1  A    between atoms: O_1  and  C_12
REMARK    2  A    between atoms: N_4  and  C_14
REMARK    3  A    between atoms: N_7  and  C_22
REMARK    4  A    between atoms: C_10  and  C_15
REMARK    5  A    between atoms: C_14  and  C_16
REMARK    6  A    between atoms: C_19  and  C_23
REMARK    7  A    between atoms: C_25  and  C_28
REMARK                            x       y       z     vdW  Elec       q    Type
REMARK                         _______ _______ _______ _____ _____    ______ ____
ROOT
ATOM      4  N   UNL     1       0.667  -0.230  22.890  0.00  0.00    -0.285 NA
ATOM     10  C   UNL     1       1.303   0.504  24.004  0.00  0.00    +0.149 C 
ATOM     11  C   UNL     1       2.586   1.102  23.402  0.00  0.00    +0.061 C 
ATOM     12  C   UNL     1       2.610   0.614  21.958  0.00  0.00    +0.130 C 
ATOM     13  C   UNL     1       1.749  -0.634  21.993  0.00  0.00    +0.116 C 
ENDROOT
BRANCH  10  15
ATOM      2  O   UNL     1       0.896   2.273  25.641  0.00  0.00    -0.336 OA
ATOM      5  N   UNL     1      -0.832   1.880  24.271  0.00  0.00    -0.189 NA
ATOM      6  N   UNL     1      -0.113   3.166  26.021  0.00  0.00    -0.054 NA
ATOM     15  C   UNL     1       0.391   1.554  24.604  0.00  0.00    +0.245 A 
ATOM     19  C   UNL     1      -1.099   2.873  25.168  0.00  0.00    +0.222 A 
BRANCH  19  23
ATOM      8  N   UNL     1      -2.876   3.846  26.395  0.00  0.00    -0.249 NA
ATOM      9  N   UNL     1      -4.197   4.528  24.017  0.00  0.00    -0.260 NA
ATOM     23  C   UNL     1      -2.361   3.554  25.184  0.00  0.00    +0.129 A 
ATOM     24  C   UNL     1      -3.010   3.889  24.016  0.00  0.00    +0.142 A 
ATOM     26  C   UNL     1      -4.063   4.485  26.397  0.00  0.00    +0.131 A 
ATOM     27  C   UNL     1      -4.711   4.820  25.228  0.00  0.00    +0.130 A 
ENDBRANCH  19  23
ENDBRANCH  10  15
BRANCH  12   1
ATOM      1  O   UNL     1       3.933   0.328  21.547  0.00  0.00    -0.390 OA
ATOM     29  H   UNL     1       4.534   0.776  22.166  0.00  0.00    +0.210 HD
ENDBRANCH  12   1
BRANCH   4  14
ATOM     14  C   UNL     1      -0.133  -1.364  23.330  0.00  0.00    +0.120 C 
BRANCH  14  16
ATOM     16  C   UNL     1      -1.381  -0.925  24.049  0.00  0.00    -0.033 A 
ATOM     17  C   UNL     1      -2.397  -0.275  23.350  0.00  0.00    +0.007 A 
ATOM     18  C   UNL     1      -1.520  -1.167  25.416  0.00  0.00    +0.007 A 
ATOM     20  C   UNL     1      -3.552   0.133  24.016  0.00  0.00    +0.023 A 
ATOM     21  C   UNL     1      -2.675  -0.760  26.083  0.00  0.00    +0.023 A 
ATOM     22  C   UNL     1      -3.691  -0.110  25.383  0.00  0.00    +0.033 A 
BRANCH  22   7
ATOM      3  O   UNL     1      -5.782   1.916  24.613  0.00  0.00    -0.276 OA
ATOM      7  N   UNL     1      -4.847   0.298  26.050  0.00  0.00    -0.286 N 
ATOM     25  C   UNL     1      -5.789   1.251  25.644  0.00  0.00    +0.214 C 
ATOM     28  C   UNL     1      -6.901   1.403  26.652  0.00  0.00    +0.109 C 
ATOM     30  H   UNL     1      -5.017  -0.161  26.942  0.00  0.00    +0.155 HD
ENDBRANCH  22   7
ENDBRANCH  14  16
ENDBRANCH   4  14
TORSDOF 6
ENDMDL
MODEL 8
REMARK VINA RESULT:       3.5      2.420      5.907
REMARK  Name = 26743522
REMARK  7 active torsions:
REMARK  status: ('A' for Active; 'I' for Inactive)
REMARK    1  A    between atoms: O_1  and  C_12
REMARK    2  A    between atoms: N_4  and  C_14
REMARK    3  A    between atoms: N_7  and  C_22
REMARK    4  A    between atoms: C_10  and  C_15
REMARK    5  A    between atoms: C_14  and  C_16
REMARK    6  A    between atoms: C_19  and  C_23
REMARK    7  A    between atoms: C_25  and  C_28
REMARK                            x       y       z     vdW  Elec       q    Type
REMARK                         _______ _______ _______ _____ _____    ______ ____
ROOT
ATOM      4  N   UNL     1      -0.610   3.007  25.646  0.00  0.00    -0.285 NA
ATOM     10  C   UNL     1      -0.744   2.637  24.222  0.00  0.00    +0.149 C 
ATOM     11  C   UNL     1      -0.704   3.974  23.461  0.00  0.00    +0.061 C 
ATOM     12  C   UNL     1      -0.591   5.041  24.544  0.00  0.00    +0.130 C 
ATOM     13  C   UNL     1      -1.156   4.357  25.775  0.00  0.00    +0.116 C 
ENDROOT
BRANCH  10  15
ATOM      2  O   UNL     1      -0.046   0.724  22.869  0.00  0.00    -0.336 OA
ATOM      5  N   UNL     1       1.591   1.608  24.116  0.00  0.00    -0.189 NA
ATOM      6  N   UNL     1       1.099  -0.037  22.606  0.00  0.00    -0.054 NA
ATOM     15  C   UNL     1       0.331   1.672  23.768  0.00  0.00    +0.245 A 
ATOM     19  C   UNL     1       2.021   0.545  23.377  0.00  0.00    +0.222 A 
BRANCH  19  23
ATOM      8  N   UNL     1       4.337   1.012  23.211  0.00  0.00    -0.249 NA
ATOM      9  N   UNL     1       4.957  -1.667  23.757  0.00  0.00    -0.260 NA
ATOM     23  C   UNL     1       3.380   0.090  23.433  0.00  0.00    +0.129 A 
ATOM     24  C   UNL     1       3.685  -1.227  23.702  0.00  0.00    +0.142 A 
ATOM     26  C   UNL     1       5.610   0.572  23.266  0.00  0.00    +0.131 A 
ATOM     27  C   UNL     1       5.914  -0.745  23.534  0.00  0.00    +0.130 A 
ENDBRANCH  19  23
ENDBRANCH  10  15
BRANCH  12   1
ATOM      1  O   UNL     1      -1.336   6.191  24.194  0.00  0.00    -0.390 OA
ATOM     29  H   UNL     1      -2.211   5.892  23.893  0.00  0.00    +0.210 HD
ENDBRANCH  12   1
BRANCH   4  14
ATOM     14  C   UNL     1      -1.260   2.065  26.548  0.00  0.00    +0.120 C 
BRANCH  14  16
ATOM     16  C   UNL     1      -2.105   1.066  25.803  0.00  0.00    -0.033 A 
ATOM     17  C   UNL     1      -3.269   1.481  25.157  0.00  0.00    +0.007 A 
ATOM     18  C   UNL     1      -1.724  -0.275  25.761  0.00  0.00    +0.007 A 
ATOM     20  C   UNL     1      -4.052   0.556  24.467  0.00  0.00    +0.023 A 
ATOM     21  C   UNL     1      -2.507  -1.201  25.072  0.00  0.00    +0.023 A 
ATOM     22  C   UNL     1      -3.672  -0.785  24.425  0.00  0.00    +0.033 A 
BRANCH  22   7
ATOM      3  O   UNL     1      -3.526  -3.792  24.342  0.00  0.00    -0.276 OA
ATOM      7  N   UNL     1      -4.455  -1.712  23.736  0.00  0.00    -0.286 N 
ATOM     25  C   UNL     1      -4.341  -3.108  23.732  0.00  0.00    +0.214 C 
ATOM     28  C   UNL     1      -5.386  -3.751  22.854  0.00  0.00    +0.109 C 
ATOM     30  H   UNL     1      -5.199  -1.313  23.168  0.00  0.00    +0.155 HD
ENDBRANCH  22   7
ENDBRANCH  14  16
ENDBRANCH   4  14
TORSDOF 6
ENDMDL
