MODEL 1
REMARK VINA RESULT:      -2.5      0.000      0.000
REMARK  Name = 51137334
REMARK  7 active torsions:
REMARK  status: ('A' for Active; 'I' for Inactive)
REMARK    1  A    between atoms: O_2  and  C_15
REMARK    2  A    between atoms: O_3  and  C_20
REMARK    3  A    between atoms: O_3  and  C_25
REMARK    4  A    between atoms: N_4  and  C_12
REMARK    5  A    between atoms: C_8  and  C_13
REMARK    6  A    between atoms: C_12  and  C_14
REMARK    7  A    between atoms: C_17  and  C_21
REMARK                            x       y       z     vdW  Elec       q    Type
REMARK                         _______ _______ _______ _____ _____    ______ ____
ROOT
ATOM      4  N   UNL     1      -3.285  -1.031  25.077  0.00  0.00    -0.297 NA
ATOM      8  C   UNL     1      -1.266  -1.568  24.012  0.00  0.00    +0.092 C 
ATOM      9  C   UNL     1      -1.084  -1.661  25.537  0.00  0.00    +0.029 C 
ATOM     10  C   UNL     1      -2.571  -0.782  23.823  0.00  0.00    +0.097 C 
ATOM     11  C   UNL     1      -2.270  -0.904  26.122  0.00  0.00    +0.085 C 
ENDROOT
BRANCH   8  13
ATOM      1  O   UNL     1       1.124  -1.058  23.859  0.00  0.00    -0.420 OA
ATOM      5  N   UNL     1      -0.076  -0.337  22.114  0.00  0.00    -0.112 NA
ATOM      6  N   UNL     1       1.243   0.014  21.899  0.00  0.00    -0.107 NA
ATOM     13  C   UNL     1      -0.099  -0.961  23.268  0.00  0.00    +0.222 A 
ATOM     17  C   UNL     1       1.907  -0.427  22.942  0.00  0.00    +0.250 A 
BRANCH  17  21
ATOM      7  N   UNL     1       5.287  -1.421  24.130  0.00  0.00    -0.263 NA
ATOM     21  C   UNL     1       3.304  -0.347  23.259  0.00  0.00    +0.057 A 
ATOM     22  C   UNL     1       4.026   0.817  23.026  0.00  0.00    +0.016 A 
ATOM     23  C   UNL     1       3.975  -1.428  23.808  0.00  0.00    +0.124 A 
ATOM     24  C   UNL     1       5.379   0.864  23.344  0.00  0.00    +0.020 A 
ATOM     26  C   UNL     1       5.957  -0.272  23.888  0.00  0.00    +0.111 A 
ENDBRANCH  17  21
ENDBRANCH   8  13
BRANCH   4  12
ATOM     12  C   UNL     1      -4.399  -0.115  25.272  0.00  0.00    +0.123 C 
BRANCH  12  14
ATOM     14  C   UNL     1      -3.962   1.324  25.195  0.00  0.00    +0.008 A 
ATOM     15  C   UNL     1      -4.889   2.359  25.318  0.00  0.00    +0.125 A 
ATOM     16  C   UNL     1      -2.612   1.616  25.001  0.00  0.00    +0.012 A 
ATOM     18  C   UNL     1      -4.466   3.686  25.245  0.00  0.00    +0.091 A 
ATOM     19  C   UNL     1      -2.189   2.944  24.928  0.00  0.00    +0.046 A 
ATOM     20  C   UNL     1      -3.117   3.979  25.050  0.00  0.00    +0.124 A 
BRANCH  15   2
ATOM      2  O   UNL     1      -6.211   2.090  25.508  0.00  0.00    -0.506 OA
ATOM     27  H   UNL     1      -6.302   1.430  26.216  0.00  0.00    +0.292 HD
ENDBRANCH  15   2
BRANCH  20   3
ATOM      3  O   UNL     1      -2.704   5.274  24.979  0.00  0.00    -0.495 OA
ATOM     25  C   UNL     1      -1.296   5.508  24.976  0.00  0.00    +0.277 C 
ENDBRANCH  20   3
ENDBRANCH  12  14
ENDBRANCH   4  12
TORSDOF 6
ENDMDL
MODEL 2
REMARK VINA RESULT:      -2.2      1.906      2.454
REMARK  Name = 51137334
REMARK  7 active torsions:
REMARK  status: ('A' for Active; 'I' for Inactive)
REMARK    1  A    between atoms: O_2  and  C_15
REMARK    2  A    between atoms: O_3  and  C_20
REMARK    3  A    between atoms: O_3  and  C_25
REMARK    4  A    between atoms: N_4  and  C_12
REMARK    5  A    between atoms: C_8  and  C_13
REMARK    6  A    between atoms: C_12  and  C_14
REMARK    7  A    between atoms: C_17  and  C_21
REMARK                            x       y       z     vdW  Elec       q    Type
REMARK                         _______ _______ _______ _____ _____    ______ ____
ROOT
ATOM      4  N   UNL     1      -5.058   0.127  24.608  0.00  0.00    -0.297 NA
ATOM      8  C   UNL     1      -3.336  -1.465  24.642  0.00  0.00    +0.092 C 
ATOM      9  C   UNL     1      -3.930  -1.319  26.054  0.00  0.00    +0.029 C 
ATOM     10  C   UNL     1      -3.840  -0.232  23.879  0.00  0.00    +0.097 C 
ATOM     11  C   UNL     1      -4.706  -0.008  26.021  0.00  0.00    +0.085 C 
ENDROOT
BRANCH   8  13
ATOM      1  O   UNL     1      -1.131  -0.589  24.037  0.00  0.00    -0.420 OA
ATOM      5  N   UNL     1      -1.076  -2.597  25.021  0.00  0.00    -0.112 NA
ATOM      6  N   UNL     1       0.225  -2.226  24.737  0.00  0.00    -0.107 NA
ATOM     13  C   UNL     1      -1.833  -1.613  24.596  0.00  0.00    +0.222 A 
ATOM     17  C   UNL     1       0.144  -1.048  24.163  0.00  0.00    +0.250 A 
BRANCH  17  21
ATOM      7  N   UNL     1       2.083   2.045  23.456  0.00  0.00    -0.263 NA
ATOM     21  C   UNL     1       1.174  -0.185  23.658  0.00  0.00    +0.057 A 
ATOM     22  C   UNL     1       2.229  -0.692  22.909  0.00  0.00    +0.016 A 
ATOM     23  C   UNL     1       1.147   1.178  23.902  0.00  0.00    +0.124 A 
ATOM     24  C   UNL     1       3.212   0.169  22.432  0.00  0.00    +0.020 A 
ATOM     26  C   UNL     1       3.094   1.517  22.732  0.00  0.00    +0.111 A 
ENDBRANCH  17  21
ENDBRANCH   8  13
BRANCH   4  12
ATOM     12  C   UNL     1      -5.527   1.464  24.280  0.00  0.00    +0.123 C 
BRANCH  12  14
ATOM     14  C   UNL     1      -4.491   2.514  24.585  0.00  0.00    +0.008 A 
ATOM     15  C   UNL     1      -4.660   3.394  25.654  0.00  0.00    +0.125 A 
ATOM     16  C   UNL     1      -3.352   2.598  23.784  0.00  0.00    +0.012 A 
ATOM     18  C   UNL     1      -3.689   4.358  25.923  0.00  0.00    +0.091 A 
ATOM     19  C   UNL     1      -2.380   3.563  24.053  0.00  0.00    +0.046 A 
ATOM     20  C   UNL     1      -2.550   4.444  25.123  0.00  0.00    +0.124 A 
BRANCH  15   2
ATOM      2  O   UNL     1      -5.767   3.324  26.444  0.00  0.00    -0.506 OA
ATOM     27  H   UNL     1      -5.710   4.009  27.132  0.00  0.00    +0.292 HD
ENDBRANCH  15   2
BRANCH  20   3
ATOM      3  O   UNL     1      -1.603   5.386  25.385  0.00  0.00    -0.495 OA
ATOM     25  C   UNL     1      -0.372   5.284  24.670  0.00  0.00    +0.277 C 
ENDBRANCH  20   3
ENDBRANCH  12  14
ENDBRANCH   4  12
TORSDOF 6
ENDMDL
MODEL 3
REMARK VINA RESULT:      -1.9      2.881      6.399
REMARK  Name = 51137334
REMARK  7 active torsions:
REMARK  status: ('A' for Active; 'I' for Inactive)
REMARK    1  A    between atoms: O_2  and  C_15
REMARK    2  A    between atoms: O_3  and  C_20
REMARK    3  A    between atoms: O_3  and  C_25
REMARK    4  A    between atoms: N_4  and  C_12
REMARK    5  A    between atoms: C_8  and  C_13
REMARK    6  A    between atoms: C_12  and  C_14
REMARK    7  A    between atoms: C_17  and  C_21
REMARK                            x       y       z     vdW  Elec       q    Type
REMARK                         _______ _______ _______ _____ _____    ______ ____
ROOT
ATOM      4  N   UNL     1      -2.894   5.046  25.356  0.00  0.00    -0.297 NA
ATOM      8  C   UNL     1      -4.697   3.596  24.979  0.00  0.00    +0.092 C 
ATOM      9  C   UNL     1      -4.742   4.107  26.429  0.00  0.00    +0.029 C 
ATOM     10  C   UNL     1      -3.279   3.927  24.494  0.00  0.00    +0.097 C 
ATOM     11  C   UNL     1      -3.350   4.668  26.692  0.00  0.00    +0.085 C 
ENDROOT
BRANCH   8  13
ATOM      1  O   UNL     1      -4.017   1.256  24.740  0.00  0.00    -0.420 OA
ATOM      5  N   UNL     1      -6.232   1.570  24.711  0.00  0.00    -0.112 NA
ATOM      6  N   UNL     1      -5.991   0.216  24.570  0.00  0.00    -0.107 NA
ATOM     13  C   UNL     1      -5.053   2.137  24.808  0.00  0.00    +0.222 A 
ATOM     17  C   UNL     1      -4.685   0.079  24.592  0.00  0.00    +0.250 A 
BRANCH  17  21
ATOM      7  N   UNL     1      -1.733  -2.165  24.849  0.00  0.00    -0.263 NA
ATOM     21  C   UNL     1      -3.870  -1.096  24.486  0.00  0.00    +0.057 A 
ATOM     22  C   UNL     1      -4.375  -2.272  23.944  0.00  0.00    +0.016 A 
ATOM     23  C   UNL     1      -2.554  -1.095  24.920  0.00  0.00    +0.124 A 
ATOM     24  C   UNL     1      -3.560  -3.396  23.854  0.00  0.00    +0.020 A 
ATOM     26  C   UNL     1      -2.259  -3.291  24.317  0.00  0.00    +0.111 A 
ENDBRANCH  17  21
ENDBRANCH   8  13
BRANCH   4  12
ATOM     12  C   UNL     1      -1.463   5.312  25.314  0.00  0.00    +0.123 C 
BRANCH  12  14
ATOM     14  C   UNL     1      -0.681   4.102  24.876  0.00  0.00    +0.008 A 
ATOM     15  C   UNL     1      -0.522   3.008  25.728  0.00  0.00    +0.125 A 
ATOM     16  C   UNL     1      -0.113   4.082  23.602  0.00  0.00    +0.012 A 
ATOM     18  C   UNL     1       0.205   1.896  25.306  0.00  0.00    +0.091 A 
ATOM     19  C   UNL     1       0.614   2.969  23.179  0.00  0.00    +0.046 A 
ATOM     20  C   UNL     1       0.774   1.876  24.032  0.00  0.00    +0.124 A 
BRANCH  15   2
ATOM      2  O   UNL     1      -1.069   3.013  26.975  0.00  0.00    -0.506 OA
ATOM     27  H   UNL     1      -0.467   3.473  27.585  0.00  0.00    +0.292 HD
ENDBRANCH  15   2
BRANCH  20   3
ATOM      3  O   UNL     1       1.483   0.789  23.620  0.00  0.00    -0.495 OA
ATOM     25  C   UNL     1       0.738  -0.316  23.107  0.00  0.00    +0.277 C 
ENDBRANCH  20   3
ENDBRANCH  12  14
ENDBRANCH   4  12
TORSDOF 6
ENDMDL
MODEL 4
REMARK VINA RESULT:      -1.4      2.758      5.442
REMARK  Name = 51137334
REMARK  7 active torsions:
REMARK  status: ('A' for Active; 'I' for Inactive)
REMARK    1  A    between atoms: O_2  and  C_15
REMARK    2  A    between atoms: O_3  and  C_20
REMARK    3  A    between atoms: O_3  and  C_25
REMARK    4  A    between atoms: N_4  and  C_12
REMARK    5  A    between atoms: C_8  and  C_13
REMARK    6  A    between atoms: C_12  and  C_14
REMARK    7  A    between atoms: C_17  and  C_21
REMARK                            x       y       z     vdW  Elec       q    Type
REMARK                         _______ _______ _______ _____ _____    ______ ____
ROOT
ATOM      4  N   UNL     1      -0.617   4.697  24.965  0.00  0.00    -0.297 NA
ATOM      8  C   UNL     1       0.496   2.665  24.604  0.00  0.00    +0.092 C 
ATOM      9  C   UNL     1       0.715   3.593  23.397  0.00  0.00    +0.029 C 
ATOM     10  C   UNL     1      -0.680   3.291  25.367  0.00  0.00    +0.097 C 
ATOM     11  C   UNL     1      -0.358   4.667  23.526  0.00  0.00    +0.085 C 
ENDROOT
BRANCH   8  13
ATOM      1  O   UNL     1      -0.990   0.726  24.446  0.00  0.00    -0.420 OA
ATOM      5  N   UNL     1       1.109   0.322  23.786  0.00  0.00    -0.112 NA
ATOM      6  N   UNL     1       0.385  -0.847  23.646  0.00  0.00    -0.107 NA
ATOM     13  C   UNL     1       0.266   1.213  24.255  0.00  0.00    +0.222 A 
ATOM     17  C   UNL     1      -0.834  -0.565  24.043  0.00  0.00    +0.250 A 
BRANCH  17  21
ATOM      7  N   UNL     1      -2.970  -3.576  24.482  0.00  0.00    -0.263 NA
ATOM     21  C   UNL     1      -2.005  -1.390  24.115  0.00  0.00    +0.057 A 
ATOM     22  C   UNL     1      -3.271  -0.859  23.900  0.00  0.00    +0.016 A 
ATOM     23  C   UNL     1      -1.909  -2.743  24.400  0.00  0.00    +0.124 A 
ATOM     24  C   UNL     1      -4.388  -1.685  23.975  0.00  0.00    +0.020 A 
ATOM     26  C   UNL     1      -4.185  -3.024  24.268  0.00  0.00    +0.111 A 
ENDBRANCH  17  21
ENDBRANCH   8  13
BRANCH   4  12
ATOM     12  C   UNL     1      -1.835   5.423  25.293  0.00  0.00    +0.123 C 
BRANCH  12  14
ATOM     14  C   UNL     1      -3.049   4.532  25.247  0.00  0.00    +0.008 A 
ATOM     15  C   UNL     1      -3.696   4.146  26.422  0.00  0.00    +0.125 A 
ATOM     16  C   UNL     1      -3.525   4.093  24.012  0.00  0.00    +0.012 A 
ATOM     18  C   UNL     1      -4.818   3.321  26.361  0.00  0.00    +0.091 A 
ATOM     19  C   UNL     1      -4.648   3.267  23.950  0.00  0.00    +0.046 A 
ATOM     20  C   UNL     1      -5.295   2.881  25.126  0.00  0.00    +0.124 A 
BRANCH  15   2
ATOM      2  O   UNL     1      -3.242   4.566  27.636  0.00  0.00    -0.506 OA
ATOM     27  H   UNL     1      -2.477   5.151  27.504  0.00  0.00    +0.292 HD
ENDBRANCH  15   2
BRANCH  20   3
ATOM      3  O   UNL     1      -6.391   2.076  25.066  0.00  0.00    -0.495 OA
ATOM     25  C   UNL     1      -6.647   1.243  26.197  0.00  0.00    +0.277 C 
ENDBRANCH  20   3
ENDBRANCH  12  14
ENDBRANCH   4  12
TORSDOF 6
ENDMDL
MODEL 5
REMARK VINA RESULT:      -1.1      1.943      3.642
REMARK  Name = 51137334
REMARK  7 active torsions:
REMARK  status: ('A' for Active; 'I' for Inactive)
REMARK    1  A    between atoms: O_2  and  C_15
REMARK    2  A    between atoms: O_3  and  C_20
REMARK    3  A    between atoms: O_3  and  C_25
REMARK    4  A    between atoms: N_4  and  C_12
REMARK    5  A    between atoms: C_8  and  C_13
REMARK    6  A    between atoms: C_12  and  C_14
REMARK    7  A    between atoms: C_17  and  C_21
REMARK                            x       y       z     vdW  Elec       q    Type
REMARK                         _______ _______ _______ _____ _____    ______ ____
ROOT
ATOM      4  N   UNL     1      -2.055   4.019  25.513  0.00  0.00    -0.297 NA
ATOM      8  C   UNL     1      -0.013   3.105  24.813  0.00  0.00    +0.092 C 
ATOM      9  C   UNL     1      -0.337   4.348  23.967  0.00  0.00    +0.029 C 
ATOM     10  C   UNL     1      -1.339   2.742  25.496  0.00  0.00    +0.097 C 
ATOM     11  C   UNL     1      -1.822   4.601  24.193  0.00  0.00    +0.085 C 
ENDROOT
BRANCH   8  13
ATOM      1  O   UNL     1       1.900   1.672  24.280  0.00  0.00    -0.420 OA
ATOM      5  N   UNL     1       0.034   1.157  23.158  0.00  0.00    -0.112 NA
ATOM      6  N   UNL     1       1.025   0.277  22.765  0.00  0.00    -0.107 NA
ATOM     13  C   UNL     1       0.589   1.952  24.043  0.00  0.00    +0.222 A 
ATOM     17  C   UNL     1       2.096   0.615  23.444  0.00  0.00    +0.250 A 
BRANCH  17  21
ATOM      7  N   UNL     1       4.839  -1.871  23.780  0.00  0.00    -0.263 NA
ATOM     21  C   UNL     1       3.415   0.053  23.443  0.00  0.00    +0.057 A 
ATOM     22  C   UNL     1       4.524   0.827  23.124  0.00  0.00    +0.016 A 
ATOM     23  C   UNL     1       3.624  -1.280  23.761  0.00  0.00    +0.124 A 
ATOM     24  C   UNL     1       5.791   0.254  23.132  0.00  0.00    +0.020 A 
ATOM     26  C   UNL     1       5.894  -1.087  23.463  0.00  0.00    +0.111 A 
ENDBRANCH  17  21
ENDBRANCH   8  13
BRANCH   4  12
ATOM     12  C   UNL     1      -3.472   3.856  25.805  0.00  0.00    +0.123 C 
BRANCH  12  14
ATOM     14  C   UNL     1      -3.982   2.506  25.374  0.00  0.00    +0.008 A 
ATOM     15  C   UNL     1      -5.321   2.158  25.555  0.00  0.00    +0.125 A 
ATOM     16  C   UNL     1      -3.099   1.601  24.785  0.00  0.00    +0.012 A 
ATOM     18  C   UNL     1      -5.776   0.904  25.149  0.00  0.00    +0.091 A 
ATOM     19  C   UNL     1      -3.554   0.346  24.378  0.00  0.00    +0.046 A 
ATOM     20  C   UNL     1      -4.893  -0.002  24.561  0.00  0.00    +0.124 A 
BRANCH  15   2
ATOM      2  O   UNL     1      -6.195   3.031  26.129  0.00  0.00    -0.506 OA
ATOM     27  H   UNL     1      -6.537   3.633  25.446  0.00  0.00    +0.292 HD
ENDBRANCH  15   2
BRANCH  20   3
ATOM      3  O   UNL     1      -5.338  -1.226  24.164  0.00  0.00    -0.495 OA
ATOM     25  C   UNL     1      -4.350  -2.180  23.775  0.00  0.00    +0.277 C 
ENDBRANCH  20   3
ENDBRANCH  12  14
ENDBRANCH   4  12
TORSDOF 6
ENDMDL
MODEL 6
REMARK VINA RESULT:      -1.0      2.519      4.590
REMARK  Name = 51137334
REMARK  7 active torsions:
REMARK  status: ('A' for Active; 'I' for Inactive)
REMARK    1  A    between atoms: O_2  and  C_15
REMARK    2  A    between atoms: O_3  and  C_20
REMARK    3  A    between atoms: O_3  and  C_25
REMARK    4  A    between atoms: N_4  and  C_12
REMARK    5  A    between atoms: C_8  and  C_13
REMARK    6  A    between atoms: C_12  and  C_14
REMARK    7  A    between atoms: C_17  and  C_21
REMARK                            x       y       z     vdW  Elec       q    Type
REMARK                         _______ _______ _______ _____ _____    ______ ____
ROOT
ATOM      4  N   UNL     1      -3.912   4.310  25.439  0.00  0.00    -0.297 NA
ATOM      8  C   UNL     1      -1.639   4.130  25.984  0.00  0.00    +0.092 C 
ATOM      9  C   UNL     1      -1.817   5.157  24.853  0.00  0.00    +0.029 C 
ATOM     10  C   UNL     1      -2.965   3.357  26.020  0.00  0.00    +0.097 C 
ATOM     11  C   UNL     1      -3.210   4.892  24.296  0.00  0.00    +0.085 C 
ENDROOT
BRANCH   8  13
ATOM      1  O   UNL     1      -0.262   2.620  24.635  0.00  0.00    -0.420 OA
ATOM      5  N   UNL     1       0.495   2.929  26.717  0.00  0.00    -0.112 NA
ATOM      6  N   UNL     1       1.359   2.064  26.073  0.00  0.00    -0.107 NA
ATOM     13  C   UNL     1      -0.435   3.228  25.841  0.00  0.00    +0.222 A 
ATOM     17  C   UNL     1       0.878   1.912  24.861  0.00  0.00    +0.250 A 
BRANCH  17  21
ATOM      7  N   UNL     1       0.913  -0.511  22.041  0.00  0.00    -0.263 NA
ATOM     21  C   UNL     1       1.359   1.130  23.759  0.00  0.00    +0.057 A 
ATOM     22  C   UNL     1       2.679   1.228  23.333  0.00  0.00    +0.016 A 
ATOM     23  C   UNL     1       0.524   0.254  23.085  0.00  0.00    +0.124 A 
ATOM     24  C   UNL     1       3.117   0.457  22.262  0.00  0.00    +0.020 A 
ATOM     26  C   UNL     1       2.203  -0.389  21.655  0.00  0.00    +0.111 A 
ENDBRANCH  17  21
ENDBRANCH   8  13
BRANCH   4  12
ATOM     12  C   UNL     1      -5.168   3.681  25.056  0.00  0.00    +0.123 C 
BRANCH  12  14
ATOM     14  C   UNL     1      -4.992   2.215  24.760  0.00  0.00    +0.008 A 
ATOM     15  C   UNL     1      -5.764   1.256  25.418  0.00  0.00    +0.125 A 
ATOM     16  C   UNL     1      -4.047   1.820  23.813  0.00  0.00    +0.012 A 
ATOM     18  C   UNL     1      -5.589  -0.097  25.130  0.00  0.00    +0.091 A 
ATOM     19  C   UNL     1      -3.872   0.466  23.525  0.00  0.00    +0.046 A 
ATOM     20  C   UNL     1      -4.643  -0.493  24.185  0.00  0.00    +0.124 A 
BRANCH  15   2
ATOM      2  O   UNL     1      -6.691   1.627  26.345  0.00  0.00    -0.506 OA
ATOM     27  H   UNL     1      -7.510   1.885  25.889  0.00  0.00    +0.292 HD
ENDBRANCH  15   2
BRANCH  20   3
ATOM      3  O   UNL     1      -4.472  -1.813  23.904  0.00  0.00    -0.495 OA
ATOM     25  C   UNL     1      -3.480  -2.514  24.654  0.00  0.00    +0.277 C 
ENDBRANCH  20   3
ENDBRANCH  12  14
ENDBRANCH   4  12
TORSDOF 6
ENDMDL
MODEL 7
REMARK VINA RESULT:      -0.8      2.688      6.236
REMARK  Name = 51137334
REMARK  7 active torsions:
REMARK  status: ('A' for Active; 'I' for Inactive)
REMARK    1  A    between atoms: O_2  and  C_15
REMARK    2  A    between atoms: O_3  and  C_20
REMARK    3  A    between atoms: O_3  and  C_25
REMARK    4  A    between atoms: N_4  and  C_12
REMARK    5  A    between atoms: C_8  and  C_13
REMARK    6  A    between atoms: C_12  and  C_14
REMARK    7  A    between atoms: C_17  and  C_21
REMARK                            x       y       z     vdW  Elec       q    Type
REMARK                         _______ _______ _______ _____ _____    ______ ____
ROOT
ATOM      4  N   UNL     1      -3.363  -2.215  24.908  0.00  0.00    -0.297 NA
ATOM      8  C   UNL     1      -4.706  -0.342  25.337  0.00  0.00    +0.092 C 
ATOM      9  C   UNL     1      -5.121  -0.976  23.999  0.00  0.00    +0.029 C 
ATOM     10  C   UNL     1      -3.332  -0.952  25.648  0.00  0.00    +0.097 C 
ATOM     11  C   UNL     1      -3.956  -1.880  23.614  0.00  0.00    +0.085 C 
ENDROOT
BRANCH   8  13
ATOM      1  O   UNL     1      -3.491   1.777  25.175  0.00  0.00    -0.420 OA
ATOM      5  N   UNL     1      -5.691   2.011  25.503  0.00  0.00    -0.112 NA
ATOM      6  N   UNL     1      -5.134   3.274  25.430  0.00  0.00    -0.107 NA
ATOM     13  C   UNL     1      -4.696   1.170  25.348  0.00  0.00    +0.222 A 
ATOM     17  C   UNL     1      -3.848   3.089  25.239  0.00  0.00    +0.250 A 
BRANCH  17  21
ATOM      7  N   UNL     1      -0.436   4.461  24.692  0.00  0.00    -0.263 NA
ATOM     21  C   UNL     1      -2.783   4.038  25.088  0.00  0.00    +0.057 A 
ATOM     22  C   UNL     1      -3.021   5.404  25.184  0.00  0.00    +0.016 A 
ATOM     23  C   UNL     1      -1.485   3.622  24.843  0.00  0.00    +0.124 A 
ATOM     24  C   UNL     1      -1.968   6.300  25.034  0.00  0.00    +0.020 A 
ATOM     26  C   UNL     1      -0.706   5.782  24.791  0.00  0.00    +0.111 A 
ENDBRANCH  17  21
ENDBRANCH   8  13
BRANCH   4  12
ATOM     12  C   UNL     1      -2.042  -2.811  24.774  0.00  0.00    +0.123 C 
BRANCH  12  14
ATOM     14  C   UNL     1      -1.015  -1.804  24.326  0.00  0.00    +0.008 A 
ATOM     15  C   UNL     1      -0.531  -0.838  25.208  0.00  0.00    +0.125 A 
ATOM     16  C   UNL     1      -0.548  -1.848  23.012  0.00  0.00    +0.012 A 
ATOM     18  C   UNL     1       0.421   0.085  24.776  0.00  0.00    +0.091 A 
ATOM     19  C   UNL     1       0.404  -0.923  22.580  0.00  0.00    +0.046 A 
ATOM     20  C   UNL     1       0.888   0.044  23.462  0.00  0.00    +0.124 A 
BRANCH  15   2
ATOM      2  O   UNL     1      -0.977  -0.783  26.494  0.00  0.00    -0.506 OA
ATOM     27  H   UNL     1      -0.213  -0.776  27.095  0.00  0.00    +0.292 HD
ENDBRANCH  15   2
BRANCH  20   3
ATOM      3  O   UNL     1       1.816   0.945  23.040  0.00  0.00    -0.495 OA
ATOM     25  C   UNL     1       3.082   0.429  22.628  0.00  0.00    +0.277 C 
ENDBRANCH  20   3
ENDBRANCH  12  14
ENDBRANCH   4  12
TORSDOF 6
ENDMDL
MODEL 8
REMARK VINA RESULT:      -0.8      2.629      4.965
REMARK  Name = 51137334
REMARK  7 active torsions:
REMARK  status: ('A' for Active; 'I' for Inactive)
REMARK    1  A    between atoms: O_2  and  C_15
REMARK    2  A    between atoms: O_3  and  C_20
REMARK    3  A    between atoms: O_3  and  C_25
REMARK    4  A    between atoms: N_4  and  C_12
REMARK    5  A    between atoms: C_8  and  C_13
REMARK    6  A    between atoms: C_12  and  C_14
REMARK    7  A    between atoms: C_17  and  C_21
REMARK                            x       y       z     vdW  Elec       q    Type
REMARK                         _______ _______ _______ _____ _____    ______ ____
ROOT
ATOM      4  N   UNL     1      -1.562  -2.739  24.334  0.00  0.00    -0.297 NA
ATOM      8  C   UNL     1       0.119  -1.189  23.817  0.00  0.00    +0.092 C 
ATOM      9  C   UNL     1       0.543  -2.018  25.041  0.00  0.00    +0.029 C 
ATOM     10  C   UNL     1      -1.389  -1.441  23.679  0.00  0.00    +0.097 C 
ATOM     11  C   UNL     1      -0.742  -2.665  25.542  0.00  0.00    +0.085 C 
ENDROOT
BRANCH   8  13
ATOM      1  O   UNL     1      -0.508   1.120  24.338  0.00  0.00    -0.420 OA
ATOM      5  N   UNL     1       1.587   0.891  23.589  0.00  0.00    -0.112 NA
ATOM      6  N   UNL     1       1.368   2.232  23.843  0.00  0.00    -0.107 NA
ATOM     13  C   UNL     1       0.466   0.280  23.893  0.00  0.00    +0.222 A 
ATOM     17  C   UNL     1       0.133   2.319  24.278  0.00  0.00    +0.250 A 
BRANCH  17  21
ATOM      7  N   UNL     1      -0.933   5.859  24.674  0.00  0.00    -0.263 NA
ATOM     21  C   UNL     1      -0.631   3.460  24.692  0.00  0.00    +0.057 A 
ATOM     22  C   UNL     1      -1.766   3.315  25.481  0.00  0.00    +0.016 A 
ATOM     23  C   UNL     1      -0.260   4.742  24.318  0.00  0.00    +0.124 A 
ATOM     24  C   UNL     1      -2.485   4.441  25.868  0.00  0.00    +0.020 A 
ATOM     26  C   UNL     1      -2.032   5.678  25.441  0.00  0.00    +0.111 A 
ENDBRANCH  17  21
ENDBRANCH   8  13
BRANCH   4  12
ATOM     12  C   UNL     1      -2.958  -3.030  24.629  0.00  0.00    +0.123 C 
BRANCH  12  14
ATOM     14  C   UNL     1      -3.778  -1.773  24.754  0.00  0.00    +0.008 A 
ATOM     15  C   UNL     1      -3.679  -0.967  25.889  0.00  0.00    +0.125 A 
ATOM     16  C   UNL     1      -4.643  -1.418  23.719  0.00  0.00    +0.012 A 
ATOM     18  C   UNL     1      -4.445   0.194  25.988  0.00  0.00    +0.091 A 
ATOM     19  C   UNL     1      -5.409  -0.256  23.818  0.00  0.00    +0.046 A 
ATOM     20  C   UNL     1      -5.311   0.549  24.953  0.00  0.00    +0.124 A 
BRANCH  15   2
ATOM      2  O   UNL     1      -2.840  -1.300  26.908  0.00  0.00    -0.506 OA
ATOM     27  H   UNL     1      -2.941  -0.653  27.627  0.00  0.00    +0.292 HD
ENDBRANCH  15   2
BRANCH  20   3
ATOM      3  O   UNL     1      -6.059   1.683  25.050  0.00  0.00    -0.495 OA
ATOM     25  C   UNL     1      -5.558   2.721  25.891  0.00  0.00    +0.277 C 
ENDBRANCH  20   3
ENDBRANCH  12  14
ENDBRANCH   4  12
TORSDOF 6
ENDMDL
MODEL 9
REMARK VINA RESULT:      -0.4     15.718     18.600
REMARK  Name = 51137334
REMARK  7 active torsions:
REMARK  status: ('A' for Active; 'I' for Inactive)
REMARK    1  A    between atoms: O_2  and  C_15
REMARK    2  A    between atoms: O_3  and  C_20
REMARK    3  A    between atoms: O_3  and  C_25
REMARK    4  A    between atoms: N_4  and  C_12
REMARK    5  A    between atoms: C_8  and  C_13
REMARK    6  A    between atoms: C_12  and  C_14
REMARK    7  A    between atoms: C_17  and  C_21
REMARK                            x       y       z     vdW  Elec       q    Type
REMARK                         _______ _______ _______ _____ _____    ______ ____
ROOT
ATOM      4  N   UNL     1      -2.187  -9.594  11.652  0.00  0.00    -0.297 NA
ATOM      8  C   UNL     1      -4.500  -9.256  11.473  0.00  0.00    +0.092 C 
ATOM      9  C   UNL     1      -4.218 -10.339  12.529  0.00  0.00    +0.029 C 
ATOM     10  C   UNL     1      -3.186  -9.125  10.690  0.00  0.00    +0.097 C 
ATOM     11  C   UNL     1      -2.782 -10.778  12.269  0.00  0.00    +0.085 C 
ENDROOT
BRANCH   8  13
ATOM      1  O   UNL     1      -6.511  -8.478  10.313  0.00  0.00    -0.420 OA
ATOM      5  N   UNL     1      -6.072 -10.651  10.018  0.00  0.00    -0.112 NA
ATOM      6  N   UNL     1      -7.222 -10.349   9.314  0.00  0.00    -0.107 NA
ATOM     13  C   UNL     1      -5.691  -9.530  10.584  0.00  0.00    +0.222 A 
ATOM     17  C   UNL     1      -7.441  -9.070   9.515  0.00  0.00    +0.250 A 
BRANCH  17  21
ATOM      7  N   UNL     1      -9.245  -5.990   8.476  0.00  0.00    -0.263 NA
ATOM     21  C   UNL     1      -8.488  -8.218   9.032  0.00  0.00    +0.057 A 
ATOM     22  C   UNL     1      -9.723  -8.738   8.661  0.00  0.00    +0.016 A 
ATOM     23  C   UNL     1      -8.302  -6.849   8.922  0.00  0.00    +0.124 A 
ATOM     24  C   UNL     1     -10.719  -7.886   8.197  0.00  0.00    +0.020 A 
ATOM     26  C   UNL     1     -10.432  -6.533   8.124  0.00  0.00    +0.111 A 
ENDBRANCH  17  21
ENDBRANCH   8  13
BRANCH   4  12
ATOM     12  C   UNL     1      -0.906  -9.881  11.024  0.00  0.00    +0.123 C 
BRANCH  12  14
ATOM     14  C   UNL     1       0.131  -8.842  11.362  0.00  0.00    +0.008 A 
ATOM     15  C   UNL     1       1.415  -8.914  10.822  0.00  0.00    +0.125 A 
ATOM     16  C   UNL     1      -0.207  -7.799  12.225  0.00  0.00    +0.012 A 
ATOM     18  C   UNL     1       2.362  -7.942  11.145  0.00  0.00    +0.091 A 
ATOM     19  C   UNL     1       0.741  -6.827  12.548  0.00  0.00    +0.046 A 
ATOM     20  C   UNL     1       2.026  -6.900  12.008  0.00  0.00    +0.124 A 
BRANCH  15   2
ATOM      2  O   UNL     1       1.760  -9.926   9.978  0.00  0.00    -0.506 OA
ATOM     27  H   UNL     1       2.720 -10.074  10.035  0.00  0.00    +0.292 HD
ENDBRANCH  15   2
BRANCH  20   3
ATOM      3  O   UNL     1       2.950  -5.951  12.324  0.00  0.00    -0.495 OA
ATOM     25  C   UNL     1       4.300  -6.387  12.478  0.00  0.00    +0.277 C 
ENDBRANCH  20   3
ENDBRANCH  12  14
ENDBRANCH   4  12
TORSDOF 6
ENDMDL
MODEL 10
REMARK VINA RESULT:      -0.2      2.385      4.728
REMARK  Name = 51137334
REMARK  7 active torsions:
REMARK  status: ('A' for Active; 'I' for Inactive)
REMARK    1  A    between atoms: O_2  and  C_15
REMARK    2  A    between atoms: O_3  and  C_20
REMARK    3  A    between atoms: O_3  and  C_25
REMARK    4  A    between atoms: N_4  and  C_12
REMARK    5  A    between atoms: C_8  and  C_13
REMARK    6  A    between atoms: C_12  and  C_14
REMARK    7  A    between atoms: C_17  and  C_21
REMARK                            x       y       z     vdW  Elec       q    Type
REMARK                         _______ _______ _______ _____ _____    ______ ____
ROOT
ATOM      4  N   UNL     1      -4.748   2.716  25.750  0.00  0.00    -0.297 NA
ATOM      8  C   UNL     1      -2.721   3.884  25.585  0.00  0.00    +0.092 C 
ATOM      9  C   UNL     1      -3.798   4.603  24.755  0.00  0.00    +0.029 C 
ATOM     10  C   UNL     1      -3.305   2.490  25.857  0.00  0.00    +0.097 C 
ATOM     11  C   UNL     1      -4.910   3.577  24.579  0.00  0.00    +0.085 C 
ENDROOT
BRANCH   8  13
ATOM      1  O   UNL     1      -0.894   2.610  24.569  0.00  0.00    -0.420 OA
ATOM      5  N   UNL     1      -0.514   4.812  24.689  0.00  0.00    -0.112 NA
ATOM      6  N   UNL     1       0.587   4.220  24.100  0.00  0.00    -0.107 NA
ATOM     13  C   UNL     1      -1.353   3.835  24.946  0.00  0.00    +0.222 A 
ATOM     17  C   UNL     1       0.322   2.935  24.050  0.00  0.00    +0.250 A 
BRANCH  17  21
ATOM      7  N   UNL     1       1.194  -0.458  22.807  0.00  0.00    -0.263 NA
ATOM     21  C   UNL     1       1.100   1.843  23.543  0.00  0.00    +0.057 A 
ATOM     22  C   UNL     1       2.460   1.986  23.294  0.00  0.00    +0.016 A 
ATOM     23  C   UNL     1       0.520   0.611  23.285  0.00  0.00    +0.124 A 
ATOM     24  C   UNL     1       3.189   0.908  22.803  0.00  0.00    +0.020 A 
ATOM     26  C   UNL     1       2.515  -0.281  22.578  0.00  0.00    +0.111 A 
ENDBRANCH  17  21
ENDBRANCH   8  13
BRANCH   4  12
ATOM     12  C   UNL     1      -5.497   1.474  25.633  0.00  0.00    +0.123 C 
BRANCH  12  14
ATOM     14  C   UNL     1      -4.609   0.318  25.254  0.00  0.00    +0.008 A 
ATOM     15  C   UNL     1      -3.973   0.283  24.013  0.00  0.00    +0.125 A 
ATOM     16  C   UNL     1      -4.425  -0.725  26.162  0.00  0.00    +0.012 A 
ATOM     18  C   UNL     1      -3.153  -0.795  23.679  0.00  0.00    +0.091 A 
ATOM     19  C   UNL     1      -3.605  -1.804  25.828  0.00  0.00    +0.046 A 
ATOM     20  C   UNL     1      -2.970  -1.839  24.586  0.00  0.00    +0.124 A 
BRANCH  15   2
ATOM      2  O   UNL     1      -4.143   1.294  23.116  0.00  0.00    -0.506 OA
ATOM     27  H   UNL     1      -4.925   1.105  22.569  0.00  0.00    +0.292 HD
ENDBRANCH  15   2
BRANCH  20   3
ATOM      3  O   UNL     1      -2.170  -2.891  24.260  0.00  0.00    -0.495 OA
ATOM     25  C   UNL     1      -0.792  -2.794  24.620  0.00  0.00    +0.277 C 
ENDBRANCH  20   3
ENDBRANCH  12  14
ENDBRANCH   4  12
TORSDOF 6
ENDMDL
