MODEL 1
REMARK VINA RESULT:      -2.9      0.000      0.000
REMARK  Name = 71693479
REMARK  11 active torsions:
REMARK  status: ('A' for Active; 'I' for Inactive)
REMARK    1  A    between atoms: O_2  and  C_12
REMARK    2  A    between atoms: N_6  and  C_15
REMARK    3  A    between atoms: N_7  and  C_23
REMARK    4  A    between atoms: N_7  and  C_24
REMARK    5  A    between atoms: N_8  and  C_22
REMARK    6  A    between atoms: N_9  and  C_26
REMARK    7  A    between atoms: C_10  and  C_12
REMARK    8  A    between atoms: C_11  and  C_13
REMARK    9  A    between atoms: C_15  and  C_19
REMARK   10  A    between atoms: C_26  and  C_27
REMARK   11  A    between atoms: C_26  and  C_28
REMARK                            x       y       z     vdW  Elec       q    Type
REMARK                         _______ _______ _______ _____ _____    ______ ____
ROOT
ATOM      1  O   UNL     1      -5.687  -9.814  12.624  0.00  0.00    -0.361 OA
ATOM      3  O   UNL     1      -9.155 -10.298  11.969  0.00  0.00    -0.273 OA
ATOM      6  N   UNL     1      -7.396 -10.092  10.455  0.00  0.00    -0.283 N 
ATOM     10  C   UNL     1      -5.948  -9.858  10.237  0.00  0.00    +0.135 C 
ATOM     11  C   UNL     1      -5.115 -10.359  11.433  0.00  0.00    +0.171 C 
ATOM     14  C   UNL     1      -7.948 -10.229  11.730  0.00  0.00    +0.242 C 
ATOM     16  C   UNL     1      -6.957 -10.369  12.869  0.00  0.00    +0.256 C 
ENDROOT
BRANCH  11  13
ATOM     13  C   UNL     1      -3.663  -9.932  11.403  0.00  0.00    -0.017 A 
ATOM     17  C   UNL     1      -3.242  -8.949  10.505  0.00  0.00    +0.008 A 
ATOM     18  C   UNL     1      -2.745 -10.519  12.273  0.00  0.00    +0.008 A 
ATOM     20  C   UNL     1      -1.905  -8.556  10.478  0.00  0.00    +0.024 A 
ATOM     21  C   UNL     1      -1.408 -10.126  12.246  0.00  0.00    +0.024 A 
ATOM     22  C   UNL     1      -0.988  -9.144  11.350  0.00  0.00    +0.035 A 
BRANCH  22   8
ATOM      5  O   UNL     1       0.438  -6.997  12.887  0.00  0.00    -0.253 OA
ATOM      8  N   UNL     1       0.351  -8.750  11.322  0.00  0.00    -0.269 N 
ATOM      9  N   UNL     1       2.340  -7.650  11.747  0.00  0.00    -0.297 N 
ATOM     25  C   UNL     1       0.981  -7.732  12.065  0.00  0.00    +0.304 C 
ATOM     30  H   UNL     1       0.948  -9.268  10.683  0.00  0.00    +0.156 HD
ATOM     31  H   UNL     1       2.698  -8.241  11.003  0.00  0.00    +0.151 HD
BRANCH   9  26
ATOM     26  C   UNL     1       3.236  -6.694  12.356  0.00  0.00    +0.068 C 
ATOM     27  C   UNL     1       4.678  -6.985  11.960  0.00  0.00    +0.027 C 
ATOM     28  C   UNL     1       2.835  -5.275  11.975  0.00  0.00    +0.027 C 
ENDBRANCH   9  26
ENDBRANCH  22   8
ENDBRANCH  11  13
BRANCH  10  12
ATOM     12  C   UNL     1      -5.441 -10.483   8.929  0.00  0.00    +0.181 C 
BRANCH  12   2
ATOM      2  O   UNL     1      -4.909  -9.452   8.124  0.00  0.00    -0.393 OA
ATOM     29  H   UNL     1      -4.557  -9.867   7.318  0.00  0.00    +0.209 HD
ENDBRANCH  12   2
ENDBRANCH  10  12
BRANCH   6  15
ATOM     15  C   UNL     1      -8.296  -9.935   9.317  0.00  0.00    +0.204 C 
BRANCH  15  19
ATOM      4  O   UNL     1      -7.417  -7.906   8.394  0.00  0.00    -0.274 OA
ATOM      7  N   UNL     1      -9.597  -7.836   9.184  0.00  0.00    -0.306 N 
ATOM     19  C   UNL     1      -8.379  -8.473   8.917  0.00  0.00    +0.232 C 
ATOM     23  C   UNL     1     -10.719  -8.527   9.805  0.00  0.00    +0.131 C 
ATOM     24  C   UNL     1      -9.832  -6.431   8.861  0.00  0.00    +0.131 C 
ENDBRANCH  15  19
ENDBRANCH   6  15
TORSDOF 7
ENDMDL
