MODEL 1
REMARK VINA RESULT:       4.7      0.000      0.000
REMARK  Name = 38026862
REMARK  13 active torsions:
REMARK  status: ('A' for Active; 'I' for Inactive)
REMARK    1  A    between atoms: S_1  and  N_7
REMARK    2  A    between atoms: S_1  and  C_27
REMARK    3  A    between atoms: O_6  and  C_34
REMARK    4  A    between atoms: O_6  and  C_35
REMARK    5  A    between atoms: N_7  and  C_17
REMARK    6  A    between atoms: C_10  and  C_14
REMARK    7  A    between atoms: C_11  and  C_17
REMARK    8  A    between atoms: C_13  and  C_18
REMARK    9  A    between atoms: C_14  and  C_19
REMARK   10  A    between atoms: C_14  and  C_20
REMARK   11  A    between atoms: C_15  and  C_21
REMARK   12  A    between atoms: C_18  and  C_22
REMARK   13  A    between atoms: C_28  and  C_31
REMARK                            x       y       z     vdW  Elec       q    Type
REMARK                         _______ _______ _______ _____ _____    ______ ____
ROOT
ATOM     10  C   UNL     1      -2.465  -1.325  24.230  0.00  0.00    +0.000 C 
ATOM     11  C   UNL     1      -3.193  -0.581  25.376  0.00  0.00    +0.030 C 
ATOM     12  C   UNL     1      -0.951  -1.363  24.489  0.00  0.00    +0.012 C 
ATOM     13  C   UNL     1      -0.347   0.049  24.616  0.00  0.00    +0.023 C 
ATOM     15  C   UNL     1      -1.169   0.934  25.530  0.00  0.00    -0.073 C 
ATOM     16  C   UNL     1      -2.435   0.629  25.870  0.00  0.00    -0.023 C 
ATOM     21  C   UNL     1      -0.488   2.155  26.083  0.00  0.00    +0.039 C 
ENDROOT
BRANCH  10  14
ATOM     14  C   UNL     1      -2.996  -2.751  24.051  0.00  0.00    -0.013 C 
ATOM     19  C   UNL     1      -3.165  -3.430  25.406  0.00  0.00    +0.007 C 
ATOM     20  C   UNL     1      -4.316  -2.735  23.286  0.00  0.00    +0.007 C 
ENDBRANCH  10  14
BRANCH  11  17
ATOM     17  C   UNL     1      -4.605  -0.161  24.956  0.00  0.00    +0.113 C 
BRANCH  17   7
ATOM      7  N   UNL     1      -5.230   0.593  26.054  0.00  0.00    -0.189 NA
ATOM     36  H   UNL     1      -5.602   0.034  26.833  0.00  0.00    +0.148 HD
BRANCH   7   1
ATOM      1  S   UNL     1      -5.969   2.097  25.751  0.00  0.00    +0.058 S 
ATOM      3  O   UNL     1      -6.652   2.546  26.949  0.00  0.00    -0.153 OA
ATOM      4  O   UNL     1      -6.679   2.031  24.487  0.00  0.00    -0.153 OA
BRANCH   1  27
ATOM     27  C   UNL     1      -4.566   3.143  25.499  0.00  0.00    +0.105 A 
ATOM     29  C   UNL     1      -4.021   3.283  24.223  0.00  0.00    +0.032 A 
ATOM     30  C   UNL     1      -4.002   3.825  26.577  0.00  0.00    +0.032 A 
ATOM     32  C   UNL     1      -2.912   4.106  24.025  0.00  0.00    +0.047 A 
ATOM     33  C   UNL     1      -2.893   4.648  26.378  0.00  0.00    +0.047 A 
ATOM     34  C   UNL     1      -2.349   4.788  25.102  0.00  0.00    +0.120 A 
BRANCH  34   6
ATOM      6  O   UNL     1      -1.267   5.590  24.908  0.00  0.00    -0.495 OA
ATOM     35  C   UNL     1      -0.198   5.062  24.124  0.00  0.00    +0.277 C 
ENDBRANCH  34   6
ENDBRANCH   1  27
ENDBRANCH   7   1
ENDBRANCH  17   7
ENDBRANCH  11  17
BRANCH  13  18
ATOM     18  C   UNL     1      -0.169   0.699  23.238  0.00  0.00    +0.103 C 
BRANCH  18  22
ATOM      2  O   UNL     1       0.342  -0.997  21.664  0.00  0.00    -0.276 OA
ATOM      5  O   UNL     1       6.600   1.223  24.308  0.00  0.00    -0.276 OA
ATOM      8  N   UNL     1       2.142   0.183  22.538  0.00  0.00    -0.298 N 
ATOM      9  N   UNL     1       4.805   0.000  23.485  0.00  0.00    -0.299 N 
ATOM     22  C   UNL     1       0.786  -0.118  22.406  0.00  0.00    +0.216 C 
ATOM     23  C   UNL     1       3.135  -0.567  21.765  0.00  0.00    +0.126 C 
ATOM     24  C   UNL     1       2.697   1.270  23.353  0.00  0.00    +0.126 C 
ATOM     25  C   UNL     1       4.250  -1.088  22.669  0.00  0.00    +0.126 C 
ATOM     26  C   UNL     1       3.811   0.750  24.257  0.00  0.00    +0.126 C 
ATOM     28  C   UNL     1       6.160   0.303  23.615  0.00  0.00    +0.213 C 
ATOM     31  C   UNL     1       7.121  -0.566  22.844  0.00  0.00    +0.109 C 
ENDBRANCH  18  22
ENDBRANCH  13  18
TORSDOF 8
ENDMDL
MODEL 2
REMARK VINA RESULT:       5.0      2.112      7.434
REMARK  Name = 38026862
REMARK  13 active torsions:
REMARK  status: ('A' for Active; 'I' for Inactive)
REMARK    1  A    between atoms: S_1  and  N_7
REMARK    2  A    between atoms: S_1  and  C_27
REMARK    3  A    between atoms: O_6  and  C_34
REMARK    4  A    between atoms: O_6  and  C_35
REMARK    5  A    between atoms: N_7  and  C_17
REMARK    6  A    between atoms: C_10  and  C_14
REMARK    7  A    between atoms: C_11  and  C_17
REMARK    8  A    between atoms: C_13  and  C_18
REMARK    9  A    between atoms: C_14  and  C_19
REMARK   10  A    between atoms: C_14  and  C_20
REMARK   11  A    between atoms: C_15  and  C_21
REMARK   12  A    between atoms: C_18  and  C_22
REMARK   13  A    between atoms: C_28  and  C_31
REMARK                            x       y       z     vdW  Elec       q    Type
REMARK                         _______ _______ _______ _____ _____    ______ ____
ROOT
ATOM     10  C   UNL     1      -1.891  -0.934  25.235  0.00  0.00    +0.000 C 
ATOM     11  C   UNL     1      -1.546  -2.321  24.639  0.00  0.00    +0.030 C 
ATOM     12  C   UNL     1      -3.279  -0.963  25.894  0.00  0.00    +0.012 C 
ATOM     13  C   UNL     1      -4.389  -1.357  24.900  0.00  0.00    +0.023 C 
ATOM     15  C   UNL     1      -4.003  -2.570  24.079  0.00  0.00    -0.073 C 
ATOM     16  C   UNL     1      -2.730  -2.995  23.985  0.00  0.00    -0.023 C 
ATOM     21  C   UNL     1      -5.122  -3.315  23.405  0.00  0.00    +0.039 C 
ENDROOT
BRANCH  10  14
ATOM     14  C   UNL     1      -0.843  -0.475  26.253  0.00  0.00    -0.013 C 
ATOM     19  C   UNL     1      -0.749   1.048  26.272  0.00  0.00    +0.007 C 
ATOM     20  C   UNL     1      -1.178  -1.013  27.640  0.00  0.00    +0.007 C 
ENDBRANCH  10  14
BRANCH  11  17
ATOM     17  C   UNL     1      -0.396  -2.220  23.632  0.00  0.00    +0.113 C 
BRANCH  17   7
ATOM      7  N   UNL     1       0.501  -1.125  24.033  0.00  0.00    -0.189 NA
ATOM     36  H   UNL     1       0.391  -0.777  24.994  0.00  0.00    +0.148 HD
BRANCH   7   1
ATOM      1  S   UNL     1       1.089  -0.028  22.870  0.00  0.00    +0.058 S 
ATOM      3  O   UNL     1       0.634   1.309  23.200  0.00  0.00    -0.153 OA
ATOM      4  O   UNL     1       0.858  -0.572  21.545  0.00  0.00    -0.153 OA
BRANCH   1  27
ATOM     27  C   UNL     1       2.832  -0.097  23.158  0.00  0.00    +0.105 A 
ATOM     29  C   UNL     1       3.410  -1.266  23.652  0.00  0.00    +0.032 A 
ATOM     30  C   UNL     1       3.627   1.017  22.895  0.00  0.00    +0.032 A 
ATOM     32  C   UNL     1       4.785  -1.320  23.883  0.00  0.00    +0.047 A 
ATOM     33  C   UNL     1       5.002   0.963  23.126  0.00  0.00    +0.047 A 
ATOM     34  C   UNL     1       5.581  -0.206  23.619  0.00  0.00    +0.120 A 
BRANCH  34   6
ATOM      6  O   UNL     1       6.922  -0.259  23.845  0.00  0.00    -0.495 OA
ATOM     35  C   UNL     1       7.750  -0.646  22.750  0.00  0.00    +0.277 C 
ENDBRANCH  34   6
ENDBRANCH   1  27
ENDBRANCH   7   1
ENDBRANCH  17   7
ENDBRANCH  11  17
BRANCH  13  18
ATOM     18  C   UNL     1      -4.762  -0.178  23.994  0.00  0.00    +0.103 C 
BRANCH  18  22
ATOM      2  O   UNL     1      -6.133   1.183  25.367  0.00  0.00    -0.276 OA
ATOM      5  O   UNL     1      -0.249   5.006  24.007  0.00  0.00    -0.276 OA
ATOM      8  N   UNL     1      -3.988   1.967  24.943  0.00  0.00    -0.298 N 
ATOM      9  N   UNL     1      -2.415   4.254  24.376  0.00  0.00    -0.299 N 
ATOM     22  C   UNL     1      -5.030   1.047  24.831  0.00  0.00    +0.216 C 
ATOM     23  C   UNL     1      -4.169   3.184  25.736  0.00  0.00    +0.126 C 
ATOM     24  C   UNL     1      -2.642   1.799  24.380  0.00  0.00    +0.126 C 
ATOM     25  C   UNL     1      -3.762   4.421  24.939  0.00  0.00    +0.126 C 
ATOM     26  C   UNL     1      -2.234   3.035  23.583  0.00  0.00    +0.126 C 
ATOM     28  C   UNL     1      -1.372   5.171  24.489  0.00  0.00    +0.213 C 
ATOM     31  C   UNL     1      -1.665   6.433  25.259  0.00  0.00    +0.109 C 
ENDBRANCH  18  22
ENDBRANCH  13  18
TORSDOF 8
ENDMDL
MODEL 3
REMARK VINA RESULT:       5.1      2.325      7.336
REMARK  Name = 38026862
REMARK  13 active torsions:
REMARK  status: ('A' for Active; 'I' for Inactive)
REMARK    1  A    between atoms: S_1  and  N_7
REMARK    2  A    between atoms: S_1  and  C_27
REMARK    3  A    between atoms: O_6  and  C_34
REMARK    4  A    between atoms: O_6  and  C_35
REMARK    5  A    between atoms: N_7  and  C_17
REMARK    6  A    between atoms: C_10  and  C_14
REMARK    7  A    between atoms: C_11  and  C_17
REMARK    8  A    between atoms: C_13  and  C_18
REMARK    9  A    between atoms: C_14  and  C_19
REMARK   10  A    between atoms: C_14  and  C_20
REMARK   11  A    between atoms: C_15  and  C_21
REMARK   12  A    between atoms: C_18  and  C_22
REMARK   13  A    between atoms: C_28  and  C_31
REMARK                            x       y       z     vdW  Elec       q    Type
REMARK                         _______ _______ _______ _____ _____    ______ ____
ROOT
ATOM     10  C   UNL     1      -2.522   2.526  23.684  0.00  0.00    +0.000 C 
ATOM     11  C   UNL     1      -1.258   3.142  24.332  0.00  0.00    +0.030 C 
ATOM     12  C   UNL     1      -3.728   3.461  23.865  0.00  0.00    +0.012 C 
ATOM     13  C   UNL     1      -4.028   3.744  25.349  0.00  0.00    +0.023 C 
ATOM     15  C   UNL     1      -2.773   4.101  26.120  0.00  0.00    -0.073 C 
ATOM     16  C   UNL     1      -1.543   3.836  25.643  0.00  0.00    -0.023 C 
ATOM     21  C   UNL     1      -2.962   4.811  27.431  0.00  0.00    +0.039 C 
ENDROOT
BRANCH  10  14
ATOM     14  C   UNL     1      -2.313   2.232  22.195  0.00  0.00    -0.013 C 
ATOM     19  C   UNL     1      -2.530   0.749  21.910  0.00  0.00    +0.007 C 
ATOM     20  C   UNL     1      -3.248   3.087  21.347  0.00  0.00    +0.007 C 
ENDBRANCH  10  14
BRANCH  11  17
ATOM     17  C   UNL     1      -0.171   2.082  24.542  0.00  0.00    +0.113 C 
BRANCH  17   7
ATOM      7  N   UNL     1       0.369   1.680  23.233  0.00  0.00    -0.189 NA
ATOM     36  H   UNL     1       0.096   2.263  22.432  0.00  0.00    +0.148 HD
BRANCH   7   1
ATOM      1  S   UNL     1       0.732   0.046  22.921  0.00  0.00    +0.058 S 
ATOM      3  O   UNL     1       0.449  -0.251  21.529  0.00  0.00    -0.153 OA
ATOM      4  O   UNL     1       0.166  -0.777  23.972  0.00  0.00    -0.153 OA
BRANCH   1  27
ATOM     27  C   UNL     1       2.487   0.020  23.136  0.00  0.00    +0.105 A 
ATOM     29  C   UNL     1       3.112  -1.124  23.631  0.00  0.00    +0.032 A 
ATOM     30  C   UNL     1       3.246   1.144  22.812  0.00  0.00    +0.032 A 
ATOM     32  C   UNL     1       4.496  -1.144  23.803  0.00  0.00    +0.047 A 
ATOM     33  C   UNL     1       4.630   1.125  22.985  0.00  0.00    +0.047 A 
ATOM     34  C   UNL     1       5.255  -0.020  23.480  0.00  0.00    +0.120 A 
BRANCH  34   6
ATOM      6  O   UNL     1       6.605  -0.039  23.649  0.00  0.00    -0.495 OA
ATOM     35  C   UNL     1       7.368  -0.781  22.699  0.00  0.00    +0.277 C 
ENDBRANCH  34   6
ENDBRANCH   1  27
ENDBRANCH   7   1
ENDBRANCH  17   7
ENDBRANCH  11  17
BRANCH  13  18
ATOM     18  C   UNL     1      -4.754   2.562  26.001  0.00  0.00    +0.103 C 
BRANCH  18  22
ATOM      2  O   UNL     1      -6.247   1.703  24.372  0.00  0.00    -0.276 OA
ATOM      5  O   UNL     1      -1.071  -3.171  25.103  0.00  0.00    -0.276 OA
ATOM      8  N   UNL     1      -4.266   0.532  24.683  0.00  0.00    -0.298 N 
ATOM      9  N   UNL     1      -3.080  -2.037  24.841  0.00  0.00    -0.299 N 
ATOM     22  C   UNL     1      -5.162   1.567  24.945  0.00  0.00    +0.216 C 
ATOM     23  C   UNL     1      -4.589  -0.478  23.672  0.00  0.00    +0.126 C 
ATOM     24  C   UNL     1      -2.938   0.382  25.292  0.00  0.00    +0.126 C 
ATOM     25  C   UNL     1      -4.409  -1.887  24.232  0.00  0.00    +0.126 C 
ATOM     26  C   UNL     1      -2.757  -1.026  25.851  0.00  0.00    +0.126 C 
ATOM     28  C   UNL     1      -2.182  -3.069  24.578  0.00  0.00    +0.213 C 
ATOM     31  C   UNL     1      -2.624  -4.109  23.580  0.00  0.00    +0.109 C 
ENDBRANCH  18  22
ENDBRANCH  13  18
TORSDOF 8
ENDMDL
MODEL 4
REMARK VINA RESULT:       5.4      1.678      4.614
REMARK  Name = 38026862
REMARK  13 active torsions:
REMARK  status: ('A' for Active; 'I' for Inactive)
REMARK    1  A    between atoms: S_1  and  N_7
REMARK    2  A    between atoms: S_1  and  C_27
REMARK    3  A    between atoms: O_6  and  C_34
REMARK    4  A    between atoms: O_6  and  C_35
REMARK    5  A    between atoms: N_7  and  C_17
REMARK    6  A    between atoms: C_10  and  C_14
REMARK    7  A    between atoms: C_11  and  C_17
REMARK    8  A    between atoms: C_13  and  C_18
REMARK    9  A    between atoms: C_14  and  C_19
REMARK   10  A    between atoms: C_14  and  C_20
REMARK   11  A    between atoms: C_15  and  C_21
REMARK   12  A    between atoms: C_18  and  C_22
REMARK   13  A    between atoms: C_28  and  C_31
REMARK                            x       y       z     vdW  Elec       q    Type
REMARK                         _______ _______ _______ _____ _____    ______ ____
ROOT
ATOM     10  C   UNL     1      -2.215   3.644  24.894  0.00  0.00    +0.000 C 
ATOM     11  C   UNL     1      -3.426   3.935  23.974  0.00  0.00    +0.030 C 
ATOM     12  C   UNL     1      -0.967   3.329  24.055  0.00  0.00    +0.012 C 
ATOM     13  C   UNL     1      -1.178   2.118  23.127  0.00  0.00    +0.023 C 
ATOM     15  C   UNL     1      -2.493   2.204  22.379  0.00  0.00    -0.073 C 
ATOM     16  C   UNL     1      -3.480   3.033  22.764  0.00  0.00    -0.023 C 
ATOM     21  C   UNL     1      -2.629   1.350  21.149  0.00  0.00    +0.039 C 
ENDROOT
BRANCH  10  14
ATOM     14  C   UNL     1      -1.924   4.813  25.839  0.00  0.00    -0.013 C 
ATOM     19  C   UNL     1      -1.729   6.102  25.047  0.00  0.00    +0.007 C 
ATOM     20  C   UNL     1      -3.051   4.970  26.855  0.00  0.00    +0.007 C 
ENDBRANCH  10  14
BRANCH  11  17
ATOM     17  C   UNL     1      -4.745   3.834  24.746  0.00  0.00    +0.113 C 
BRANCH  17   7
ATOM      7  N   UNL     1      -4.668   2.704  25.687  0.00  0.00    -0.189 NA
ATOM     36  H   UNL     1      -3.735   2.490  26.061  0.00  0.00    +0.148 HD
BRANCH   7   1
ATOM      1  S   UNL     1      -5.779   1.418  25.576  0.00  0.00    +0.058 S 
ATOM      3  O   UNL     1      -6.615   1.608  24.406  0.00  0.00    -0.153 OA
ATOM      4  O   UNL     1      -6.382   1.198  26.876  0.00  0.00    -0.153 OA
BRANCH   1  27
ATOM     27  C   UNL     1      -4.710   0.045  25.265  0.00  0.00    +0.105 A 
ATOM     29  C   UNL     1      -3.775  -0.341  26.224  0.00  0.00    +0.032 A 
ATOM     30  C   UNL     1      -4.800  -0.650  24.059  0.00  0.00    +0.032 A 
ATOM     32  C   UNL     1      -2.929  -1.423  25.978  0.00  0.00    +0.047 A 
ATOM     33  C   UNL     1      -3.954  -1.732  23.813  0.00  0.00    +0.047 A 
ATOM     34  C   UNL     1      -3.019  -2.118  24.773  0.00  0.00    +0.120 A 
BRANCH  34   6
ATOM      6  O   UNL     1      -2.194  -3.173  24.533  0.00  0.00    -0.495 OA
ATOM     35  C   UNL     1      -0.868  -3.093  25.053  0.00  0.00    +0.277 C 
ENDBRANCH  34   6
ENDBRANCH   1  27
ENDBRANCH   7   1
ENDBRANCH  17   7
ENDBRANCH  11  17
BRANCH  13  18
ATOM     18  C   UNL     1      -1.076   0.801  23.906  0.00  0.00    +0.103 C 
BRANCH  18  22
ATOM      2  O   UNL     1      -0.737  -1.202  22.688  0.00  0.00    -0.276 OA
ATOM      5  O   UNL     1       5.756   1.551  23.848  0.00  0.00    -0.276 OA
ATOM      8  N   UNL     1       1.129   0.142  23.011  0.00  0.00    -0.298 N 
ATOM      9  N   UNL     1       3.904   0.176  23.582  0.00  0.00    -0.299 N 
ATOM     22  C   UNL     1      -0.221  -0.180  23.146  0.00  0.00    +0.216 C 
ATOM     23  C   UNL     1       2.027  -0.760  22.288  0.00  0.00    +0.126 C 
ATOM     24  C   UNL     1       1.758   1.384  23.479  0.00  0.00    +0.126 C 
ATOM     25  C   UNL     1       3.274  -1.067  23.114  0.00  0.00    +0.126 C 
ATOM     26  C   UNL     1       3.004   1.079  24.305  0.00  0.00    +0.126 C 
ATOM     28  C   UNL     1       5.252   0.500  23.446  0.00  0.00    +0.213 C 
ATOM     31  C   UNL     1       6.123  -0.518  22.756  0.00  0.00    +0.109 C 
ENDBRANCH  18  22
ENDBRANCH  13  18
TORSDOF 8
ENDMDL
MODEL 5
REMARK VINA RESULT:       8.3      2.738      6.725
REMARK  Name = 38026862
REMARK  13 active torsions:
REMARK  status: ('A' for Active; 'I' for Inactive)
REMARK    1  A    between atoms: S_1  and  N_7
REMARK    2  A    between atoms: S_1  and  C_27
REMARK    3  A    between atoms: O_6  and  C_34
REMARK    4  A    between atoms: O_6  and  C_35
REMARK    5  A    between atoms: N_7  and  C_17
REMARK    6  A    between atoms: C_10  and  C_14
REMARK    7  A    between atoms: C_11  and  C_17
REMARK    8  A    between atoms: C_13  and  C_18
REMARK    9  A    between atoms: C_14  and  C_19
REMARK   10  A    between atoms: C_14  and  C_20
REMARK   11  A    between atoms: C_15  and  C_21
REMARK   12  A    between atoms: C_18  and  C_22
REMARK   13  A    between atoms: C_28  and  C_31
REMARK                            x       y       z     vdW  Elec       q    Type
REMARK                         _______ _______ _______ _____ _____    ______ ____
ROOT
ATOM     10  C   UNL     1      -3.070   3.390  23.536  0.00  0.00    +0.000 C 
ATOM     11  C   UNL     1      -2.141   4.511  24.060  0.00  0.00    +0.030 C 
ATOM     12  C   UNL     1      -4.536   3.706  23.871  0.00  0.00    +0.012 C 
ATOM     13  C   UNL     1      -4.766   3.862  25.387  0.00  0.00    +0.023 C 
ATOM     15  C   UNL     1      -3.718   4.750  26.027  0.00  0.00    -0.073 C 
ATOM     16  C   UNL     1      -2.556   5.040  25.413  0.00  0.00    -0.023 C 
ATOM     21  C   UNL     1      -4.055   5.335  27.370  0.00  0.00    +0.039 C 
ENDROOT
BRANCH  10  14
ATOM     14  C   UNL     1      -2.917   3.183  22.026  0.00  0.00    -0.013 C 
ATOM     19  C   UNL     1      -2.489   1.750  21.725  0.00  0.00    +0.007 C 
ATOM     20  C   UNL     1      -4.220   3.519  21.308  0.00  0.00    +0.007 C 
ENDBRANCH  10  14
BRANCH  11  17
ATOM     17  C   UNL     1      -0.684   4.039  24.123  0.00  0.00    +0.113 C 
BRANCH  17   7
ATOM      7  N   UNL     1      -0.260   3.969  25.530  0.00  0.00    -0.189 NA
ATOM     36  H   UNL     1       0.215   4.801  25.903  0.00  0.00    +0.148 HD
BRANCH   7   1
ATOM      1  S   UNL     1       0.128   2.468  26.235  0.00  0.00    +0.058 S 
ATOM      3  O   UNL     1      -1.082   1.854  26.750  0.00  0.00    -0.153 OA
ATOM      4  O   UNL     1       1.286   2.630  27.093  0.00  0.00    -0.153 OA
BRANCH   1  27
ATOM     27  C   UNL     1       0.655   1.536  24.828  0.00  0.00    +0.105 A 
ATOM     29  C   UNL     1      -0.120   0.473  24.366  0.00  0.00    +0.032 A 
ATOM     30  C   UNL     1       1.847   1.862  24.183  0.00  0.00    +0.032 A 
ATOM     32  C   UNL     1       0.297  -0.265  23.258  0.00  0.00    +0.047 A 
ATOM     33  C   UNL     1       2.265   1.124  23.074  0.00  0.00    +0.047 A 
ATOM     34  C   UNL     1       1.489   0.062  22.612  0.00  0.00    +0.120 A 
BRANCH  34   6
ATOM      6  O   UNL     1       1.896  -0.658  21.531  0.00  0.00    -0.495 OA
ATOM     35  C   UNL     1       0.894  -1.042  20.591  0.00  0.00    +0.277 C 
ENDBRANCH  34   6
ENDBRANCH   1  27
ENDBRANCH   7   1
ENDBRANCH  17   7
ENDBRANCH  11  17
BRANCH  13  18
ATOM     18  C   UNL     1      -4.826   2.496  26.080  0.00  0.00    +0.103 C 
BRANCH  18  22
ATOM      2  O   UNL     1      -6.418   1.471  24.656  0.00  0.00    -0.276 OA
ATOM      5  O   UNL     1      -0.786  -2.926  24.846  0.00  0.00    -0.276 OA
ATOM      8  N   UNL     1      -4.320   0.480  24.747  0.00  0.00    -0.298 N 
ATOM      9  N   UNL     1      -2.904  -1.973  24.806  0.00  0.00    -0.299 N 
ATOM     22  C   UNL     1      -5.266   1.442  25.097  0.00  0.00    +0.216 C 
ATOM     23  C   UNL     1      -4.670  -0.580  23.800  0.00  0.00    +0.126 C 
ATOM     24  C   UNL     1      -2.921   0.461  25.196  0.00  0.00    +0.126 C 
ATOM     25  C   UNL     1      -4.303  -1.953  24.357  0.00  0.00    +0.126 C 
ATOM     26  C   UNL     1      -2.554  -0.912  25.754  0.00  0.00    +0.126 C 
ATOM     28  C   UNL     1      -1.956  -2.933  24.455  0.00  0.00    +0.213 C 
ATOM     31  C   UNL     1      -2.419  -4.033  23.535  0.00  0.00    +0.109 C 
ENDBRANCH  18  22
ENDBRANCH  13  18
TORSDOF 8
ENDMDL
MODEL 6
REMARK VINA RESULT:       8.4      1.940      3.355
REMARK  Name = 38026862
REMARK  13 active torsions:
REMARK  status: ('A' for Active; 'I' for Inactive)
REMARK    1  A    between atoms: S_1  and  N_7
REMARK    2  A    between atoms: S_1  and  C_27
REMARK    3  A    between atoms: O_6  and  C_34
REMARK    4  A    between atoms: O_6  and  C_35
REMARK    5  A    between atoms: N_7  and  C_17
REMARK    6  A    between atoms: C_10  and  C_14
REMARK    7  A    between atoms: C_11  and  C_17
REMARK    8  A    between atoms: C_13  and  C_18
REMARK    9  A    between atoms: C_14  and  C_19
REMARK   10  A    between atoms: C_14  and  C_20
REMARK   11  A    between atoms: C_15  and  C_21
REMARK   12  A    between atoms: C_18  and  C_22
REMARK   13  A    between atoms: C_28  and  C_31
REMARK                            x       y       z     vdW  Elec       q    Type
REMARK                         _______ _______ _______ _____ _____    ______ ____
ROOT
ATOM     10  C   UNL     1      -3.236   0.497  24.034  0.00  0.00    +0.000 C 
ATOM     11  C   UNL     1      -4.734   0.115  24.116  0.00  0.00    +0.030 C 
ATOM     12  C   UNL     1      -2.472  -0.509  23.160  0.00  0.00    +0.012 C 
ATOM     13  C   UNL     1      -2.579  -1.949  23.699  0.00  0.00    +0.023 C 
ATOM     15  C   UNL     1      -4.006  -2.310  24.059  0.00  0.00    -0.073 C 
ATOM     16  C   UNL     1      -4.959  -1.375  24.227  0.00  0.00    -0.023 C 
ATOM     21  C   UNL     1      -4.325  -3.775  24.174  0.00  0.00    +0.039 C 
ENDROOT
BRANCH  10  14
ATOM     14  C   UNL     1      -3.040   1.914  23.486  0.00  0.00    -0.013 C 
ATOM     19  C   UNL     1      -1.652   2.058  22.868  0.00  0.00    +0.007 C 
ATOM     20  C   UNL     1      -4.123   2.243  22.463  0.00  0.00    +0.007 C 
ENDBRANCH  10  14
BRANCH  11  17
ATOM     17  C   UNL     1      -5.423   0.823  25.287  0.00  0.00    +0.113 C 
BRANCH  17   7
ATOM      7  N   UNL     1      -5.812   2.179  24.868  0.00  0.00    -0.189 NA
ATOM     36  H   UNL     1      -5.745   2.379  23.862  0.00  0.00    +0.148 HD
BRANCH   7   1
ATOM      1  S   UNL     1      -5.633   3.492  25.937  0.00  0.00    +0.058 S 
ATOM      3  O   UNL     1      -5.698   3.009  27.304  0.00  0.00    -0.153 OA
ATOM      4  O   UNL     1      -6.492   4.578  25.505  0.00  0.00    -0.153 OA
BRANCH   1  27
ATOM     27  C   UNL     1      -3.968   3.993  25.616  0.00  0.00    +0.105 A 
ATOM     29  C   UNL     1      -3.707   4.968  24.653  0.00  0.00    +0.032 A 
ATOM     30  C   UNL     1      -2.916   3.413  26.324  0.00  0.00    +0.032 A 
ATOM     32  C   UNL     1      -2.394   5.361  24.397  0.00  0.00    +0.047 A 
ATOM     33  C   UNL     1      -1.602   3.806  26.068  0.00  0.00    +0.047 A 
ATOM     34  C   UNL     1      -1.342   4.781  25.105  0.00  0.00    +0.120 A 
BRANCH  34   6
ATOM      6  O   UNL     1      -0.060   5.165  24.855  0.00  0.00    -0.495 OA
ATOM     35  C   UNL     1       0.404   5.045  23.511  0.00  0.00    +0.277 C 
ENDBRANCH  34   6
ENDBRANCH   1  27
ENDBRANCH   7   1
ENDBRANCH  17   7
ENDBRANCH  11  17
BRANCH  13  18
ATOM     18  C   UNL     1      -1.642  -2.162  24.893  0.00  0.00    +0.103 C 
BRANCH  18  22
ATOM      2  O   UNL     1      -1.616  -0.124  26.101  0.00  0.00    -0.276 OA
ATOM      5  O   UNL     1       3.913   0.165  21.582  0.00  0.00    -0.276 OA
ATOM      8  N   UNL     1       0.208  -0.536  24.724  0.00  0.00    -0.298 N 
ATOM      9  N   UNL     1       2.058   0.606  22.907  0.00  0.00    -0.299 N 
ATOM     22  C   UNL     1      -1.022  -0.850  25.299  0.00  0.00    +0.216 C 
ATOM     23  C   UNL     1       0.875   0.723  25.066  0.00  0.00    +0.126 C 
ATOM     24  C   UNL     1       0.975  -1.409  23.826  0.00  0.00    +0.126 C 
ATOM     25  C   UNL     1       1.291   1.479  23.806  0.00  0.00    +0.126 C 
ATOM     26  C   UNL     1       1.390  -0.653  22.567  0.00  0.00    +0.126 C 
ATOM     28  C   UNL     1       3.289   0.917  22.334  0.00  0.00    +0.213 C 
ATOM     31  C   UNL     1       3.871   2.265  22.678  0.00  0.00    +0.109 C 
ENDBRANCH  18  22
ENDBRANCH  13  18
TORSDOF 8
ENDMDL
MODEL 7
REMARK VINA RESULT:       8.5      2.237      7.727
REMARK  Name = 38026862
REMARK  13 active torsions:
REMARK  status: ('A' for Active; 'I' for Inactive)
REMARK    1  A    between atoms: S_1  and  N_7
REMARK    2  A    between atoms: S_1  and  C_27
REMARK    3  A    between atoms: O_6  and  C_34
REMARK    4  A    between atoms: O_6  and  C_35
REMARK    5  A    between atoms: N_7  and  C_17
REMARK    6  A    between atoms: C_10  and  C_14
REMARK    7  A    between atoms: C_11  and  C_17
REMARK    8  A    between atoms: C_13  and  C_18
REMARK    9  A    between atoms: C_14  and  C_19
REMARK   10  A    between atoms: C_14  and  C_20
REMARK   11  A    between atoms: C_15  and  C_21
REMARK   12  A    between atoms: C_18  and  C_22
REMARK   13  A    between atoms: C_28  and  C_31
REMARK                            x       y       z     vdW  Elec       q    Type
REMARK                         _______ _______ _______ _____ _____    ______ ____
ROOT
ATOM     10  C   UNL     1      -0.782   4.075  24.378  0.00  0.00    +0.000 C 
ATOM     11  C   UNL     1      -0.506   3.314  25.697  0.00  0.00    +0.030 C 
ATOM     12  C   UNL     1      -1.869   5.140  24.589  0.00  0.00    +0.012 C 
ATOM     13  C   UNL     1      -3.194   4.529  25.086  0.00  0.00    +0.023 C 
ATOM     15  C   UNL     1      -2.971   3.553  26.223  0.00  0.00    -0.073 C 
ATOM     16  C   UNL     1      -1.760   3.031  26.490  0.00  0.00    -0.023 C 
ATOM     21  C   UNL     1      -4.165   3.225  27.077  0.00  0.00    +0.039 C 
ENDROOT
BRANCH  10  14
ATOM     14  C   UNL     1       0.487   4.733  23.825  0.00  0.00    -0.013 C 
ATOM     19  C   UNL     1       0.369   4.930  22.316  0.00  0.00    +0.007 C 
ATOM     20  C   UNL     1       0.745   6.063  24.525  0.00  0.00    +0.007 C 
ENDBRANCH  10  14
BRANCH  11  17
ATOM     17  C   UNL     1       0.238   2.001  25.434  0.00  0.00    +0.113 C 
BRANCH  17   7
ATOM      7  N   UNL     1       0.322   1.777  23.982  0.00  0.00    -0.189 NA
ATOM     36  H   UNL     1      -0.230   2.413  23.393  0.00  0.00    +0.148 HD
BRANCH   7   1
ATOM      1  S   UNL     1       0.630   0.218  23.371  0.00  0.00    +0.058 S 
ATOM      3  O   UNL     1       0.147   0.135  22.005  0.00  0.00    -0.153 OA
ATOM      4  O   UNL     1       0.217  -0.768  24.352  0.00  0.00    -0.153 OA
BRANCH   1  27
ATOM     27  C   UNL     1       2.397   0.191  23.325  0.00  0.00    +0.105 A 
ATOM     29  C   UNL     1       3.087  -0.953  23.723  0.00  0.00    +0.032 A 
ATOM     30  C   UNL     1       3.100   1.315  22.894  0.00  0.00    +0.032 A 
ATOM     32  C   UNL     1       4.482  -0.974  23.690  0.00  0.00    +0.047 A 
ATOM     33  C   UNL     1       4.495   1.295  22.862  0.00  0.00    +0.047 A 
ATOM     34  C   UNL     1       5.185   0.150  23.259  0.00  0.00    +0.120 A 
BRANCH  34   6
ATOM      6  O   UNL     1       6.545   0.130  23.227  0.00  0.00    -0.495 OA
ATOM     35  C   UNL     1       7.165  -1.011  22.637  0.00  0.00    +0.277 C 
ENDBRANCH  34   6
ENDBRANCH   1  27
ENDBRANCH   7   1
ENDBRANCH  17   7
ENDBRANCH  11  17
BRANCH  13  18
ATOM     18  C   UNL     1      -3.962   3.867  23.937  0.00  0.00    +0.103 C 
BRANCH  18  22
ATOM      2  O   UNL     1      -5.876   3.072  25.085  0.00  0.00    -0.276 OA
ATOM      5  O   UNL     1      -1.777  -2.649  23.836  0.00  0.00    -0.276 OA
ATOM      8  N   UNL     1      -4.429   1.462  24.244  0.00  0.00    -0.298 N 
ATOM      9  N   UNL     1      -3.189  -1.038  24.734  0.00  0.00    -0.299 N 
ATOM     22  C   UNL     1      -4.846   2.772  24.475  0.00  0.00    +0.216 C 
ATOM     23  C   UNL     1      -5.231   0.341  24.737  0.00  0.00    +0.126 C 
ATOM     24  C   UNL     1      -3.251   1.071  23.459  0.00  0.00    +0.126 C 
ATOM     25  C   UNL     1      -4.368  -0.647  25.519  0.00  0.00    +0.126 C 
ATOM     26  C   UNL     1      -2.387   0.084  24.240  0.00  0.00    +0.126 C 
ATOM     28  C   UNL     1      -2.772  -2.347  24.500  0.00  0.00    +0.213 C 
ATOM     31  C   UNL     1      -3.613  -3.441  25.107  0.00  0.00    +0.109 C 
ENDBRANCH  18  22
ENDBRANCH  13  18
TORSDOF 8
ENDMDL
