MODEL 1
REMARK VINA RESULT:      -5.8      0.000      0.000
REMARK  Name = 51137065
REMARK  4 active torsions:
REMARK  status: ('A' for Active; 'I' for Inactive)
REMARK    1  A    between atoms: N_5  and  C_11
REMARK    2  A    between atoms: C_7  and  C_12
REMARK    3  A    between atoms: C_11  and  C_13
REMARK    4  A    between atoms: C_22  and  C_25
REMARK                            x       y       z     vdW  Elec       q    Type
REMARK                         _______ _______ _______ _____ _____    ______ ____
ROOT
ATOM      5  N   UNL     1      -2.839 -10.781  15.287  0.00  0.00    -0.297 NA
ATOM      7  C   UNL     1      -3.487 -10.778  13.033  0.00  0.00    +0.090 C 
ATOM      8  C   UNL     1      -2.064 -10.210  13.160  0.00  0.00    +0.029 C 
ATOM      9  C   UNL     1      -4.047 -10.744  14.462  0.00  0.00    +0.097 C 
ATOM     10  C   UNL     1      -1.908  -9.860  14.635  0.00  0.00    +0.085 C 
ENDROOT
BRANCH   7  12
ATOM      4  O   UNL     1      -5.711 -10.250  12.188  0.00  0.00    -0.439 OA
ATOM      6  N   UNL     1      -4.012  -9.285  11.040  0.00  0.00    -0.213 NA
ATOM     12  C   UNL     1      -4.370 -10.064  12.036  0.00  0.00    +0.201 A 
ATOM     14  C   UNL     1      -6.254  -9.508  11.178  0.00  0.00    +0.155 A 
ATOM     15  C   UNL     1      -5.211  -8.919  10.478  0.00  0.00    +0.110 A 
ATOM     20  C   UNL     1      -7.601  -9.349  10.875  0.00  0.00    +0.048 A 
ATOM     21  C   UNL     1      -5.510  -8.098   9.381  0.00  0.00    +0.031 A 
ATOM     23  C   UNL     1      -7.882  -8.527   9.779  0.00  0.00    +0.004 A 
ATOM     24  C   UNL     1      -6.859  -7.913   9.045  0.00  0.00    +0.002 A 
ENDBRANCH   7  12
BRANCH   5  11
ATOM     11  C   UNL     1      -3.100 -10.416  16.671  0.00  0.00    +0.119 C 
BRANCH  11  13
ATOM     13  C   UNL     1      -4.572 -10.256  16.942  0.00  0.00    -0.033 A 
ATOM     16  C   UNL     1      -5.416  -9.782  15.939  0.00  0.00    +0.005 A 
ATOM     17  C   UNL     1      -5.091 -10.583  18.195  0.00  0.00    +0.005 A 
ATOM     18  C   UNL     1      -6.781  -9.633  16.188  0.00  0.00    +0.012 A 
ATOM     19  C   UNL     1      -6.455 -10.435  18.444  0.00  0.00    +0.012 A 
ATOM     22  C   UNL     1      -7.300  -9.961  17.441  0.00  0.00    +0.055 A 
BRANCH  22  25
ATOM      1  F   UNL     1      -9.164  -8.502  17.789  0.00  0.00    -0.166 F 
ATOM      2  F   UNL     1      -9.145 -10.382  18.881  0.00  0.00    -0.166 F 
ATOM      3  F   UNL     1      -9.553 -10.363  16.745  0.00  0.00    -0.166 F 
ATOM     25  C   UNL     1      -8.760  -9.805  17.706  0.00  0.00    +0.417 C 
ENDBRANCH  22  25
ENDBRANCH  11  13
ENDBRANCH   5  11
TORSDOF 4
ENDMDL
MODEL 2
REMARK VINA RESULT:      -3.0     14.433     16.258
REMARK  Name = 51137065
REMARK  4 active torsions:
REMARK  status: ('A' for Active; 'I' for Inactive)
REMARK    1  A    between atoms: N_5  and  C_11
REMARK    2  A    between atoms: C_7  and  C_12
REMARK    3  A    between atoms: C_11  and  C_13
REMARK    4  A    between atoms: C_22  and  C_25
REMARK                            x       y       z     vdW  Elec       q    Type
REMARK                         _______ _______ _______ _____ _____    ______ ____
ROOT
ATOM      5  N   UNL     1       0.319   2.983  24.954  0.00  0.00    -0.297 NA
ATOM      7  C   UNL     1       0.156   0.645  24.869  0.00  0.00    +0.090 C 
ATOM      8  C   UNL     1       0.849   1.158  23.596  0.00  0.00    +0.029 C 
ATOM      9  C   UNL     1      -0.497   1.890  25.485  0.00  0.00    +0.097 C 
ATOM     10  C   UNL     1       0.528   2.647  23.545  0.00  0.00    +0.085 C 
ENDROOT
BRANCH   7  12
ATOM      4  O   UNL     1      -2.107  -0.118  24.377  0.00  0.00    -0.439 OA
ATOM      6  N   UNL     1      -0.596  -1.780  24.682  0.00  0.00    -0.213 NA
ATOM     12  C   UNL     1      -0.823  -0.486  24.647  0.00  0.00    +0.201 A 
ATOM     14  C   UNL     1      -2.756  -1.309  24.226  0.00  0.00    +0.155 A 
ATOM     15  C   UNL     1      -1.829  -2.324  24.413  0.00  0.00    +0.110 A 
ATOM     20  C   UNL     1      -4.101  -1.509  23.937  0.00  0.00    +0.048 A 
ATOM     21  C   UNL     1      -2.252  -3.657  24.309  0.00  0.00    +0.031 A 
ATOM     23  C   UNL     1      -4.507  -2.844  23.836  0.00  0.00    +0.004 A 
ATOM     24  C   UNL     1      -3.603  -3.898  24.018  0.00  0.00    +0.002 A 
ENDBRANCH   7  12
BRANCH   5  11
ATOM     11  C   UNL     1      -0.312   4.282  25.125  0.00  0.00    +0.119 C 
BRANCH  11  13
ATOM     13  C   UNL     1      -1.807   4.166  25.261  0.00  0.00    -0.033 A 
ATOM     16  C   UNL     1      -2.582   3.822  24.155  0.00  0.00    +0.005 A 
ATOM     17  C   UNL     1      -2.416   4.402  26.494  0.00  0.00    +0.005 A 
ATOM     18  C   UNL     1      -3.967   3.714  24.280  0.00  0.00    +0.012 A 
ATOM     19  C   UNL     1      -3.800   4.293  26.619  0.00  0.00    +0.012 A 
ATOM     22  C   UNL     1      -4.576   3.949  25.513  0.00  0.00    +0.055 A 
BRANCH  22  25
ATOM      1  F   UNL     1      -6.638   3.090  24.656  0.00  0.00    -0.166 F 
ATOM      2  F   UNL     1      -6.686   5.041  25.616  0.00  0.00    -0.166 F 
ATOM      3  F   UNL     1      -6.455   3.240  26.812  0.00  0.00    -0.166 F 
ATOM     25  C   UNL     1      -6.057   3.830  25.647  0.00  0.00    +0.417 C 
ENDBRANCH  22  25
ENDBRANCH  11  13
ENDBRANCH   5  11
TORSDOF 4
ENDMDL
MODEL 3
REMARK VINA RESULT:      -2.9     14.859     16.656
REMARK  Name = 51137065
REMARK  4 active torsions:
REMARK  status: ('A' for Active; 'I' for Inactive)
REMARK    1  A    between atoms: N_5  and  C_11
REMARK    2  A    between atoms: C_7  and  C_12
REMARK    3  A    between atoms: C_11  and  C_13
REMARK    4  A    between atoms: C_22  and  C_25
REMARK                            x       y       z     vdW  Elec       q    Type
REMARK                         _______ _______ _______ _____ _____    ______ ____
ROOT
ATOM      5  N   UNL     1      -2.926  -0.869  24.547  0.00  0.00    -0.297 NA
ATOM      7  C   UNL     1      -0.807  -1.389  23.688  0.00  0.00    +0.090 C 
ATOM      8  C   UNL     1      -1.021  -2.136  25.015  0.00  0.00    +0.029 C 
ATOM      9  C   UNL     1      -1.897  -0.309  23.669  0.00  0.00    +0.097 C 
ATOM     10  C   UNL     1      -2.191  -1.425  25.684  0.00  0.00    +0.085 C 
ENDROOT
BRANCH   7  12
ATOM      4  O   UNL     1       1.610  -1.622  23.905  0.00  0.00    -0.439 OA
ATOM      6  N   UNL     1       0.930   0.328  22.972  0.00  0.00    -0.213 NA
ATOM     12  C   UNL     1       0.583  -0.828  23.491  0.00  0.00    +0.201 A 
ATOM     14  C   UNL     1       2.722  -0.884  23.615  0.00  0.00    +0.155 A 
ATOM     15  C   UNL     1       2.302   0.309  23.044  0.00  0.00    +0.110 A 
ATOM     20  C   UNL     1       4.049  -1.232  23.837  0.00  0.00    +0.048 A 
ATOM     21  C   UNL     1       3.266   1.249  22.652  0.00  0.00    +0.031 A 
ATOM     23  C   UNL     1       4.998  -0.283  23.441  0.00  0.00    +0.004 A 
ATOM     24  C   UNL     1       4.616   0.933  22.861  0.00  0.00    +0.002 A 
ENDBRANCH   7  12
BRANCH   5  11
ATOM     11  C   UNL     1      -3.909   0.123  24.955  0.00  0.00    +0.119 C 
BRANCH  11  13
ATOM     13  C   UNL     1      -3.336   1.515  24.951  0.00  0.00    -0.033 A 
ATOM     16  C   UNL     1      -4.072   2.569  24.412  0.00  0.00    +0.005 A 
ATOM     17  C   UNL     1      -2.070   1.750  25.488  0.00  0.00    +0.005 A 
ATOM     18  C   UNL     1      -3.542   3.860  24.409  0.00  0.00    +0.012 A 
ATOM     19  C   UNL     1      -1.541   3.040  25.485  0.00  0.00    +0.012 A 
ATOM     22  C   UNL     1      -2.276   4.095  24.946  0.00  0.00    +0.055 A 
BRANCH  22  25
ATOM      1  F   UNL     1      -0.347   5.507  25.019  0.00  0.00    -0.166 F 
ATOM      2  F   UNL     1      -2.152   6.225  25.997  0.00  0.00    -0.166 F 
ATOM      3  F   UNL     1      -2.024   6.193  23.827  0.00  0.00    -0.166 F 
ATOM     25  C   UNL     1      -1.711   5.476  24.945  0.00  0.00    +0.417 C 
ENDBRANCH  22  25
ENDBRANCH  11  13
ENDBRANCH   5  11
TORSDOF 4
ENDMDL
MODEL 4
REMARK VINA RESULT:      -2.7     14.116     15.961
REMARK  Name = 51137065
REMARK  4 active torsions:
REMARK  status: ('A' for Active; 'I' for Inactive)
REMARK    1  A    between atoms: N_5  and  C_11
REMARK    2  A    between atoms: C_7  and  C_12
REMARK    3  A    between atoms: C_11  and  C_13
REMARK    4  A    between atoms: C_22  and  C_25
REMARK                            x       y       z     vdW  Elec       q    Type
REMARK                         _______ _______ _______ _____ _____    ______ ____
ROOT
ATOM      5  N   UNL     1      -2.669  -1.852  24.538  0.00  0.00    -0.297 NA
ATOM      7  C   UNL     1      -0.326  -1.937  24.489  0.00  0.00    +0.090 C 
ATOM      8  C   UNL     1      -0.797  -1.554  25.901  0.00  0.00    +0.029 C 
ATOM      9  C   UNL     1      -1.556  -1.719  23.596  0.00  0.00    +0.097 C 
ATOM     10  C   UNL     1      -2.246  -1.115  25.729  0.00  0.00    +0.085 C 
ENDROOT
BRANCH   7  12
ATOM      4  O   UNL     1       2.097  -1.768  24.284  0.00  0.00    -0.439 OA
ATOM      6  N   UNL     1       0.948  -0.057  23.339  0.00  0.00    -0.213 NA
ATOM     12  C   UNL     1       0.895  -1.191  24.001  0.00  0.00    +0.201 A 
ATOM     14  C   UNL     1       3.002  -0.902  23.741  0.00  0.00    +0.155 A 
ATOM     15  C   UNL     1       2.296   0.144  23.164  0.00  0.00    +0.110 A 
ATOM     20  C   UNL     1       4.388  -1.013  23.746  0.00  0.00    +0.048 A 
ATOM     21  C   UNL     1       3.006   1.175  22.533  0.00  0.00    +0.031 A 
ATOM     23  C   UNL     1       5.081   0.023  23.112  0.00  0.00    +0.004 A 
ATOM     24  C   UNL     1       4.407   1.096  22.518  0.00  0.00    +0.002 A 
ENDBRANCH   7  12
BRANCH   5  11
ATOM     11  C   UNL     1      -3.921  -1.350  23.993  0.00  0.00    +0.119 C 
BRANCH  11  13
ATOM     13  C   UNL     1      -4.115   0.113  24.287  0.00  0.00    -0.033 A 
ATOM     16  C   UNL     1      -5.079   0.516  25.210  0.00  0.00    +0.005 A 
ATOM     17  C   UNL     1      -3.330   1.066  23.637  0.00  0.00    +0.005 A 
ATOM     18  C   UNL     1      -5.260   1.872  25.484  0.00  0.00    +0.012 A 
ATOM     19  C   UNL     1      -3.509   2.421  23.912  0.00  0.00    +0.012 A 
ATOM     22  C   UNL     1      -4.473   2.825  24.835  0.00  0.00    +0.055 A 
BRANCH  22  25
ATOM      1  F   UNL     1      -4.383   5.089  24.069  0.00  0.00    -0.166 F 
ATOM      2  F   UNL     1      -3.869   4.712  26.148  0.00  0.00    -0.166 F 
ATOM      3  F   UNL     1      -5.940   4.595  25.496  0.00  0.00    -0.166 F 
ATOM     25  C   UNL     1      -4.664   4.274  25.130  0.00  0.00    +0.417 C 
ENDBRANCH  22  25
ENDBRANCH  11  13
ENDBRANCH   5  11
TORSDOF 4
ENDMDL
MODEL 5
REMARK VINA RESULT:      -1.9     14.998     17.152
REMARK  Name = 51137065
REMARK  4 active torsions:
REMARK  status: ('A' for Active; 'I' for Inactive)
REMARK    1  A    between atoms: N_5  and  C_11
REMARK    2  A    between atoms: C_7  and  C_12
REMARK    3  A    between atoms: C_11  and  C_13
REMARK    4  A    between atoms: C_22  and  C_25
REMARK                            x       y       z     vdW  Elec       q    Type
REMARK                         _______ _______ _______ _____ _____    ______ ____
ROOT
ATOM      5  N   UNL     1       0.131  -0.657  23.729  0.00  0.00    -0.297 NA
ATOM      7  C   UNL     1      -1.590  -0.002  25.182  0.00  0.00    +0.090 C 
ATOM      8  C   UNL     1      -1.821  -1.454  24.732  0.00  0.00    +0.029 C 
ATOM      9  C   UNL     1      -0.555   0.551  24.192  0.00  0.00    +0.097 C 
ATOM     10  C   UNL     1      -0.936  -1.633  23.506  0.00  0.00    +0.085 C 
ENDROOT
BRANCH   7  12
ATOM      4  O   UNL     1      -2.644   2.193  25.303  0.00  0.00    -0.439 OA
ATOM      6  N   UNL     1      -4.093   0.450  25.299  0.00  0.00    -0.213 NA
ATOM     12  C   UNL     1      -2.840   0.845  25.263  0.00  0.00    +0.201 A 
ATOM     14  C   UNL     1      -3.910   2.698  25.372  0.00  0.00    +0.155 A 
ATOM     15  C   UNL     1      -4.794   1.629  25.370  0.00  0.00    +0.110 A 
ATOM     20  C   UNL     1      -4.285   4.035  25.436  0.00  0.00    +0.048 A 
ATOM     21  C   UNL     1      -6.171   1.888  25.435  0.00  0.00    +0.031 A 
ATOM     23  C   UNL     1      -5.661   4.276  25.500  0.00  0.00    +0.004 A 
ATOM     24  C   UNL     1      -6.587   3.225  25.500  0.00  0.00    +0.002 A 
ENDBRANCH   7  12
BRANCH   5  11
ATOM     11  C   UNL     1       0.925  -0.420  22.533  0.00  0.00    +0.119 C 
BRANCH  11  13
ATOM     13  C   UNL     1       2.395  -0.334  22.844  0.00  0.00    -0.033 A 
ATOM     16  C   UNL     1       3.038  -1.401  23.471  0.00  0.00    +0.005 A 
ATOM     17  C   UNL     1       3.115   0.811  22.503  0.00  0.00    +0.005 A 
ATOM     18  C   UNL     1       4.401  -1.322  23.759  0.00  0.00    +0.012 A 
ATOM     19  C   UNL     1       4.477   0.890  22.790  0.00  0.00    +0.012 A 
ATOM     22  C   UNL     1       5.120  -0.177  23.417  0.00  0.00    +0.055 A 
BRANCH  22  25
ATOM      1  F   UNL     1       7.377  -0.448  22.672  0.00  0.00    -0.166 F 
ATOM      2  F   UNL     1       6.946  -0.909  24.753  0.00  0.00    -0.166 F 
ATOM      3  F   UNL     1       6.992   1.157  24.079  0.00  0.00    -0.166 F 
ATOM     25  C   UNL     1       6.578  -0.094  23.722  0.00  0.00    +0.417 C 
ENDBRANCH  22  25
ENDBRANCH  11  13
ENDBRANCH   5  11
TORSDOF 4
ENDMDL
