MODEL 1
REMARK VINA RESULT:      -1.8      0.000      0.000
REMARK  Name = 28962614
REMARK  16 active torsions:
REMARK  status: ('A' for Active; 'I' for Inactive)
REMARK    1  A    between atoms: O_1  and  C_9
REMARK    2  A    between atoms: N_4  and  C_13
REMARK    3  A    between atoms: N_5  and  C_24
REMARK    4  A    between atoms: N_5  and  C_25
REMARK    5  A    between atoms: C_6  and  C_16
REMARK    6  A    between atoms: C_8  and  C_18
REMARK    7  A    between atoms: C_11  and  C_17
REMARK    8  A    between atoms: C_17  and  C_19
REMARK    9  A    between atoms: C_17  and  C_20
REMARK   10  A    between atoms: C_21  and  C_22
REMARK   11  A    between atoms: C_22  and  C_23
REMARK   12  A    between atoms: C_23  and  C_26
REMARK   13  A    between atoms: C_23  and  C_27
REMARK   14  A    between atoms: C_23  and  C_28
REMARK   15  A    between atoms: C_24  and  C_29
REMARK   16  A    between atoms: C_25  and  C_30
REMARK                            x       y       z     vdW  Elec       q    Type
REMARK                         _______ _______ _______ _____ _____    ______ ____
ROOT
ATOM      6  C   UNL     1      -1.739  -0.694  24.978  0.00  0.00    -0.027 C 
ATOM      7  C   UNL     1      -1.647   0.618  24.131  0.00  0.00    +0.028 C 
ATOM      8  C   UNL     1      -0.158   1.098  24.002  0.00  0.00    +0.012 C 
ATOM      9  C   UNL     1      -2.653   1.690  24.641  0.00  0.00    +0.122 C 
ATOM     10  C   UNL     1      -3.200  -1.200  24.991  0.00  0.00    +0.007 C 
ATOM     11  C   UNL     1      -4.097   1.147  24.750  0.00  0.00    +0.029 C 
ATOM     12  C   UNL     1      -0.868  -1.785  24.313  0.00  0.00    +0.009 C 
ATOM     13  C   UNL     1       0.723  -0.034  23.401  0.00  0.00    +0.076 C 
ATOM     14  C   UNL     1      -4.182  -0.168  25.527  0.00  0.00    +0.007 C 
ATOM     15  C   UNL     1       0.584  -1.366  24.137  0.00  0.00    +0.023 C 
ATOM     16  C   UNL     1      -1.271  -0.490  26.441  0.00  0.00    +0.011 C 
ATOM     18  C   UNL     1       0.009   2.371  23.154  0.00  0.00    +0.010 C 
ENDROOT
BRANCH  13   4
ATOM      3  O   UNL     1       2.538  -0.188  21.150  0.00  0.00    -0.276 OA
ATOM      4  N   UNL     1       2.124   0.333  23.376  0.00  0.00    -0.312 N 
ATOM     21  C   UNL     1       2.914   0.222  22.246  0.00  0.00    +0.214 C 
ATOM     31  H   UNL     1       2.542   0.650  24.244  0.00  0.00    +0.149 HD
BRANCH  21  22
ATOM     22  C   UNL     1       4.349   0.663  22.481  0.00  0.00    +0.102 C 
BRANCH  22  23
ATOM     23  C   UNL     1       5.143  -0.224  23.468  0.00  0.00    -0.029 C 
ATOM     26  C   UNL     1       4.380  -1.522  23.785  0.00  0.00    +0.011 C 
ATOM     27  C   UNL     1       6.482  -0.597  22.802  0.00  0.00    +0.011 C 
ATOM     28  C   UNL     1       5.444   0.521  24.780  0.00  0.00    +0.011 C 
ENDBRANCH  22  23
ENDBRANCH  21  22
ENDBRANCH  13   4
BRANCH   9   1
ATOM      1  O   UNL     1      -2.696   2.781  23.721  0.00  0.00    -0.391 OA
ATOM     32  H   UNL     1      -1.810   3.180  23.682  0.00  0.00    +0.210 HD
ENDBRANCH   9   1
BRANCH  11  17
ATOM     17  C   UNL     1      -5.046   2.175  25.378  0.00  0.00    +0.078 C 
ATOM     19  C   UNL     1      -6.457   1.969  24.827  0.00  0.00    +0.017 C 
BRANCH  17  20
ATOM      2  O   UNL     1      -5.004   4.213  24.121  0.00  0.00    -0.275 OA
ATOM      5  N   UNL     1      -3.555   4.118  25.923  0.00  0.00    -0.302 N 
ATOM     20  C   UNL     1      -4.543   3.591  25.085  0.00  0.00    +0.219 C 
BRANCH   5  24
ATOM     24  C   UNL     1      -3.038   5.456  25.659  0.00  0.00    +0.104 C 
ATOM     29  C   UNL     1      -1.644   5.406  25.066  0.00  0.00    +0.024 C 
ENDBRANCH   5  24
BRANCH   5  25
ATOM     25  C   UNL     1      -2.984   3.466  27.100  0.00  0.00    +0.104 C 
ATOM     30  C   UNL     1      -1.512   3.164  26.905  0.00  0.00    +0.024 C 
ENDBRANCH   5  25
ENDBRANCH  17  20
ENDBRANCH  11  17
TORSDOF 8
ENDMDL
MODEL 2
REMARK VINA RESULT:       1.7      1.124      1.744
REMARK  Name = 28962614
REMARK  16 active torsions:
REMARK  status: ('A' for Active; 'I' for Inactive)
REMARK    1  A    between atoms: O_1  and  C_9
REMARK    2  A    between atoms: N_4  and  C_13
REMARK    3  A    between atoms: N_5  and  C_24
REMARK    4  A    between atoms: N_5  and  C_25
REMARK    5  A    between atoms: C_6  and  C_16
REMARK    6  A    between atoms: C_8  and  C_18
REMARK    7  A    between atoms: C_11  and  C_17
REMARK    8  A    between atoms: C_17  and  C_19
REMARK    9  A    between atoms: C_17  and  C_20
REMARK   10  A    between atoms: C_21  and  C_22
REMARK   11  A    between atoms: C_22  and  C_23
REMARK   12  A    between atoms: C_23  and  C_26
REMARK   13  A    between atoms: C_23  and  C_27
REMARK   14  A    between atoms: C_23  and  C_28
REMARK   15  A    between atoms: C_24  and  C_29
REMARK   16  A    between atoms: C_25  and  C_30
REMARK                            x       y       z     vdW  Elec       q    Type
REMARK                         _______ _______ _______ _____ _____    ______ ____
ROOT
ATOM      6  C   UNL     1      -2.565  -0.944  24.875  0.00  0.00    -0.027 C 
ATOM      7  C   UNL     1      -1.898   0.103  23.923  0.00  0.00    +0.028 C 
ATOM      8  C   UNL     1      -0.341   0.132  24.124  0.00  0.00    +0.012 C 
ATOM      9  C   UNL     1      -2.610   1.484  24.017  0.00  0.00    +0.122 C 
ATOM     10  C   UNL     1      -4.079  -1.028  24.572  0.00  0.00    +0.007 C 
ATOM     11  C   UNL     1      -4.140   1.379  23.816  0.00  0.00    +0.029 C 
ATOM     12  C   UNL     1      -1.952  -2.337  24.599  0.00  0.00    +0.009 C 
ATOM     13  C   UNL     1       0.255  -1.289  23.918  0.00  0.00    +0.076 C 
ATOM     14  C   UNL     1      -4.786   0.314  24.702  0.00  0.00    +0.007 C 
ATOM     15  C   UNL     1      -0.438  -2.365  24.754  0.00  0.00    +0.023 C 
ATOM     16  C   UNL     1      -2.376  -0.591  26.372  0.00  0.00    +0.011 C 
ATOM     18  C   UNL     1       0.383   1.123  23.196  0.00  0.00    +0.010 C 
ENDROOT
BRANCH  13   4
ATOM      3  O   UNL     1       2.437  -0.725  22.100  0.00  0.00    -0.276 OA
ATOM      4  N   UNL     1       1.673  -1.323  24.211  0.00  0.00    -0.312 N 
ATOM     21  C   UNL     1       2.646  -1.037  23.270  0.00  0.00    +0.214 C 
ATOM     31  H   UNL     1       1.954  -1.607  25.144  0.00  0.00    +0.149 HD
BRANCH  21  22
ATOM     22  C   UNL     1       4.056  -1.151  23.824  0.00  0.00    +0.102 C 
BRANCH  22  23
ATOM     23  C   UNL     1       4.984   0.036  23.478  0.00  0.00    -0.029 C 
ATOM     26  C   UNL     1       6.123  -0.405  22.541  0.00  0.00    +0.011 C 
ATOM     27  C   UNL     1       4.143   1.103  22.750  0.00  0.00    +0.011 C 
ATOM     28  C   UNL     1       5.585   0.671  24.743  0.00  0.00    +0.011 C 
ENDBRANCH  22  23
ENDBRANCH  21  22
ENDBRANCH  13   4
BRANCH   9   1
ATOM      1  O   UNL     1      -2.121   2.345  22.988  0.00  0.00    -0.391 OA
ATOM     32  H   UNL     1      -2.274   1.909  22.132  0.00  0.00    +0.210 HD
ENDBRANCH   9   1
BRANCH  11  17
ATOM     17  C   UNL     1      -4.837   2.726  24.043  0.00  0.00    +0.078 C 
ATOM     19  C   UNL     1      -4.327   3.743  23.022  0.00  0.00    +0.017 C 
BRANCH  17  20
ATOM      2  O   UNL     1      -5.271   2.764  26.398  0.00  0.00    -0.275 OA
ATOM      5  N   UNL     1      -3.574   4.159  25.671  0.00  0.00    -0.302 N 
ATOM     20  C   UNL     1      -4.581   3.208  25.473  0.00  0.00    +0.219 C 
BRANCH   5  24
ATOM     24  C   UNL     1      -3.319   4.656  27.018  0.00  0.00    +0.104 C 
ATOM     29  C   UNL     1      -2.502   3.669  27.828  0.00  0.00    +0.024 C 
ENDBRANCH   5  24
BRANCH   5  25
ATOM     25  C   UNL     1      -2.692   4.708  24.643  0.00  0.00    +0.104 C 
ATOM     30  C   UNL     1      -1.277   4.874  25.158  0.00  0.00    +0.024 C 
ENDBRANCH   5  25
ENDBRANCH  17  20
ENDBRANCH  11  17
TORSDOF 8
ENDMDL
