MODEL 1
REMARK VINA RESULT:       6.7      0.000      0.000
REMARK  Name = 11885917
REMARK  8 active torsions:
REMARK  status: ('A' for Active; 'I' for Inactive)
REMARK    1  A    between atoms: O_4  and  C_29
REMARK    2  A    between atoms: O_4  and  C_31
REMARK    3  A    between atoms: O_5  and  C_30
REMARK    4  A    between atoms: O_5  and  C_32
REMARK    5  A    between atoms: N_8  and  C_22
REMARK    6  A    between atoms: N_9  and  C_20
REMARK    7  A    between atoms: C_23  and  C_26
REMARK    8  A    between atoms: C_26  and  C_29
REMARK                            x       y       z     vdW  Elec       q    Type
REMARK                         _______ _______ _______ _____ _____    ______ ____
ROOT
ATOM      1  O   UNL     1       0.677   1.783  26.140  0.00  0.00    -0.266 OA
ATOM      2  O   UNL     1      -4.411   1.992  23.124  0.00  0.00    -0.252 OA
ATOM      6  N   UNL     1      -4.027   3.225  25.045  0.00  0.00    -0.284 N 
ATOM      7  N   UNL     1      -0.853   3.427  25.494  0.00  0.00    -0.310 N 
ATOM      8  N   UNL     1      -4.597   0.940  25.183  0.00  0.00    -0.269 N 
ATOM     10  C   UNL     1      -2.777   4.196  26.993  0.00  0.00    +0.027 C 
ATOM     11  C   UNL     1      -2.507   5.181  24.760  0.00  0.00    +0.054 C 
ATOM     12  C   UNL     1      -2.660   5.515  26.242  0.00  0.00    +0.018 C 
ATOM     13  C   UNL     1      -3.995   3.386  26.508  0.00  0.00    +0.114 C 
ATOM     14  C   UNL     1      -1.467   3.415  26.826  0.00  0.00    +0.130 C 
ATOM     15  C   UNL     1      -3.768   4.447  24.274  0.00  0.00    +0.119 C 
ATOM     16  C   UNL     1      -1.281   4.323  24.508  0.00  0.00    +0.027 A 
ATOM     17  C   UNL     1      -0.629   4.401  23.337  0.00  0.00    +0.024 A 
ATOM     18  C   UNL     1       0.252   2.575  25.296  0.00  0.00    +0.273 A 
ATOM     19  C   UNL     1      -4.345   2.033  24.356  0.00  0.00    +0.306 C 
ATOM     20  C   UNL     1       0.935   2.674  23.968  0.00  0.00    +0.099 A 
ATOM     21  C   UNL     1       0.500   3.556  23.063  0.00  0.00    +0.030 A 
ATOM     33  H   UNL     1      -4.974   1.115  26.109  0.00  0.00    +0.156 HD
ENDROOT
BRANCH   8  22
ATOM     22  C   UNL     1      -4.367  -0.428  24.893  0.00  0.00    +0.035 A 
ATOM     24  C   UNL     1      -4.892  -0.993  23.731  0.00  0.00    +0.027 A 
ATOM     25  C   UNL     1      -3.613  -1.209  25.770  0.00  0.00    +0.027 A 
ATOM     27  C   UNL     1      -4.664  -2.339  23.445  0.00  0.00    +0.047 A 
ATOM     28  C   UNL     1      -3.385  -2.555  25.484  0.00  0.00    +0.047 A 
ATOM     30  C   UNL     1      -3.910  -3.120  24.321  0.00  0.00    +0.120 A 
BRANCH  30   5
ATOM      5  O   UNL     1      -3.686  -4.432  24.041  0.00  0.00    -0.495 OA
ATOM     32  C   UNL     1      -2.765  -4.725  22.991  0.00  0.00    +0.277 C 
ENDBRANCH  30   5
ENDBRANCH   8  22
BRANCH  20   9
ATOM      3  O   UNL     1       0.832   0.043  22.843  0.00  0.00    -0.275 OA
ATOM      9  N   UNL     1       1.998   1.852  23.732  0.00  0.00    -0.281 N 
ATOM     23  C   UNL     1       1.883   0.581  23.182  0.00  0.00    +0.220 C 
ATOM     34  H   UNL     1       2.877   2.100  24.180  0.00  0.00    +0.155 HD
BRANCH  23  26
ATOM     26  C   UNL     1       3.242  -0.087  23.042  0.00  0.00    +0.124 C 
BRANCH  26  29
ATOM     29  C   UNL     1       4.376   0.910  22.848  0.00  0.00    +0.168 C 
BRANCH  29   4
ATOM      4  O   UNL     1       5.353   0.716  23.863  0.00  0.00    -0.382 OA
ATOM     31  C   UNL     1       5.436  -0.648  24.252  0.00  0.00    +0.194 C 
ENDBRANCH  29   4
ENDBRANCH  26  29
ENDBRANCH  23  26
ENDBRANCH  20   9
TORSDOF 6
ENDMDL
