MODEL 1
REMARK VINA RESULT:      -7.3      0.000      0.000
REMARK  Name = 75536550
REMARK  7 active torsions:
REMARK  status: ('A' for Active; 'I' for Inactive)
REMARK    1  A    between atoms: O_3  and  C_11
REMARK    2  A    between atoms: N_5  and  C_13
REMARK    3  A    between atoms: N_6  and  C_12
REMARK    4  A    between atoms: N_6  and  C_16
REMARK    5  A    between atoms: C_7  and  C_15
REMARK    6  A    between atoms: C_10  and  C_13
REMARK    7  A    between atoms: C_16  and  C_17
REMARK                            x       y       z     vdW  Elec       q    Type
REMARK                         _______ _______ _______ _____ _____    ______ ____
ROOT
ATOM      2  O   UNL     1      -0.985   3.020  26.522  0.00  0.00    -0.371 OA
ATOM     10  C   UNL     1      -0.802   3.909  25.406  0.00  0.00    +0.165 C 
ATOM     11  C   UNL     1      -0.622   3.018  24.184  0.00  0.00    +0.164 C 
ATOM     12  C   UNL     1       0.132   1.847  24.784  0.00  0.00    +0.111 C 
ATOM     14  C   UNL     1      -0.557   1.703  26.131  0.00  0.00    +0.181 C 
ENDROOT
BRANCH  11   3
ATOM      3  O   UNL     1       0.104   3.669  23.160  0.00  0.00    -0.388 OA
ATOM     25  H   UNL     1       0.224   4.600  23.414  0.00  0.00    +0.210 HD
ENDBRANCH  11   3
BRANCH  12   6
ATOM      6  N   UNL     1       0.064   0.636  23.982  0.00  0.00    -0.305 NA
ATOM     24  H   UNL     1       0.982   0.456  23.572  0.00  0.00    +0.123 HD
BRANCH   6  16
ATOM     16  C   UNL     1      -0.321  -0.511  24.796  0.00  0.00    +0.119 C 
BRANCH  16  17
ATOM      1  F   UNL     1      -1.181  -3.187  25.157  0.00  0.00    -0.205 F 
ATOM     17  C   UNL     1      -1.720  -0.974  24.485  0.00  0.00    +0.002 A 
ATOM     18  C   UNL     1      -2.077  -2.308  24.685  0.00  0.00    +0.128 A 
ATOM     19  C   UNL     1      -2.658  -0.067  23.994  0.00  0.00    +0.008 A 
ATOM     20  C   UNL     1      -3.373  -2.734  24.396  0.00  0.00    +0.038 A 
ATOM     21  C   UNL     1      -3.954  -0.494  23.705  0.00  0.00    +0.000 A 
ATOM     22  C   UNL     1      -4.312  -1.827  23.906  0.00  0.00    +0.003 A 
ENDBRANCH  16  17
ENDBRANCH   6  16
ENDBRANCH  12   6
BRANCH  10  13
ATOM     13  C   UNL     1      -1.992   4.846  25.297  0.00  0.00    +0.138 C 
BRANCH  13   5
ATOM      4  O   UNL     1      -3.996   3.426  23.741  0.00  0.00    -0.276 OA
ATOM      5  N   UNL     1      -3.192   4.223  25.777  0.00  0.00    -0.313 N 
ATOM     15  C   UNL     1      -4.095   3.564  24.955  0.00  0.00    +0.216 C 
ATOM     23  H   UNL     1      -3.375   4.258  26.775  0.00  0.00    +0.149 HD
BRANCH  15   7
ATOM      7  C   UNL     1      -5.272   2.988  25.667  0.00  0.00    +0.075 C 
ATOM      8  C   UNL     1      -5.307   1.517  25.912  0.00  0.00    +0.013 C 
ATOM      9  C   UNL     1      -6.223   2.133  24.897  0.00  0.00    +0.013 C 
ENDBRANCH  15   7
ENDBRANCH  13   5
ENDBRANCH  10  13
TORSDOF 7
ENDMDL
MODEL 2
REMARK VINA RESULT:      -7.0      2.053      4.647
REMARK  Name = 75536550
REMARK  7 active torsions:
REMARK  status: ('A' for Active; 'I' for Inactive)
REMARK    1  A    between atoms: O_3  and  C_11
REMARK    2  A    between atoms: N_5  and  C_13
REMARK    3  A    between atoms: N_6  and  C_12
REMARK    4  A    between atoms: N_6  and  C_16
REMARK    5  A    between atoms: C_7  and  C_15
REMARK    6  A    between atoms: C_10  and  C_13
REMARK    7  A    between atoms: C_16  and  C_17
REMARK                            x       y       z     vdW  Elec       q    Type
REMARK                         _______ _______ _______ _____ _____    ______ ____
ROOT
ATOM      2  O   UNL     1       0.465   2.514  23.583  0.00  0.00    -0.371 OA
ATOM     10  C   UNL     1       0.366   1.352  24.425  0.00  0.00    +0.165 C 
ATOM     11  C   UNL     1      -0.749   1.646  25.419  0.00  0.00    +0.164 C 
ATOM     12  C   UNL     1      -0.567   3.138  25.630  0.00  0.00    +0.111 C 
ATOM     14  C   UNL     1      -0.226   3.601  24.223  0.00  0.00    +0.181 C 
ENDROOT
BRANCH  11   3
ATOM      3  O   UNL     1      -0.601   0.903  26.613  0.00  0.00    -0.388 OA
ATOM     25  H   UNL     1      -1.348   1.113  27.198  0.00  0.00    +0.210 HD
ENDBRANCH  11   3
BRANCH  12   6
ATOM      6  N   UNL     1      -1.743   3.798  26.174  0.00  0.00    -0.305 NA
ATOM     24  H   UNL     1      -1.450   4.633  26.683  0.00  0.00    +0.123 HD
BRANCH   6  16
ATOM     16  C   UNL     1      -2.662   4.191  25.112  0.00  0.00    +0.119 C 
BRANCH  16  17
ATOM      1  F   UNL     1      -3.085   2.187  23.154  0.00  0.00    -0.205 F 
ATOM     17  C   UNL     1      -3.888   3.318  25.081  0.00  0.00    +0.002 A 
ATOM     18  C   UNL     1      -4.034   2.350  24.087  0.00  0.00    +0.128 A 
ATOM     19  C   UNL     1      -4.880   3.479  26.047  0.00  0.00    +0.008 A 
ATOM     20  C   UNL     1      -5.170   1.542  24.060  0.00  0.00    +0.038 A 
ATOM     21  C   UNL     1      -6.017   2.671  26.021  0.00  0.00    +0.000 A 
ATOM     22  C   UNL     1      -6.162   1.702  25.028  0.00  0.00    +0.003 A 
ENDBRANCH  16  17
ENDBRANCH   6  16
ENDBRANCH  12   6
BRANCH  10  13
ATOM     13  C   UNL     1       0.104   0.123  23.573  0.00  0.00    +0.138 C 
BRANCH  13   5
ATOM      4  O   UNL     1      -0.212  -2.060  25.468  0.00  0.00    -0.276 OA
ATOM      5  N   UNL     1      -1.114  -0.530  23.961  0.00  0.00    -0.313 N 
ATOM     15  C   UNL     1      -1.168  -1.569  24.879  0.00  0.00    +0.216 C 
ATOM     23  H   UNL     1      -1.980  -0.196  23.548  0.00  0.00    +0.149 HD
BRANCH  15   7
ATOM      7  C   UNL     1      -2.540  -2.096  25.134  0.00  0.00    +0.075 C 
ATOM      8  C   UNL     1      -3.658  -1.625  24.264  0.00  0.00    +0.013 C 
ATOM      9  C   UNL     1      -3.569  -1.167  25.689  0.00  0.00    +0.013 C 
ENDBRANCH  15   7
ENDBRANCH  13   5
ENDBRANCH  10  13
TORSDOF 7
ENDMDL
MODEL 3
REMARK VINA RESULT:      -6.8      3.218      6.307
REMARK  Name = 75536550
REMARK  7 active torsions:
REMARK  status: ('A' for Active; 'I' for Inactive)
REMARK    1  A    between atoms: O_3  and  C_11
REMARK    2  A    between atoms: N_5  and  C_13
REMARK    3  A    between atoms: N_6  and  C_12
REMARK    4  A    between atoms: N_6  and  C_16
REMARK    5  A    between atoms: C_7  and  C_15
REMARK    6  A    between atoms: C_10  and  C_13
REMARK    7  A    between atoms: C_16  and  C_17
REMARK                            x       y       z     vdW  Elec       q    Type
REMARK                         _______ _______ _______ _____ _____    ______ ____
ROOT
ATOM      2  O   UNL     1      -0.066   0.614  25.037  0.00  0.00    -0.371 OA
ATOM     10  C   UNL     1       0.056  -0.563  24.220  0.00  0.00    +0.165 C 
ATOM     11  C   UNL     1      -1.339  -1.166  24.139  0.00  0.00    +0.164 C 
ATOM     12  C   UNL     1      -1.877  -0.845  25.521  0.00  0.00    +0.111 C 
ATOM     14  C   UNL     1      -1.316   0.550  25.746  0.00  0.00    +0.181 C 
ENDROOT
BRANCH  11   3
ATOM      3  O   UNL     1      -1.299  -2.555  23.878  0.00  0.00    -0.388 OA
ATOM     25  H   UNL     1      -1.825  -3.009  24.557  0.00  0.00    +0.210 HD
ENDBRANCH  11   3
BRANCH  12   6
ATOM      6  N   UNL     1      -3.327  -0.892  25.609  0.00  0.00    -0.305 NA
ATOM     24  H   UNL     1      -3.629  -0.365  26.430  0.00  0.00    +0.123 HD
BRANCH   6  16
ATOM     16  C   UNL     1      -3.944  -0.310  24.422  0.00  0.00    +0.119 C 
BRANCH  16  17
ATOM      1  F   UNL     1      -2.696   1.781  22.974  0.00  0.00    -0.205 F 
ATOM     17  C   UNL     1      -4.281   1.144  24.623  0.00  0.00    +0.002 A 
ATOM     18  C   UNL     1      -3.628   2.124  23.876  0.00  0.00    +0.128 A 
ATOM     19  C   UNL     1      -5.248   1.510  25.558  0.00  0.00    +0.008 A 
ATOM     20  C   UNL     1      -3.942   3.470  24.064  0.00  0.00    +0.038 A 
ATOM     21  C   UNL     1      -5.562   2.856  25.746  0.00  0.00    +0.000 A 
ATOM     22  C   UNL     1      -4.909   3.836  24.998  0.00  0.00    +0.003 A 
ENDBRANCH  16  17
ENDBRANCH   6  16
ENDBRANCH  12   6
BRANCH  10  13
ATOM     13  C   UNL     1       0.629  -0.188  22.864  0.00  0.00    +0.138 C 
BRANCH  13   5
ATOM      4  O   UNL     1       2.809   1.718  23.124  0.00  0.00    -0.276 OA
ATOM      5  N   UNL     1       2.037  -0.456  22.800  0.00  0.00    -0.313 N 
ATOM     15  C   UNL     1       3.010   0.523  22.936  0.00  0.00    +0.216 C 
ATOM     23  H   UNL     1       2.329  -1.420  22.664  0.00  0.00    +0.149 HD
BRANCH  15   7
ATOM      7  C   UNL     1       4.411   0.019  22.839  0.00  0.00    +0.075 C 
ATOM      8  C   UNL     1       4.895  -0.942  23.873  0.00  0.00    +0.013 C 
ATOM      9  C   UNL     1       5.402   0.468  23.861  0.00  0.00    +0.013 C 
ENDBRANCH  15   7
ENDBRANCH  13   5
ENDBRANCH  10  13
TORSDOF 7
ENDMDL
MODEL 4
REMARK VINA RESULT:      -6.4      2.329      4.884
REMARK  Name = 75536550
REMARK  7 active torsions:
REMARK  status: ('A' for Active; 'I' for Inactive)
REMARK    1  A    between atoms: O_3  and  C_11
REMARK    2  A    between atoms: N_5  and  C_13
REMARK    3  A    between atoms: N_6  and  C_12
REMARK    4  A    between atoms: N_6  and  C_16
REMARK    5  A    between atoms: C_7  and  C_15
REMARK    6  A    between atoms: C_10  and  C_13
REMARK    7  A    between atoms: C_16  and  C_17
REMARK                            x       y       z     vdW  Elec       q    Type
REMARK                         _______ _______ _______ _____ _____    ______ ____
ROOT
ATOM      2  O   UNL     1      -1.187   2.021  22.956  0.00  0.00    -0.371 OA
ATOM     10  C   UNL     1      -0.993   2.747  24.182  0.00  0.00    +0.165 C 
ATOM     11  C   UNL     1      -2.268   2.557  24.991  0.00  0.00    +0.164 C 
ATOM     12  C   UNL     1      -3.312   2.528  23.890  0.00  0.00    +0.111 C 
ATOM     14  C   UNL     1      -2.590   1.736  22.812  0.00  0.00    +0.181 C 
ENDROOT
BRANCH  11   3
ATOM      3  O   UNL     1      -2.472   3.611  25.910  0.00  0.00    -0.388 OA
ATOM     25  H   UNL     1      -2.247   4.448  25.470  0.00  0.00    +0.210 HD
ENDBRANCH  11   3
BRANCH  12   6
ATOM      6  N   UNL     1      -4.569   1.919  24.293  0.00  0.00    -0.305 NA
ATOM     24  H   UNL     1      -4.948   1.387  23.508  0.00  0.00    +0.123 HD
BRANCH   6  16
ATOM     16  C   UNL     1      -4.377   1.018  25.424  0.00  0.00    +0.119 C 
BRANCH  16  17
ATOM      1  F   UNL     1      -1.993  -0.221  26.324  0.00  0.00    -0.205 F 
ATOM     17  C   UNL     1      -3.945  -0.355  24.979  0.00  0.00    +0.002 A 
ATOM     18  C   UNL     1      -2.758  -0.905  25.462  0.00  0.00    +0.128 A 
ATOM     19  C   UNL     1      -4.735  -1.074  24.084  0.00  0.00    +0.008 A 
ATOM     20  C   UNL     1      -2.360  -2.177  25.048  0.00  0.00    +0.038 A 
ATOM     21  C   UNL     1      -4.337  -2.346  23.670  0.00  0.00    +0.000 A 
ATOM     22  C   UNL     1      -3.150  -2.897  24.153  0.00  0.00    +0.003 A 
ENDBRANCH  16  17
ENDBRANCH   6  16
ENDBRANCH  12   6
BRANCH  10  13
ATOM     13  C   UNL     1       0.250   2.237  24.889  0.00  0.00    +0.138 C 
BRANCH  13   5
ATOM      4  O   UNL     1       0.475  -0.465  23.837  0.00  0.00    -0.276 OA
ATOM      5  N   UNL     1       1.217   1.741  23.952  0.00  0.00    -0.313 N 
ATOM     15  C   UNL     1       1.247   0.428  23.504  0.00  0.00    +0.216 C 
ATOM     23  H   UNL     1       1.903   2.397  23.589  0.00  0.00    +0.149 HD
BRANCH  15   7
ATOM      7  C   UNL     1       2.337   0.133  22.529  0.00  0.00    +0.075 C 
ATOM      8  C   UNL     1       3.596  -0.488  23.034  0.00  0.00    +0.013 C 
ATOM      9  C   UNL     1       3.588   0.944  22.591  0.00  0.00    +0.013 C 
ENDBRANCH  15   7
ENDBRANCH  13   5
ENDBRANCH  10  13
TORSDOF 7
ENDMDL
MODEL 5
REMARK VINA RESULT:      -5.9      2.628      4.647
REMARK  Name = 75536550
REMARK  7 active torsions:
REMARK  status: ('A' for Active; 'I' for Inactive)
REMARK    1  A    between atoms: O_3  and  C_11
REMARK    2  A    between atoms: N_5  and  C_13
REMARK    3  A    between atoms: N_6  and  C_12
REMARK    4  A    between atoms: N_6  and  C_16
REMARK    5  A    between atoms: C_7  and  C_15
REMARK    6  A    between atoms: C_10  and  C_13
REMARK    7  A    between atoms: C_16  and  C_17
REMARK                            x       y       z     vdW  Elec       q    Type
REMARK                         _______ _______ _______ _____ _____    ______ ____
ROOT
ATOM      2  O   UNL     1      -1.720  -2.406  23.855  0.00  0.00    -0.371 OA
ATOM     10  C   UNL     1      -1.930  -2.154  25.255  0.00  0.00    +0.165 C 
ATOM     11  C   UNL     1      -1.310  -0.792  25.535  0.00  0.00    +0.164 C 
ATOM     12  C   UNL     1      -0.120  -0.814  24.594  0.00  0.00    +0.111 C 
ATOM     14  C   UNL     1      -0.713  -1.499  23.374  0.00  0.00    +0.181 C 
ENDROOT
BRANCH  11   3
ATOM      3  O   UNL     1      -0.932  -0.653  26.890  0.00  0.00    -0.388 OA
ATOM     25  H   UNL     1      -1.732  -0.480  27.414  0.00  0.00    +0.210 HD
ENDBRANCH  11   3
BRANCH  12   6
ATOM      6  N   UNL     1       0.415   0.506  24.298  0.00  0.00    -0.305 NA
ATOM     24  H   UNL     1       1.329   0.403  23.856  0.00  0.00    +0.123 HD
BRANCH   6  16
ATOM     16  C   UNL     1      -0.466   1.238  23.396  0.00  0.00    +0.119 C 
BRANCH  16  17
ATOM      1  F   UNL     1      -2.888   2.338  22.418  0.00  0.00    -0.205 F 
ATOM     17  C   UNL     1      -1.224   2.324  24.113  0.00  0.00    +0.002 A 
ATOM     18  C   UNL     1      -2.411   2.821  23.575  0.00  0.00    +0.128 A 
ATOM     19  C   UNL     1      -0.738   2.832  25.317  0.00  0.00    +0.008 A 
ATOM     20  C   UNL     1      -3.112   3.827  24.241  0.00  0.00    +0.038 A 
ATOM     21  C   UNL     1      -1.439   3.838  25.982  0.00  0.00    +0.000 A 
ATOM     22  C   UNL     1      -2.626   4.335  25.445  0.00  0.00    +0.003 A 
ENDBRANCH  16  17
ENDBRANCH   6  16
ENDBRANCH  12   6
BRANCH  10  13
ATOM     13  C   UNL     1      -3.414  -2.215  25.569  0.00  0.00    +0.138 C 
BRANCH  13   5
ATOM      4  O   UNL     1      -4.291  -0.171  23.696  0.00  0.00    -0.276 OA
ATOM      5  N   UNL     1      -3.936  -0.914  25.875  0.00  0.00    -0.313 N 
ATOM     15  C   UNL     1      -4.332   0.000  24.909  0.00  0.00    +0.216 C 
ATOM     23  H   UNL     1      -4.033  -0.662  26.855  0.00  0.00    +0.149 HD
BRANCH  15   7
ATOM      7  C   UNL     1      -4.846   1.291  25.453  0.00  0.00    +0.075 C 
ATOM      8  C   UNL     1      -6.193   1.305  26.097  0.00  0.00    +0.013 C 
ATOM      9  C   UNL     1      -5.991   1.950  24.759  0.00  0.00    +0.013 C 
ENDBRANCH  15   7
ENDBRANCH  13   5
ENDBRANCH  10  13
TORSDOF 7
ENDMDL
MODEL 6
REMARK VINA RESULT:      -5.8      2.405      4.702
REMARK  Name = 75536550
REMARK  7 active torsions:
REMARK  status: ('A' for Active; 'I' for Inactive)
REMARK    1  A    between atoms: O_3  and  C_11
REMARK    2  A    between atoms: N_5  and  C_13
REMARK    3  A    between atoms: N_6  and  C_12
REMARK    4  A    between atoms: N_6  and  C_16
REMARK    5  A    between atoms: C_7  and  C_15
REMARK    6  A    between atoms: C_10  and  C_13
REMARK    7  A    between atoms: C_16  and  C_17
REMARK                            x       y       z     vdW  Elec       q    Type
REMARK                         _______ _______ _______ _____ _____    ______ ____
ROOT
ATOM      2  O   UNL     1      -0.891  -0.263  26.163  0.00  0.00    -0.371 OA
ATOM     10  C   UNL     1      -0.428  -0.940  24.982  0.00  0.00    +0.165 C 
ATOM     11  C   UNL     1      -1.676  -1.430  24.261  0.00  0.00    +0.164 C 
ATOM     12  C   UNL     1      -2.578  -1.769  25.434  0.00  0.00    +0.111 C 
ATOM     14  C   UNL     1      -2.262  -0.633  26.393  0.00  0.00    +0.181 C 
ENDROOT
BRANCH  11   3
ATOM      3  O   UNL     1      -1.406  -2.548  23.439  0.00  0.00    -0.388 OA
ATOM     25  H   UNL     1      -1.901  -2.444  22.609  0.00  0.00    +0.210 HD
ENDBRANCH  11   3
BRANCH  12   6
ATOM      6  N   UNL     1      -3.987  -1.839  25.085  0.00  0.00    -0.305 NA
ATOM     24  H   UNL     1      -4.544  -1.540  25.887  0.00  0.00    +0.123 HD
BRANCH   6  16
ATOM     16  C   UNL     1      -4.291  -0.974  23.951  0.00  0.00    +0.119 C 
BRANCH  16  17
ATOM      1  F   UNL     1      -3.073   1.294  22.768  0.00  0.00    -0.205 F 
ATOM     17  C   UNL     1      -4.584   0.438  24.387  0.00  0.00    +0.002 A 
ATOM     18  C   UNL     1      -3.948   1.510  23.761  0.00  0.00    +0.128 A 
ATOM     19  C   UNL     1      -5.493   0.672  25.418  0.00  0.00    +0.008 A 
ATOM     20  C   UNL     1      -4.221   2.816  24.166  0.00  0.00    +0.038 A 
ATOM     21  C   UNL     1      -5.766   1.978  25.823  0.00  0.00    +0.000 A 
ATOM     22  C   UNL     1      -5.130   3.051  25.197  0.00  0.00    +0.003 A 
ENDBRANCH  16  17
ENDBRANCH   6  16
ENDBRANCH  12   6
BRANCH  10  13
ATOM     13  C   UNL     1       0.417   0.005  24.147  0.00  0.00    +0.138 C 
BRANCH  13   5
ATOM      4  O   UNL     1       0.592   2.410  25.772  0.00  0.00    -0.276 OA
ATOM      5  N   UNL     1      -0.255   1.255  23.934  0.00  0.00    -0.313 N 
ATOM     15  C   UNL     1      -0.109   2.355  24.768  0.00  0.00    +0.216 C 
ATOM     23  H   UNL     1      -0.855   1.336  23.119  0.00  0.00    +0.149 HD
BRANCH  15   7
ATOM      7  C   UNL     1      -0.899   3.551  24.355  0.00  0.00    +0.075 C 
ATOM      8  C   UNL     1      -0.405   4.902  24.751  0.00  0.00    +0.013 C 
ATOM      9  C   UNL     1      -1.623   4.325  25.407  0.00  0.00    +0.013 C 
ENDBRANCH  15   7
ENDBRANCH  13   5
ENDBRANCH  10  13
TORSDOF 7
ENDMDL
MODEL 7
REMARK VINA RESULT:      -4.9      3.545      5.315
REMARK  Name = 75536550
REMARK  7 active torsions:
REMARK  status: ('A' for Active; 'I' for Inactive)
REMARK    1  A    between atoms: O_3  and  C_11
REMARK    2  A    between atoms: N_5  and  C_13
REMARK    3  A    between atoms: N_6  and  C_12
REMARK    4  A    between atoms: N_6  and  C_16
REMARK    5  A    between atoms: C_7  and  C_15
REMARK    6  A    between atoms: C_10  and  C_13
REMARK    7  A    between atoms: C_16  and  C_17
REMARK                            x       y       z     vdW  Elec       q    Type
REMARK                         _______ _______ _______ _____ _____    ______ ____
ROOT
ATOM      2  O   UNL     1      -1.783  -1.829  24.335  0.00  0.00    -0.371 OA
ATOM     10  C   UNL     1      -1.993  -0.879  25.394  0.00  0.00    +0.165 C 
ATOM     11  C   UNL     1      -1.143   0.335  25.045  0.00  0.00    +0.164 C 
ATOM     12  C   UNL     1       0.055  -0.325  24.389  0.00  0.00    +0.111 C 
ATOM     14  C   UNL     1      -0.611  -1.440  23.598  0.00  0.00    +0.181 C 
ENDROOT
BRANCH  11   3
ATOM      3  O   UNL     1      -0.794   1.083  26.193  0.00  0.00    -0.388 OA
ATOM     25  H   UNL     1      -0.175   0.555  26.725  0.00  0.00    +0.210 HD
ENDBRANCH  11   3
BRANCH  12   6
ATOM      6  N   UNL     1       0.833   0.575  23.553  0.00  0.00    -0.305 NA
ATOM     24  H   UNL     1       1.438   1.142  24.148  0.00  0.00    +0.123 HD
BRANCH   6  16
ATOM     16  C   UNL     1       1.660  -0.169  22.610  0.00  0.00    +0.119 C 
BRANCH  16  17
ATOM      1  F   UNL     1       3.453   2.025  22.550  0.00  0.00    -0.205 F 
ATOM     17  C   UNL     1       3.090  -0.263  23.073  0.00  0.00    +0.002 A 
ATOM     18  C   UNL     1       3.920   0.857  23.016  0.00  0.00    +0.128 A 
ATOM     19  C   UNL     1       3.584  -1.473  23.560  0.00  0.00    +0.008 A 
ATOM     20  C   UNL     1       5.244   0.767  23.446  0.00  0.00    +0.038 A 
ATOM     21  C   UNL     1       4.908  -1.562  23.989  0.00  0.00    +0.000 A 
ATOM     22  C   UNL     1       5.738  -0.443  23.933  0.00  0.00    +0.003 A 
ENDBRANCH  16  17
ENDBRANCH   6  16
ENDBRANCH  12   6
BRANCH  10  13
ATOM     13  C   UNL     1      -3.473  -0.563  25.514  0.00  0.00    +0.138 C 
BRANCH  13   5
ATOM      4  O   UNL     1      -3.598   1.032  23.086  0.00  0.00    -0.276 OA
ATOM      5  N   UNL     1      -3.715   0.847  25.405  0.00  0.00    -0.313 N 
ATOM     15  C   UNL     1      -3.758   1.527  24.196  0.00  0.00    +0.216 C 
ATOM     23  H   UNL     1      -3.879   1.366  26.263  0.00  0.00    +0.149 HD
BRANCH  15   7
ATOM      7  C   UNL     1      -4.027   2.989  24.318  0.00  0.00    +0.075 C 
ATOM      8  C   UNL     1      -3.299   3.762  25.367  0.00  0.00    +0.013 C 
ATOM      9  C   UNL     1      -4.763   3.480  25.520  0.00  0.00    +0.013 C 
ENDBRANCH  15   7
ENDBRANCH  13   5
ENDBRANCH  10  13
TORSDOF 7
ENDMDL
MODEL 8
REMARK VINA RESULT:      -4.6      2.341      4.731
REMARK  Name = 75536550
REMARK  7 active torsions:
REMARK  status: ('A' for Active; 'I' for Inactive)
REMARK    1  A    between atoms: O_3  and  C_11
REMARK    2  A    between atoms: N_5  and  C_13
REMARK    3  A    between atoms: N_6  and  C_12
REMARK    4  A    between atoms: N_6  and  C_16
REMARK    5  A    between atoms: C_7  and  C_15
REMARK    6  A    between atoms: C_10  and  C_13
REMARK    7  A    between atoms: C_16  and  C_17
REMARK                            x       y       z     vdW  Elec       q    Type
REMARK                         _______ _______ _______ _____ _____    ______ ____
ROOT
ATOM      2  O   UNL     1      -0.219  -1.392  25.099  0.00  0.00    -0.371 OA
ATOM     10  C   UNL     1      -0.412  -0.533  23.962  0.00  0.00    +0.165 C 
ATOM     11  C   UNL     1      -1.787   0.097  24.139  0.00  0.00    +0.164 C 
ATOM     12  C   UNL     1      -2.549  -1.043  24.791  0.00  0.00    +0.111 C 
ATOM     14  C   UNL     1      -1.494  -1.612  25.726  0.00  0.00    +0.181 C 
ENDROOT
BRANCH  11   3
ATOM      3  O   UNL     1      -2.349   0.492  22.904  0.00  0.00    -0.388 OA
ATOM     25  H   UNL     1      -2.941   1.247  23.065  0.00  0.00    +0.210 HD
ENDBRANCH  11   3
BRANCH  12   6
ATOM      6  N   UNL     1      -3.752  -0.618  25.487  0.00  0.00    -0.305 NA
ATOM     24  H   UNL     1      -3.504   0.091  26.179  0.00  0.00    +0.123 HD
BRANCH   6  16
ATOM     16  C   UNL     1      -4.723  -0.050  24.559  0.00  0.00    +0.119 C 
BRANCH  16  17
ATOM      1  F   UNL     1      -6.366   1.067  26.579  0.00  0.00    -0.205 F 
ATOM     17  C   UNL     1      -4.886   1.434  24.757  0.00  0.00    +0.002 A 
ATOM     18  C   UNL     1      -5.713   1.917  25.772  0.00  0.00    +0.128 A 
ATOM     19  C   UNL     1      -4.211   2.325  23.925  0.00  0.00    +0.008 A 
ATOM     20  C   UNL     1      -5.863   3.291  25.955  0.00  0.00    +0.038 A 
ATOM     21  C   UNL     1      -4.361   3.699  24.107  0.00  0.00    +0.000 A 
ATOM     22  C   UNL     1      -5.187   4.183  25.122  0.00  0.00    +0.003 A 
ENDBRANCH  16  17
ENDBRANCH   6  16
ENDBRANCH  12   6
BRANCH  10  13
ATOM     13  C   UNL     1       0.711   0.487  23.893  0.00  0.00    +0.138 C 
BRANCH  13   5
ATOM      4  O   UNL     1      -0.696   2.943  23.227  0.00  0.00    -0.276 OA
ATOM      5  N   UNL     1       0.452   1.607  24.752  0.00  0.00    -0.313 N 
ATOM     15  C   UNL     1      -0.232   2.743  24.344  0.00  0.00    +0.216 C 
ATOM     23  H   UNL     1       0.776   1.551  25.713  0.00  0.00    +0.149 HD
BRANCH  15   7
ATOM      7  C   UNL     1      -0.390   3.782  25.403  0.00  0.00    +0.075 C 
ATOM      8  C   UNL     1      -1.694   3.873  26.123  0.00  0.00    +0.013 C 
ATOM      9  C   UNL     1      -1.303   4.934  25.140  0.00  0.00    +0.013 C 
ENDBRANCH  15   7
ENDBRANCH  13   5
ENDBRANCH  10  13
TORSDOF 7
ENDMDL
MODEL 9
REMARK VINA RESULT:      -4.5      3.317      6.340
REMARK  Name = 75536550
REMARK  7 active torsions:
REMARK  status: ('A' for Active; 'I' for Inactive)
REMARK    1  A    between atoms: O_3  and  C_11
REMARK    2  A    between atoms: N_5  and  C_13
REMARK    3  A    between atoms: N_6  and  C_12
REMARK    4  A    between atoms: N_6  and  C_16
REMARK    5  A    between atoms: C_7  and  C_15
REMARK    6  A    between atoms: C_10  and  C_13
REMARK    7  A    between atoms: C_16  and  C_17
REMARK                            x       y       z     vdW  Elec       q    Type
REMARK                         _______ _______ _______ _____ _____    ______ ____
ROOT
ATOM      2  O   UNL     1       0.623  -0.644  24.343  0.00  0.00    -0.371 OA
ATOM     10  C   UNL     1       0.243   0.390  23.419  0.00  0.00    +0.165 C 
ATOM     11  C   UNL     1      -1.150   0.839  23.839  0.00  0.00    +0.164 C 
ATOM     12  C   UNL     1      -1.746  -0.470  24.321  0.00  0.00    +0.111 C 
ATOM     14  C   UNL     1      -0.557  -1.100  25.028  0.00  0.00    +0.181 C 
ENDROOT
BRANCH  11   3
ATOM      3  O   UNL     1      -1.870   1.403  22.761  0.00  0.00    -0.388 OA
ATOM     25  H   UNL     1      -1.463   2.257  22.536  0.00  0.00    +0.210 HD
ENDBRANCH  11   3
BRANCH  12   6
ATOM      6  N   UNL     1      -2.897  -0.302  25.193  0.00  0.00    -0.305 NA
ATOM     24  H   UNL     1      -2.645   0.323  25.960  0.00  0.00    +0.123 HD
BRANCH   6  16
ATOM     16  C   UNL     1      -4.025   0.274  24.468  0.00  0.00    +0.119 C 
BRANCH  16  17
ATOM      1  F   UNL     1      -6.677   1.231  24.740  0.00  0.00    -0.205 F 
ATOM     17  C   UNL     1      -4.351   1.662  24.951  0.00  0.00    +0.002 A 
ATOM     18  C   UNL     1      -5.681   2.069  25.061  0.00  0.00    +0.128 A 
ATOM     19  C   UNL     1      -3.323   2.540  25.289  0.00  0.00    +0.008 A 
ATOM     20  C   UNL     1      -5.982   3.356  25.509  0.00  0.00    +0.038 A 
ATOM     21  C   UNL     1      -3.623   3.826  25.737  0.00  0.00    +0.000 A 
ATOM     22  C   UNL     1      -4.953   4.234  25.847  0.00  0.00    +0.003 A 
ENDBRANCH  16  17
ENDBRANCH   6  16
ENDBRANCH  12   6
BRANCH  10  13
ATOM     13  C   UNL     1       1.270   1.508  23.450  0.00  0.00    +0.138 C 
BRANCH  13   5
ATOM      4  O   UNL     1       2.702   0.097  21.350  0.00  0.00    -0.276 OA
ATOM      5  N   UNL     1       2.606   0.988  23.500  0.00  0.00    -0.313 N 
ATOM     15  C   UNL     1       3.211   0.325  22.442  0.00  0.00    +0.216 C 
ATOM     23  H   UNL     1       3.137   1.131  24.354  0.00  0.00    +0.149 HD
BRANCH  15   7
ATOM      7  C   UNL     1       4.606  -0.128  22.713  0.00  0.00    +0.075 C 
ATOM      8  C   UNL     1       4.885  -0.850  23.989  0.00  0.00    +0.013 C 
ATOM      9  C   UNL     1       5.379   0.552  23.794  0.00  0.00    +0.013 C 
ENDBRANCH  15   7
ENDBRANCH  13   5
ENDBRANCH  10  13
TORSDOF 7
ENDMDL
MODEL 10
REMARK VINA RESULT:      -3.9      2.538      4.957
REMARK  Name = 75536550
REMARK  7 active torsions:
REMARK  status: ('A' for Active; 'I' for Inactive)
REMARK    1  A    between atoms: O_3  and  C_11
REMARK    2  A    between atoms: N_5  and  C_13
REMARK    3  A    between atoms: N_6  and  C_12
REMARK    4  A    between atoms: N_6  and  C_16
REMARK    5  A    between atoms: C_7  and  C_15
REMARK    6  A    between atoms: C_10  and  C_13
REMARK    7  A    between atoms: C_16  and  C_17
REMARK                            x       y       z     vdW  Elec       q    Type
REMARK                         _______ _______ _______ _____ _____    ______ ____
ROOT
ATOM      2  O   UNL     1      -2.165  -0.149  23.118  0.00  0.00    -0.371 OA
ATOM     10  C   UNL     1      -1.854  -1.234  24.009  0.00  0.00    +0.165 C 
ATOM     11  C   UNL     1      -0.973  -0.642  25.101  0.00  0.00    +0.164 C 
ATOM     12  C   UNL     1      -0.184   0.388  24.314  0.00  0.00    +0.111 C 
ATOM     14  C   UNL     1      -1.250   0.930  23.375  0.00  0.00    +0.181 C 
ENDROOT
BRANCH  11   3
ATOM      3  O   UNL     1      -0.148  -1.621  25.700  0.00  0.00    -0.388 OA
ATOM     25  H   UNL     1      -0.575  -1.921  26.520  0.00  0.00    +0.210 HD
ENDBRANCH  11   3
BRANCH  12   6
ATOM      6  N   UNL     1       0.418   1.420  25.142  0.00  0.00    -0.305 NA
ATOM     24  H   UNL     1       0.776   2.163  24.541  0.00  0.00    +0.123 HD
BRANCH   6  16
ATOM     16  C   UNL     1      -0.558   1.989  26.064  0.00  0.00    +0.119 C 
BRANCH  16  17
ATOM      1  F   UNL     1      -3.045   3.122  26.813  0.00  0.00    -0.205 F 
ATOM     17  C   UNL     1      -0.997   3.364  25.635  0.00  0.00    +0.002 A 
ATOM     18  C   UNL     1      -2.236   3.861  26.040  0.00  0.00    +0.128 A 
ATOM     19  C   UNL     1      -0.163   4.140  24.832  0.00  0.00    +0.008 A 
ATOM     20  C   UNL     1      -2.640   5.136  25.642  0.00  0.00    +0.038 A 
ATOM     21  C   UNL     1      -0.567   5.415  24.434  0.00  0.00    +0.000 A 
ATOM     22  C   UNL     1      -1.806   5.913  24.839  0.00  0.00    +0.003 A 
ENDBRANCH  16  17
ENDBRANCH   6  16
ENDBRANCH  12   6
BRANCH  10  13
ATOM     13  C   UNL     1      -3.138  -1.846  24.539  0.00  0.00    +0.138 C 
BRANCH  13   5
ATOM      4  O   UNL     1      -3.611   0.643  25.966  0.00  0.00    -0.276 OA
ATOM      5  N   UNL     1      -4.247  -0.948  24.387  0.00  0.00    -0.313 N 
ATOM     15  C   UNL     1      -4.389   0.225  25.115  0.00  0.00    +0.216 C 
ATOM     23  H   UNL     1      -4.953  -1.182  23.695  0.00  0.00    +0.149 HD
BRANCH  15   7
ATOM      7  C   UNL     1      -5.617   1.008  24.792  0.00  0.00    +0.075 C 
ATOM      8  C   UNL     1      -5.531   2.498  24.791  0.00  0.00    +0.013 C 
ATOM      9  C   UNL     1      -6.273   1.787  25.883  0.00  0.00    +0.013 C 
ENDBRANCH  15   7
ENDBRANCH  13   5
ENDBRANCH  10  13
TORSDOF 7
ENDMDL
