MODEL 1
REMARK VINA RESULT:      -4.5      0.000      0.000
REMARK  Name = 71694019
REMARK  8 active torsions:
REMARK  status: ('A' for Active; 'I' for Inactive)
REMARK    1  A    between atoms: S_1  and  N_6
REMARK    2  A    between atoms: S_1  and  C_17
REMARK    3  A    between atoms: O_2  and  C_10
REMARK    4  A    between atoms: O_3  and  C_12
REMARK    5  A    between atoms: N_6  and  C_9
REMARK    6  A    between atoms: C_8  and  C_13
REMARK    7  A    between atoms: C_14  and  C_18
REMARK    8  A    between atoms: C_23  and  C_26
REMARK                            x       y       z     vdW  Elec       q    Type
REMARK                         _______ _______ _______ _____ _____    ______ ____
ROOT
ATOM      8  C   UNL     1      -3.915   1.428  24.210  0.00  0.00    +0.043 C 
ATOM      9  C   UNL     1      -2.909   2.328  24.979  0.00  0.00    +0.115 C 
ATOM     10  C   UNL     1      -3.756   3.389  25.694  0.00  0.00    +0.162 C 
ATOM     11  C   UNL     1      -5.310   1.933  24.620  0.00  0.00    +0.043 C 
ATOM     12  C   UNL     1      -5.071   3.404  24.919  0.00  0.00    +0.145 C 
ENDROOT
BRANCH   8  13
ATOM     13  C   UNL     1      -3.725  -0.053  24.451  0.00  0.00    -0.040 A 
ATOM     14  C   UNL     1      -2.784  -0.515  25.372  0.00  0.00    -0.047 A 
ATOM     15  C   UNL     1      -4.505  -0.961  23.737  0.00  0.00    +0.004 A 
ATOM     16  C   UNL     1      -2.625  -1.885  25.579  0.00  0.00    +0.003 A 
ATOM     18  C   UNL     1      -1.936   0.439  26.149  0.00  0.00    +0.044 C 
ATOM     19  C   UNL     1      -4.346  -2.331  23.943  0.00  0.00    +0.000 A 
ATOM     20  C   UNL     1      -3.406  -2.793  24.864  0.00  0.00    +0.000 A 
ENDBRANCH   8  13
BRANCH  10   2
ATOM      2  O   UNL     1      -3.969   2.955  27.036  0.00  0.00    -0.388 OA
ATOM     28  H   UNL     1      -3.397   3.493  27.610  0.00  0.00    +0.210 HD
ENDBRANCH  10   2
BRANCH  12   3
ATOM      3  O   UNL     1      -6.135   3.963  25.659  0.00  0.00    -0.389 OA
ATOM     29  H   UNL     1      -6.068   4.931  25.584  0.00  0.00    +0.210 HD
ENDBRANCH  12   3
BRANCH   9   6
ATOM      6  N   UNL     1      -2.004   2.994  24.006  0.00  0.00    -0.184 NA
ATOM     27  H   UNL     1      -2.328   3.090  23.037  0.00  0.00    +0.148 HD
BRANCH   6   1
ATOM      1  S   UNL     1      -0.375   3.257  24.410  0.00  0.00    +0.059 S 
ATOM      4  O   UNL     1      -0.220   3.212  25.851  0.00  0.00    -0.153 OA
ATOM      5  O   UNL     1       0.115   4.398  23.658  0.00  0.00    -0.153 OA
BRANCH   1  17
ATOM     17  C   UNL     1       0.404   1.821  23.734  0.00  0.00    +0.106 A 
ATOM     21  C   UNL     1       1.794   1.760  23.638  0.00  0.00    +0.047 A 
ATOM     22  C   UNL     1      -0.373   0.747  23.297  0.00  0.00    +0.028 A 
ATOM     23  C   UNL     1       2.408   0.627  23.103  0.00  0.00    +0.054 A 
ATOM     24  C   UNL     1       0.241  -0.386  22.762  0.00  0.00    +0.003 A 
ATOM     25  C   UNL     1       1.632  -0.445  22.666  0.00  0.00    +0.019 A 
BRANCH  23  26
ATOM      7  N   UNL     1       4.989   0.516  22.925  0.00  0.00    -0.191 NA
ATOM     26  C   UNL     1       3.832   0.566  23.005  0.00  0.00    +0.099 C 
ENDBRANCH  23  26
ENDBRANCH   1  17
ENDBRANCH   6   1
ENDBRANCH   9   6
TORSDOF 7
ENDMDL
MODEL 2
REMARK VINA RESULT:      -4.3      1.375      1.884
REMARK  Name = 71694019
REMARK  8 active torsions:
REMARK  status: ('A' for Active; 'I' for Inactive)
REMARK    1  A    between atoms: S_1  and  N_6
REMARK    2  A    between atoms: S_1  and  C_17
REMARK    3  A    between atoms: O_2  and  C_10
REMARK    4  A    between atoms: O_3  and  C_12
REMARK    5  A    between atoms: N_6  and  C_9
REMARK    6  A    between atoms: C_8  and  C_13
REMARK    7  A    between atoms: C_14  and  C_18
REMARK    8  A    between atoms: C_23  and  C_26
REMARK                            x       y       z     vdW  Elec       q    Type
REMARK                         _______ _______ _______ _____ _____    ______ ____
ROOT
ATOM      8  C   UNL     1      -4.172   2.088  24.501  0.00  0.00    +0.043 C 
ATOM      9  C   UNL     1      -3.267   2.969  25.405  0.00  0.00    +0.115 C 
ATOM     10  C   UNL     1      -4.210   3.944  26.121  0.00  0.00    +0.162 C 
ATOM     11  C   UNL     1      -5.614   2.508  24.834  0.00  0.00    +0.043 C 
ATOM     12  C   UNL     1      -5.463   3.963  25.249  0.00  0.00    +0.145 C 
ENDROOT
BRANCH   8  13
ATOM     13  C   UNL     1      -3.936   0.602  24.656  0.00  0.00    -0.040 A 
ATOM     14  C   UNL     1      -3.454  -0.163  23.594  0.00  0.00    -0.047 A 
ATOM     15  C   UNL     1      -4.209  -0.003  25.883  0.00  0.00    +0.004 A 
ATOM     16  C   UNL     1      -3.243  -1.531  23.758  0.00  0.00    +0.003 A 
ATOM     18  C   UNL     1      -3.155   0.463  22.270  0.00  0.00    +0.044 C 
ATOM     19  C   UNL     1      -3.999  -1.372  26.047  0.00  0.00    +0.000 A 
ATOM     20  C   UNL     1      -3.516  -2.137  24.985  0.00  0.00    +0.000 A 
ENDBRANCH   8  13
BRANCH  10   2
ATOM      2  O   UNL     1      -4.504   3.408  27.411  0.00  0.00    -0.388 OA
ATOM     28  H   UNL     1      -3.678   3.414  27.923  0.00  0.00    +0.210 HD
ENDBRANCH  10   2
BRANCH  12   3
ATOM      3  O   UNL     1      -6.604   4.427  25.940  0.00  0.00    -0.389 OA
ATOM     29  H   UNL     1      -6.324   4.664  26.841  0.00  0.00    +0.210 HD
ENDBRANCH  12   3
BRANCH   9   6
ATOM      6  N   UNL     1      -2.321   3.736  24.553  0.00  0.00    -0.184 NA
ATOM     27  H   UNL     1      -2.678   4.133  23.676  0.00  0.00    +0.148 HD
BRANCH   6   1
ATOM      1  S   UNL     1      -0.651   3.647  24.851  0.00  0.00    +0.059 S 
ATOM      4  O   UNL     1      -0.390   3.971  26.240  0.00  0.00    -0.153 OA
ATOM      5  O   UNL     1       0.051   4.351  23.793  0.00  0.00    -0.153 OA
BRANCH   1  17
ATOM     17  C   UNL     1      -0.331   1.924  24.625  0.00  0.00    +0.106 A 
ATOM     21  C   UNL     1       0.290   1.476  23.460  0.00  0.00    +0.047 A 
ATOM     22  C   UNL     1      -0.701   1.011  25.614  0.00  0.00    +0.028 A 
ATOM     23  C   UNL     1       0.541   0.115  23.282  0.00  0.00    +0.054 A 
ATOM     24  C   UNL     1      -0.450  -0.350  25.436  0.00  0.00    +0.003 A 
ATOM     25  C   UNL     1       0.171  -0.797  24.269  0.00  0.00    +0.019 A 
BRANCH  23  26
ATOM      7  N   UNL     1       1.695  -0.716  21.117  0.00  0.00    -0.191 NA
ATOM     26  C   UNL     1       1.178  -0.344  22.087  0.00  0.00    +0.099 C 
ENDBRANCH  23  26
ENDBRANCH   1  17
ENDBRANCH   6   1
ENDBRANCH   9   6
TORSDOF 7
ENDMDL
MODEL 3
REMARK VINA RESULT:      -3.7      2.605      5.631
REMARK  Name = 71694019
REMARK  8 active torsions:
REMARK  status: ('A' for Active; 'I' for Inactive)
REMARK    1  A    between atoms: S_1  and  N_6
REMARK    2  A    between atoms: S_1  and  C_17
REMARK    3  A    between atoms: O_2  and  C_10
REMARK    4  A    between atoms: O_3  and  C_12
REMARK    5  A    between atoms: N_6  and  C_9
REMARK    6  A    between atoms: C_8  and  C_13
REMARK    7  A    between atoms: C_14  and  C_18
REMARK    8  A    between atoms: C_23  and  C_26
REMARK                            x       y       z     vdW  Elec       q    Type
REMARK                         _______ _______ _______ _____ _____    ______ ____
ROOT
ATOM      8  C   UNL     1      -1.515   0.725  24.715  0.00  0.00    +0.043 C 
ATOM      9  C   UNL     1      -0.538   1.204  23.607  0.00  0.00    +0.115 C 
ATOM     10  C   UNL     1       0.608   1.917  24.337  0.00  0.00    +0.162 C 
ATOM     11  C   UNL     1      -0.824   1.070  26.046  0.00  0.00    +0.043 C 
ATOM     12  C   UNL     1       0.015   2.288  25.694  0.00  0.00    +0.145 C 
ENDROOT
BRANCH   8  13
ATOM     13  C   UNL     1      -1.900  -0.734  24.607  0.00  0.00    -0.040 A 
ATOM     14  C   UNL     1      -3.109  -1.197  25.127  0.00  0.00    -0.047 A 
ATOM     15  C   UNL     1      -1.027  -1.621  23.978  0.00  0.00    +0.004 A 
ATOM     16  C   UNL     1      -3.444  -2.547  25.016  0.00  0.00    +0.003 A 
ATOM     18  C   UNL     1      -4.061  -0.267  25.805  0.00  0.00    +0.044 C 
ATOM     19  C   UNL     1      -1.362  -2.970  23.867  0.00  0.00    +0.000 A 
ATOM     20  C   UNL     1      -2.571  -3.433  24.387  0.00  0.00    +0.000 A 
ENDBRANCH   8  13
BRANCH  10   2
ATOM      2  O   UNL     1       1.679   0.987  24.493  0.00  0.00    -0.388 OA
ATOM     28  H   UNL     1       1.444   0.186  23.996  0.00  0.00    +0.210 HD
ENDBRANCH  10   2
BRANCH  12   3
ATOM      3  O   UNL     1       1.002   2.538  26.672  0.00  0.00    -0.389 OA
ATOM     29  H   UNL     1       1.500   1.713  26.804  0.00  0.00    +0.210 HD
ENDBRANCH  12   3
BRANCH   9   6
ATOM      6  N   UNL     1      -1.237   2.173  22.723  0.00  0.00    -0.184 NA
ATOM     27  H   UNL     1      -0.722   3.011  22.427  0.00  0.00    +0.148 HD
BRANCH   6   1
ATOM      1  S   UNL     1      -2.919   2.065  22.511  0.00  0.00    +0.059 S 
ATOM      4  O   UNL     1      -3.318   0.671  22.513  0.00  0.00    -0.153 OA
ATOM      5  O   UNL     1      -3.309   2.935  21.417  0.00  0.00    -0.153 OA
BRANCH   1  17
ATOM     17  C   UNL     1      -3.521   2.806  23.999  0.00  0.00    +0.106 A 
ATOM     21  C   UNL     1      -4.629   2.263  24.650  0.00  0.00    +0.047 A 
ATOM     22  C   UNL     1      -2.888   3.934  24.521  0.00  0.00    +0.028 A 
ATOM     23  C   UNL     1      -5.104   2.849  25.823  0.00  0.00    +0.054 A 
ATOM     24  C   UNL     1      -3.364   4.520  25.695  0.00  0.00    +0.003 A 
ATOM     25  C   UNL     1      -4.472   3.977  26.345  0.00  0.00    +0.019 A 
BRANCH  23  26
ATOM      7  N   UNL     1      -7.161   1.841  27.032  0.00  0.00    -0.191 NA
ATOM     26  C   UNL     1      -6.239   2.293  26.490  0.00  0.00    +0.099 C 
ENDBRANCH  23  26
ENDBRANCH   1  17
ENDBRANCH   6   1
ENDBRANCH   9   6
TORSDOF 7
ENDMDL
MODEL 4
REMARK VINA RESULT:      -3.4      2.459      5.468
REMARK  Name = 71694019
REMARK  8 active torsions:
REMARK  status: ('A' for Active; 'I' for Inactive)
REMARK    1  A    between atoms: S_1  and  N_6
REMARK    2  A    between atoms: S_1  and  C_17
REMARK    3  A    between atoms: O_2  and  C_10
REMARK    4  A    between atoms: O_3  and  C_12
REMARK    5  A    between atoms: N_6  and  C_9
REMARK    6  A    between atoms: C_8  and  C_13
REMARK    7  A    between atoms: C_14  and  C_18
REMARK    8  A    between atoms: C_23  and  C_26
REMARK                            x       y       z     vdW  Elec       q    Type
REMARK                         _______ _______ _______ _____ _____    ______ ____
ROOT
ATOM      8  C   UNL     1      -0.718  -0.822  24.512  0.00  0.00    +0.043 C 
ATOM      9  C   UNL     1      -0.725   0.706  24.794  0.00  0.00    +0.115 C 
ATOM     10  C   UNL     1       0.270   1.320  23.802  0.00  0.00    +0.162 C 
ATOM     11  C   UNL     1       0.186  -1.006  23.280  0.00  0.00    +0.043 C 
ATOM     12  C   UNL     1       1.165   0.152  23.395  0.00  0.00    +0.145 C 
ENDROOT
BRANCH   8  13
ATOM     13  C   UNL     1      -2.095  -1.421  24.332  0.00  0.00    -0.040 A 
ATOM     14  C   UNL     1      -3.178  -0.628  23.949  0.00  0.00    -0.047 A 
ATOM     15  C   UNL     1      -2.275  -2.786  24.556  0.00  0.00    +0.004 A 
ATOM     16  C   UNL     1      -4.439  -1.201  23.789  0.00  0.00    +0.003 A 
ATOM     18  C   UNL     1      -3.010   0.836  23.704  0.00  0.00    +0.044 C 
ATOM     19  C   UNL     1      -3.537  -3.359  24.396  0.00  0.00    +0.000 A 
ATOM     20  C   UNL     1      -4.619  -2.566  24.012  0.00  0.00    +0.000 A 
ENDBRANCH   8  13
BRANCH  10   2
ATOM      2  O   UNL     1      -0.466   1.804  22.679  0.00  0.00    -0.388 OA
ATOM     28  H   UNL     1      -1.221   1.205  22.546  0.00  0.00    +0.210 HD
ENDBRANCH  10   2
BRANCH  12   3
ATOM      3  O   UNL     1       1.843   0.381  22.178  0.00  0.00    -0.389 OA
ATOM     29  H   UNL     1       1.190   0.306  21.460  0.00  0.00    +0.210 HD
ENDBRANCH  12   3
BRANCH   9   6
ATOM      6  N   UNL     1      -0.252   0.950  26.181  0.00  0.00    -0.184 NA
ATOM     27  H   UNL     1      -0.301   0.173  26.849  0.00  0.00    +0.148 HD
BRANCH   6   1
ATOM      1  S   UNL     1       0.019   2.540  26.715  0.00  0.00    +0.059 S 
ATOM      4  O   UNL     1       1.255   3.038  26.143  0.00  0.00    -0.153 OA
ATOM      5  O   UNL     1      -0.195   2.595  28.150  0.00  0.00    -0.153 OA
BRANCH   1  17
ATOM     17  C   UNL     1      -1.320   3.412  25.960  0.00  0.00    +0.106 A 
ATOM     21  C   UNL     1      -2.634   3.002  26.184  0.00  0.00    +0.047 A 
ATOM     22  C   UNL     1      -1.062   4.510  25.139  0.00  0.00    +0.028 A 
ATOM     23  C   UNL     1      -3.691   3.690  25.587  0.00  0.00    +0.054 A 
ATOM     24  C   UNL     1      -2.118   5.198  24.542  0.00  0.00    +0.003 A 
ATOM     25  C   UNL     1      -3.433   4.788  24.766  0.00  0.00    +0.019 A 
BRANCH  23  26
ATOM      7  N   UNL     1      -6.131   2.929  26.003  0.00  0.00    -0.191 NA
ATOM     26  C   UNL     1      -5.037   3.271  25.816  0.00  0.00    +0.099 C 
ENDBRANCH  23  26
ENDBRANCH   1  17
ENDBRANCH   6   1
ENDBRANCH   9   6
TORSDOF 7
ENDMDL
MODEL 5
REMARK VINA RESULT:      -3.4      2.068      3.013
REMARK  Name = 71694019
REMARK  8 active torsions:
REMARK  status: ('A' for Active; 'I' for Inactive)
REMARK    1  A    between atoms: S_1  and  N_6
REMARK    2  A    between atoms: S_1  and  C_17
REMARK    3  A    between atoms: O_2  and  C_10
REMARK    4  A    between atoms: O_3  and  C_12
REMARK    5  A    between atoms: N_6  and  C_9
REMARK    6  A    between atoms: C_8  and  C_13
REMARK    7  A    between atoms: C_14  and  C_18
REMARK    8  A    between atoms: C_23  and  C_26
REMARK                            x       y       z     vdW  Elec       q    Type
REMARK                         _______ _______ _______ _____ _____    ______ ____
ROOT
ATOM      8  C   UNL     1      -4.643   0.527  24.896  0.00  0.00    +0.043 C 
ATOM      9  C   UNL     1      -4.323   2.047  24.884  0.00  0.00    +0.115 C 
ATOM     10  C   UNL     1      -5.294   2.689  25.883  0.00  0.00    +0.162 C 
ATOM     11  C   UNL     1      -5.701   0.341  25.999  0.00  0.00    +0.043 C 
ATOM     12  C   UNL     1      -6.429   1.675  26.006  0.00  0.00    +0.145 C 
ENDROOT
BRANCH   8  13
ATOM     13  C   UNL     1      -3.430  -0.356  25.083  0.00  0.00    -0.040 A 
ATOM     14  C   UNL     1      -3.350  -1.605  24.466  0.00  0.00    -0.047 A 
ATOM     15  C   UNL     1      -2.382   0.093  25.885  0.00  0.00    +0.004 A 
ATOM     16  C   UNL     1      -2.222  -2.404  24.652  0.00  0.00    +0.003 A 
ATOM     18  C   UNL     1      -4.461  -2.108  23.603  0.00  0.00    +0.044 C 
ATOM     19  C   UNL     1      -1.253  -0.705  26.071  0.00  0.00    +0.000 A 
ATOM     20  C   UNL     1      -1.173  -1.954  25.454  0.00  0.00    +0.000 A 
ENDBRANCH   8  13
BRANCH  10   2
ATOM      2  O   UNL     1      -4.615   2.837  27.129  0.00  0.00    -0.388 OA
ATOM     28  H   UNL     1      -4.932   3.660  27.537  0.00  0.00    +0.210 HD
ENDBRANCH  10   2
BRANCH  12   3
ATOM      3  O   UNL     1      -7.188   1.846  27.185  0.00  0.00    -0.389 OA
ATOM     29  H   UNL     1      -6.669   1.481  27.923  0.00  0.00    +0.210 HD
ENDBRANCH  12   3
BRANCH   9   6
ATOM      6  N   UNL     1      -4.582   2.592  23.526  0.00  0.00    -0.184 NA
ATOM     27  H   UNL     1      -5.383   2.219  23.004  0.00  0.00    +0.148 HD
BRANCH   6   1
ATOM      1  S   UNL     1      -3.394   3.525  22.748  0.00  0.00    +0.059 S 
ATOM      4  O   UNL     1      -3.631   4.930  23.016  0.00  0.00    -0.153 OA
ATOM      5  O   UNL     1      -3.251   3.056  21.382  0.00  0.00    -0.153 OA
BRANCH   1  17
ATOM     17  C   UNL     1      -1.929   3.045  23.614  0.00  0.00    +0.106 A 
ATOM     21  C   UNL     1      -1.142   2.001  23.130  0.00  0.00    +0.047 A 
ATOM     22  C   UNL     1      -1.561   3.713  24.783  0.00  0.00    +0.028 A 
ATOM     23  C   UNL     1       0.013   1.623  23.814  0.00  0.00    +0.054 A 
ATOM     24  C   UNL     1      -0.406   3.335  25.467  0.00  0.00    +0.003 A 
ATOM     25  C   UNL     1       0.381   2.290  24.982  0.00  0.00    +0.019 A 
BRANCH  23  26
ATOM      7  N   UNL     1       1.475  -0.316  22.915  0.00  0.00    -0.191 NA
ATOM     26  C   UNL     1       0.820   0.553  23.318  0.00  0.00    +0.099 C 
ENDBRANCH  23  26
ENDBRANCH   1  17
ENDBRANCH   6   1
ENDBRANCH   9   6
TORSDOF 7
ENDMDL
MODEL 6
REMARK VINA RESULT:      -3.4      2.369      5.462
REMARK  Name = 71694019
REMARK  8 active torsions:
REMARK  status: ('A' for Active; 'I' for Inactive)
REMARK    1  A    between atoms: S_1  and  N_6
REMARK    2  A    between atoms: S_1  and  C_17
REMARK    3  A    between atoms: O_2  and  C_10
REMARK    4  A    between atoms: O_3  and  C_12
REMARK    5  A    between atoms: N_6  and  C_9
REMARK    6  A    between atoms: C_8  and  C_13
REMARK    7  A    between atoms: C_14  and  C_18
REMARK    8  A    between atoms: C_23  and  C_26
REMARK                            x       y       z     vdW  Elec       q    Type
REMARK                         _______ _______ _______ _____ _____    ______ ____
ROOT
ATOM      8  C   UNL     1      -0.673  -0.645  24.443  0.00  0.00    +0.043 C 
ATOM      9  C   UNL     1      -0.589   0.889  24.677  0.00  0.00    +0.115 C 
ATOM     10  C   UNL     1       0.423   1.415  23.653  0.00  0.00    +0.162 C 
ATOM     11  C   UNL     1       0.199  -0.917  23.205  0.00  0.00    +0.043 C 
ATOM     12  C   UNL     1       1.243   0.186  23.269  0.00  0.00    +0.145 C 
ENDROOT
BRANCH   8  13
ATOM     13  C   UNL     1      -2.085  -1.169  24.302  0.00  0.00    -0.040 A 
ATOM     14  C   UNL     1      -2.377  -2.514  24.527  0.00  0.00    -0.047 A 
ATOM     15  C   UNL     1      -3.102  -0.287  23.939  0.00  0.00    +0.004 A 
ATOM     16  C   UNL     1      -3.686  -2.977  24.391  0.00  0.00    +0.003 A 
ATOM     18  C   UNL     1      -1.304  -3.479  24.916  0.00  0.00    +0.044 C 
ATOM     19  C   UNL     1      -4.411  -0.749  23.803  0.00  0.00    +0.000 A 
ATOM     20  C   UNL     1      -4.703  -2.094  24.028  0.00  0.00    +0.000 A 
ENDBRANCH   8  13
BRANCH  10   2
ATOM      2  O   UNL     1      -0.303   1.906  22.526  0.00  0.00    -0.388 OA
ATOM     28  H   UNL     1      -0.318   2.876  22.591  0.00  0.00    +0.210 HD
ENDBRANCH  10   2
BRANCH  12   3
ATOM      3  O   UNL     1       1.914   0.339  22.036  0.00  0.00    -0.389 OA
ATOM     29  H   UNL     1       2.754   0.796  22.214  0.00  0.00    +0.210 HD
ENDBRANCH  12   3
BRANCH   9   6
ATOM      6  N   UNL     1      -0.080   1.148  26.050  0.00  0.00    -0.184 NA
ATOM     27  H   UNL     1       0.075   0.340  26.665  0.00  0.00    +0.148 HD
BRANCH   6   1
ATOM      1  S   UNL     1      -0.099   2.726  26.676  0.00  0.00    +0.059 S 
ATOM      4  O   UNL     1       1.066   3.448  26.202  0.00  0.00    -0.153 OA
ATOM      5  O   UNL     1      -0.391   2.663  28.096  0.00  0.00    -0.153 OA
BRANCH   1  17
ATOM     17  C   UNL     1      -1.524   3.415  25.886  0.00  0.00    +0.106 A 
ATOM     21  C   UNL     1      -2.738   2.730  25.918  0.00  0.00    +0.047 A 
ATOM     22  C   UNL     1      -1.431   4.643  25.231  0.00  0.00    +0.028 A 
ATOM     23  C   UNL     1      -3.861   3.274  25.294  0.00  0.00    +0.054 A 
ATOM     24  C   UNL     1      -2.554   5.186  24.606  0.00  0.00    +0.003 A 
ATOM     25  C   UNL     1      -3.769   4.501  24.638  0.00  0.00    +0.019 A 
BRANCH  23  26
ATOM      7  N   UNL     1      -6.117   2.003  25.354  0.00  0.00    -0.191 NA
ATOM     26  C   UNL     1      -5.106   2.573  25.327  0.00  0.00    +0.099 C 
ENDBRANCH  23  26
ENDBRANCH   1  17
ENDBRANCH   6   1
ENDBRANCH   9   6
TORSDOF 7
ENDMDL
MODEL 7
REMARK VINA RESULT:      -3.0      2.263      5.674
REMARK  Name = 71694019
REMARK  8 active torsions:
REMARK  status: ('A' for Active; 'I' for Inactive)
REMARK    1  A    between atoms: S_1  and  N_6
REMARK    2  A    between atoms: S_1  and  C_17
REMARK    3  A    between atoms: O_2  and  C_10
REMARK    4  A    between atoms: O_3  and  C_12
REMARK    5  A    between atoms: N_6  and  C_9
REMARK    6  A    between atoms: C_8  and  C_13
REMARK    7  A    between atoms: C_14  and  C_18
REMARK    8  A    between atoms: C_23  and  C_26
REMARK                            x       y       z     vdW  Elec       q    Type
REMARK                         _______ _______ _______ _____ _____    ______ ____
ROOT
ATOM      8  C   UNL     1      -0.296   0.165  24.489  0.00  0.00    +0.043 C 
ATOM      9  C   UNL     1      -0.012   1.108  23.288  0.00  0.00    +0.115 C 
ATOM     10  C   UNL     1       1.260   0.569  22.622  0.00  0.00    +0.162 C 
ATOM     11  C   UNL     1       0.754  -0.955  24.385  0.00  0.00    +0.043 C 
ATOM     12  C   UNL     1       1.929  -0.266  23.711  0.00  0.00    +0.145 C 
ENDROOT
BRANCH   8  13
ATOM     13  C   UNL     1      -1.715  -0.355  24.542  0.00  0.00    -0.040 A 
ATOM     14  C   UNL     1      -2.250  -0.863  25.726  0.00  0.00    -0.047 A 
ATOM     15  C   UNL     1      -2.491  -0.323  23.384  0.00  0.00    +0.004 A 
ATOM     16  C   UNL     1      -3.561  -1.338  25.752  0.00  0.00    +0.003 A 
ATOM     18  C   UNL     1      -1.437  -0.909  26.979  0.00  0.00    +0.044 C 
ATOM     19  C   UNL     1      -3.803  -0.798  23.409  0.00  0.00    +0.000 A 
ATOM     20  C   UNL     1      -4.338  -1.306  24.594  0.00  0.00    +0.000 A 
ENDBRANCH   8  13
BRANCH  10   2
ATOM      2  O   UNL     1       0.869  -0.257  21.526  0.00  0.00    -0.388 OA
ATOM     28  H   UNL     1       1.187  -1.157  21.711  0.00  0.00    +0.210 HD
ENDBRANCH  10   2
BRANCH  12   3
ATOM      3  O   UNL     1       2.853  -1.201  23.194  0.00  0.00    -0.389 OA
ATOM     29  H   UNL     1       3.572  -1.292  23.843  0.00  0.00    +0.210 HD
ENDBRANCH  12   3
BRANCH   9   6
ATOM      6  N   UNL     1       0.242   2.483  23.794  0.00  0.00    -0.184 NA
ATOM     27  H   UNL     1       1.070   2.977  23.444  0.00  0.00    +0.148 HD
BRANCH   6   1
ATOM      1  S   UNL     1      -0.606   3.055  25.150  0.00  0.00    +0.059 S 
ATOM      4  O   UNL     1      -0.320   4.465  25.338  0.00  0.00    -0.153 OA
ATOM      5  O   UNL     1      -0.423   2.121  26.245  0.00  0.00    -0.153 OA
BRANCH   1  17
ATOM     17  C   UNL     1      -2.286   2.907  24.620  0.00  0.00    +0.106 A 
ATOM     21  C   UNL     1      -3.290   2.644  25.550  0.00  0.00    +0.047 A 
ATOM     22  C   UNL     1      -2.605   3.054  23.269  0.00  0.00    +0.028 A 
ATOM     23  C   UNL     1      -4.616   2.526  25.130  0.00  0.00    +0.054 A 
ATOM     24  C   UNL     1      -3.931   2.936  22.850  0.00  0.00    +0.003 A 
ATOM     25  C   UNL     1      -4.936   2.672  23.781  0.00  0.00    +0.019 A 
BRANCH  23  26
ATOM      7  N   UNL     1      -6.482   2.037  26.858  0.00  0.00    -0.191 NA
ATOM     26  C   UNL     1      -5.645   2.257  26.084  0.00  0.00    +0.099 C 
ENDBRANCH  23  26
ENDBRANCH   1  17
ENDBRANCH   6   1
ENDBRANCH   9   6
TORSDOF 7
ENDMDL
MODEL 8
REMARK VINA RESULT:      -2.8      2.892      5.342
REMARK  Name = 71694019
REMARK  8 active torsions:
REMARK  status: ('A' for Active; 'I' for Inactive)
REMARK    1  A    between atoms: S_1  and  N_6
REMARK    2  A    between atoms: S_1  and  C_17
REMARK    3  A    between atoms: O_2  and  C_10
REMARK    4  A    between atoms: O_3  and  C_12
REMARK    5  A    between atoms: N_6  and  C_9
REMARK    6  A    between atoms: C_8  and  C_13
REMARK    7  A    between atoms: C_14  and  C_18
REMARK    8  A    between atoms: C_23  and  C_26
REMARK                            x       y       z     vdW  Elec       q    Type
REMARK                         _______ _______ _______ _____ _____    ______ ____
ROOT
ATOM      8  C   UNL     1      -2.802  -0.356  23.841  0.00  0.00    +0.043 C 
ATOM      9  C   UNL     1      -3.666  -0.006  25.083  0.00  0.00    +0.115 C 
ATOM     10  C   UNL     1      -3.992  -1.343  25.759  0.00  0.00    +0.162 C 
ATOM     11  C   UNL     1      -2.559  -1.873  23.928  0.00  0.00    +0.043 C 
ATOM     12  C   UNL     1      -3.794  -2.379  24.656  0.00  0.00    +0.145 C 
ENDROOT
BRANCH   8  13
ATOM     13  C   UNL     1      -1.523   0.445  23.735  0.00  0.00    -0.040 A 
ATOM     14  C   UNL     1      -1.481   1.638  23.014  0.00  0.00    -0.047 A 
ATOM     15  C   UNL     1      -0.374  -0.026  24.370  0.00  0.00    +0.004 A 
ATOM     16  C   UNL     1      -0.291   2.360  22.929  0.00  0.00    +0.003 A 
ATOM     18  C   UNL     1      -2.699   2.162  22.324  0.00  0.00    +0.044 C 
ATOM     19  C   UNL     1       0.816   0.696  24.285  0.00  0.00    +0.000 A 
ATOM     20  C   UNL     1       0.857   1.890  23.564  0.00  0.00    +0.000 A 
ENDBRANCH   8  13
BRANCH  10   2
ATOM      2  O   UNL     1      -3.053  -1.546  26.814  0.00  0.00    -0.388 OA
ATOM     28  H   UNL     1      -3.560  -1.716  27.626  0.00  0.00    +0.210 HD
ENDBRANCH  10   2
BRANCH  12   3
ATOM      3  O   UNL     1      -3.601  -3.684  25.160  0.00  0.00    -0.389 OA
ATOM     29  H   UNL     1      -2.642  -3.838  25.214  0.00  0.00    +0.210 HD
ENDBRANCH  12   3
BRANCH   9   6
ATOM      6  N   UNL     1      -4.928   0.641  24.636  0.00  0.00    -0.184 NA
ATOM     27  H   UNL     1      -5.333   0.337  23.744  0.00  0.00    +0.148 HD
BRANCH   6   1
ATOM      1  S   UNL     1      -5.467   2.061  25.397  0.00  0.00    +0.059 S 
ATOM      4  O   UNL     1      -5.790   1.774  26.782  0.00  0.00    -0.153 OA
ATOM      5  O   UNL     1      -6.441   2.710  24.540  0.00  0.00    -0.153 OA
BRANCH   1  17
ATOM     17  C   UNL     1      -4.010   3.063  25.375  0.00  0.00    +0.106 A 
ATOM     21  C   UNL     1      -2.841   2.608  25.984  0.00  0.00    +0.047 A 
ATOM     22  C   UNL     1      -4.032   4.309  24.747  0.00  0.00    +0.028 A 
ATOM     23  C   UNL     1      -1.692   3.400  25.966  0.00  0.00    +0.054 A 
ATOM     24  C   UNL     1      -2.883   5.100  24.730  0.00  0.00    +0.003 A 
ATOM     25  C   UNL     1      -1.714   4.646  25.340  0.00  0.00    +0.019 A 
BRANCH  23  26
ATOM      7  N   UNL     1       0.479   2.556  27.097  0.00  0.00    -0.191 NA
ATOM     26  C   UNL     1      -0.494   2.935  26.590  0.00  0.00    +0.099 C 
ENDBRANCH  23  26
ENDBRANCH   1  17
ENDBRANCH   6   1
ENDBRANCH   9   6
TORSDOF 7
ENDMDL
MODEL 9
REMARK VINA RESULT:      -2.6      3.223      5.553
REMARK  Name = 71694019
REMARK  8 active torsions:
REMARK  status: ('A' for Active; 'I' for Inactive)
REMARK    1  A    between atoms: S_1  and  N_6
REMARK    2  A    between atoms: S_1  and  C_17
REMARK    3  A    between atoms: O_2  and  C_10
REMARK    4  A    between atoms: O_3  and  C_12
REMARK    5  A    between atoms: N_6  and  C_9
REMARK    6  A    between atoms: C_8  and  C_13
REMARK    7  A    between atoms: C_14  and  C_18
REMARK    8  A    between atoms: C_23  and  C_26
REMARK                            x       y       z     vdW  Elec       q    Type
REMARK                         _______ _______ _______ _____ _____    ______ ____
ROOT
ATOM      8  C   UNL     1      -2.927   0.566  24.860  0.00  0.00    +0.043 C 
ATOM      9  C   UNL     1      -1.448   0.105  24.978  0.00  0.00    +0.115 C 
ATOM     10  C   UNL     1      -1.494  -1.420  25.133  0.00  0.00    +0.162 C 
ATOM     11  C   UNL     1      -3.756  -0.730  24.822  0.00  0.00    +0.043 C 
ATOM     12  C   UNL     1      -2.910  -1.704  25.626  0.00  0.00    +0.145 C 
ENDROOT
BRANCH   8  13
ATOM     13  C   UNL     1      -3.195   1.477  23.683  0.00  0.00    -0.040 A 
ATOM     14  C   UNL     1      -4.401   2.170  23.572  0.00  0.00    -0.047 A 
ATOM     15  C   UNL     1      -2.218   1.618  22.698  0.00  0.00    +0.004 A 
ATOM     16  C   UNL     1      -4.628   3.004  22.478  0.00  0.00    +0.003 A 
ATOM     18  C   UNL     1      -5.464   2.034  24.614  0.00  0.00    +0.044 C 
ATOM     19  C   UNL     1      -2.445   2.453  21.604  0.00  0.00    +0.000 A 
ATOM     20  C   UNL     1      -3.650   3.146  21.494  0.00  0.00    +0.000 A 
ENDBRANCH   8  13
BRANCH  10   2
ATOM      2  O   UNL     1      -1.283  -2.002  23.848  0.00  0.00    -0.388 OA
ATOM     28  H   UNL     1      -0.490  -1.587  23.467  0.00  0.00    +0.210 HD
ENDBRANCH  10   2
BRANCH  12   3
ATOM      3  O   UNL     1      -3.308  -3.041  25.406  0.00  0.00    -0.389 OA
ATOM     29  H   UNL     1      -3.982  -3.260  26.073  0.00  0.00    +0.210 HD
ENDBRANCH  12   3
BRANCH   9   6
ATOM      6  N   UNL     1      -0.843   0.706  26.196  0.00  0.00    -0.184 NA
ATOM     27  H   UNL     1      -1.268   0.483  27.103  0.00  0.00    +0.148 HD
BRANCH   6   1
ATOM      1  S   UNL     1       0.272   1.979  26.047  0.00  0.00    +0.059 S 
ATOM      4  O   UNL     1       1.133   1.737  24.905  0.00  0.00    -0.153 OA
ATOM      5  O   UNL     1       0.848   2.251  27.351  0.00  0.00    -0.153 OA
BRANCH   1  17
ATOM     17  C   UNL     1      -0.782   3.343  25.654  0.00  0.00    +0.106 A 
ATOM     21  C   UNL     1      -2.123   3.323  26.037  0.00  0.00    +0.047 A 
ATOM     22  C   UNL     1      -0.271   4.440  24.959  0.00  0.00    +0.028 A 
ATOM     23  C   UNL     1      -2.954   4.399  25.725  0.00  0.00    +0.054 A 
ATOM     24  C   UNL     1      -1.103   5.516  24.647  0.00  0.00    +0.003 A 
ATOM     25  C   UNL     1      -2.444   5.495  25.030  0.00  0.00    +0.019 A 
BRANCH  23  26
ATOM      7  N   UNL     1      -5.443   4.361  26.438  0.00  0.00    -0.191 NA
ATOM     26  C   UNL     1      -4.327   4.378  26.119  0.00  0.00    +0.099 C 
ENDBRANCH  23  26
ENDBRANCH   1  17
ENDBRANCH   6   1
ENDBRANCH   9   6
TORSDOF 7
ENDMDL
MODEL 10
REMARK VINA RESULT:      -2.4      2.331      3.940
REMARK  Name = 71694019
REMARK  8 active torsions:
REMARK  status: ('A' for Active; 'I' for Inactive)
REMARK    1  A    between atoms: S_1  and  N_6
REMARK    2  A    between atoms: S_1  and  C_17
REMARK    3  A    between atoms: O_2  and  C_10
REMARK    4  A    between atoms: O_3  and  C_12
REMARK    5  A    between atoms: N_6  and  C_9
REMARK    6  A    between atoms: C_8  and  C_13
REMARK    7  A    between atoms: C_14  and  C_18
REMARK    8  A    between atoms: C_23  and  C_26
REMARK                            x       y       z     vdW  Elec       q    Type
REMARK                         _______ _______ _______ _____ _____    ______ ____
ROOT
ATOM      8  C   UNL     1      -3.135   0.533  25.210  0.00  0.00    +0.043 C 
ATOM      9  C   UNL     1      -2.953   0.004  23.760  0.00  0.00    +0.115 C 
ATOM     10  C   UNL     1      -3.168  -1.512  23.836  0.00  0.00    +0.162 C 
ATOM     11  C   UNL     1      -3.575  -0.688  26.036  0.00  0.00    +0.043 C 
ATOM     12  C   UNL     1      -2.928  -1.852  25.304  0.00  0.00    +0.145 C 
ENDROOT
BRANCH   8  13
ATOM     13  C   UNL     1      -4.088   1.702  25.323  0.00  0.00    -0.040 A 
ATOM     14  C   UNL     1      -3.614   3.013  25.362  0.00  0.00    -0.047 A 
ATOM     15  C   UNL     1      -5.459   1.454  25.392  0.00  0.00    +0.004 A 
ATOM     16  C   UNL     1      -4.511   4.076  25.467  0.00  0.00    +0.003 A 
ATOM     18  C   UNL     1      -2.150   3.303  25.291  0.00  0.00    +0.044 C 
ATOM     19  C   UNL     1      -6.356   2.517  25.497  0.00  0.00    +0.000 A 
ATOM     20  C   UNL     1      -5.881   3.828  25.536  0.00  0.00    +0.000 A 
ENDBRANCH   8  13
BRANCH  10   2
ATOM      2  O   UNL     1      -4.520  -1.786  23.471  0.00  0.00    -0.388 OA
ATOM     28  H   UNL     1      -5.076  -1.588  24.244  0.00  0.00    +0.210 HD
ENDBRANCH  10   2
BRANCH  12   3
ATOM      3  O   UNL     1      -3.502  -3.086  25.681  0.00  0.00    -0.389 OA
ATOM     29  H   UNL     1      -4.469  -2.988  25.629  0.00  0.00    +0.210 HD
ENDBRANCH  12   3
BRANCH   9   6
ATOM      6  N   UNL     1      -1.565   0.284  23.307  0.00  0.00    -0.184 NA
ATOM     27  H   UNL     1      -1.400   0.380  22.299  0.00  0.00    +0.148 HD
BRANCH   6   1
ATOM      1  S   UNL     1      -0.268   0.096  24.387  0.00  0.00    +0.059 S 
ATOM      4  O   UNL     1      -0.369  -1.193  25.044  0.00  0.00    -0.153 OA
ATOM      5  O   UNL     1      -0.136   1.308  25.175  0.00  0.00    -0.153 OA
BRANCH   1  17
ATOM     17  C   UNL     1       1.116   0.040  23.289  0.00  0.00    +0.106 A 
ATOM     21  C   UNL     1       2.397   0.319  23.765  0.00  0.00    +0.047 A 
ATOM     22  C   UNL     1       0.926  -0.283  21.945  0.00  0.00    +0.028 A 
ATOM     23  C   UNL     1       3.488   0.276  22.898  0.00  0.00    +0.054 A 
ATOM     24  C   UNL     1       2.018  -0.326  21.077  0.00  0.00    +0.003 A 
ATOM     25  C   UNL     1       3.299  -0.047  21.554  0.00  0.00    +0.019 A 
BRANCH  23  26
ATOM      7  N   UNL     1       5.866   0.793  23.782  0.00  0.00    -0.191 NA
ATOM     26  C   UNL     1       4.800   0.561  23.386  0.00  0.00    +0.099 C 
ENDBRANCH  23  26
ENDBRANCH   1  17
ENDBRANCH   6   1
ENDBRANCH   9   6
TORSDOF 7
ENDMDL
