MODEL 1
REMARK VINA RESULT:      -1.3      0.000      0.000
REMARK  Name = 75536993
REMARK  4 active torsions:
REMARK  status: ('A' for Active; 'I' for Inactive)
REMARK    1  A    between atoms: S_1  and  N_7
REMARK    2  A    between atoms: S_1  and  C_16
REMARK    3  A    between atoms: N_8  and  C_15
REMARK    4  A    between atoms: C_15  and  C_17
REMARK                            x       y       z     vdW  Elec       q    Type
REMARK                         _______ _______ _______ _____ _____    ______ ____
ROOT
ATOM      3  O   UNL     1      -1.928  -8.520   9.981  0.00  0.00    -0.252 OA
ATOM      6  N   UNL     1      -4.108  -9.386   9.836  0.00  0.00    -0.278 N 
ATOM      7  N   UNL     1      -6.886  -9.376   9.527  0.00  0.00    -0.173 NA
ATOM      8  N   UNL     1      -2.771 -10.135  11.479  0.00  0.00    -0.279 N 
ATOM      9  C   UNL     1      -4.879 -10.430  10.483  0.00  0.00    +0.111 C 
ATOM     10  C   UNL     1      -6.289  -9.939  10.785  0.00  0.00    +0.133 C 
ATOM     11  C   UNL     1      -4.050 -10.781  11.718  0.00  0.00    +0.133 C 
ATOM     12  C   UNL     1      -4.659  -8.693   8.688  0.00  0.00    +0.127 C 
ATOM     13  C   UNL     1      -6.080  -8.227   8.994  0.00  0.00    +0.128 C 
ATOM     14  C   UNL     1      -2.822  -9.256  10.379  0.00  0.00    +0.305 C 
ENDROOT
BRANCH   7   1
ATOM      1  S   UNL     1      -8.580  -9.118   9.576  0.00  0.00    +0.061 S 
ATOM      4  O   UNL     1      -9.225 -10.058   8.684  0.00  0.00    -0.153 OA
ATOM      5  O   UNL     1      -8.840  -7.699   9.479  0.00  0.00    -0.153 OA
BRANCH   1  16
ATOM     16  C   UNL     1      -8.920  -9.622  11.232  0.00  0.00    +0.105 A 
ATOM     18  C   UNL     1      -8.053  -9.260  12.263  0.00  0.00    +0.028 A 
ATOM     19  C   UNL     1     -10.057 -10.382  11.511  0.00  0.00    +0.028 A 
ATOM     22  C   UNL     1      -8.322  -9.659  13.573  0.00  0.00    +0.002 A 
ATOM     23  C   UNL     1     -10.327 -10.779  12.821  0.00  0.00    +0.002 A 
ATOM     26  C   UNL     1      -9.459 -10.418  13.852  0.00  0.00    +0.000 A 
ENDBRANCH   1  16
ENDBRANCH   7   1
BRANCH   8  15
ATOM     15  C   UNL     1      -1.648 -10.305  12.374  0.00  0.00    +0.144 C 
BRANCH  15  17
ATOM      2  F   UNL     1       2.128  -6.165  11.831  0.00  0.00    -0.205 F 
ATOM     17  C   UNL     1      -0.641  -9.201  12.230  0.00  0.00    -0.030 A 
ATOM     20  C   UNL     1       0.291  -9.238  11.192  0.00  0.00    +0.008 A 
ATOM     21  C   UNL     1      -0.637  -8.137  13.132  0.00  0.00    +0.008 A 
ATOM     24  C   UNL     1       1.226  -8.214  11.057  0.00  0.00    +0.038 A 
ATOM     25  C   UNL     1       0.300  -7.112  12.998  0.00  0.00    +0.038 A 
ATOM     27  C   UNL     1       1.231  -7.150  11.960  0.00  0.00    +0.123 A 
ENDBRANCH  15  17
ENDBRANCH   8  15
TORSDOF 4
ENDMDL
MODEL 2
REMARK VINA RESULT:      -1.2     15.695     17.639
REMARK  Name = 75536993
REMARK  4 active torsions:
REMARK  status: ('A' for Active; 'I' for Inactive)
REMARK    1  A    between atoms: S_1  and  N_7
REMARK    2  A    between atoms: S_1  and  C_16
REMARK    3  A    between atoms: N_8  and  C_15
REMARK    4  A    between atoms: C_15  and  C_17
REMARK                            x       y       z     vdW  Elec       q    Type
REMARK                         _______ _______ _______ _____ _____    ______ ____
ROOT
ATOM      3  O   UNL     1      -0.961  -2.822  23.805  0.00  0.00    -0.252 OA
ATOM      6  N   UNL     1      -1.679  -0.752  24.653  0.00  0.00    -0.278 N 
ATOM      7  N   UNL     1      -3.456   1.299  25.325  0.00  0.00    -0.173 NA
ATOM      8  N   UNL     1       0.163  -0.796  23.368  0.00  0.00    -0.279 N 
ATOM      9  C   UNL     1      -1.182   0.610  24.683  0.00  0.00    +0.111 C 
ATOM     10  C   UNL     1      -2.311   1.594  24.399  0.00  0.00    +0.133 C 
ATOM     11  C   UNL     1      -0.061   0.612  23.645  0.00  0.00    +0.133 C 
ATOM     12  C   UNL     1      -2.861  -1.102  25.416  0.00  0.00    +0.127 C 
ATOM     13  C   UNL     1      -3.976  -0.097  25.141  0.00  0.00    +0.128 C 
ATOM     14  C   UNL     1      -0.840  -1.611  23.929  0.00  0.00    +0.305 C 
ENDROOT
BRANCH   7   1
ATOM      1  S   UNL     1      -4.657   2.519  25.412  0.00  0.00    +0.061 S 
ATOM      4  O   UNL     1      -5.078   2.668  26.788  0.00  0.00    -0.153 OA
ATOM      5  O   UNL     1      -5.621   2.303  24.356  0.00  0.00    -0.153 OA
BRANCH   1  16
ATOM     16  C   UNL     1      -3.690   3.933  24.985  0.00  0.00    +0.105 A 
ATOM     18  C   UNL     1      -4.099   4.769  23.947  0.00  0.00    +0.028 A 
ATOM     19  C   UNL     1      -2.517   4.214  25.687  0.00  0.00    +0.028 A 
ATOM     22  C   UNL     1      -3.334   5.886  23.609  0.00  0.00    +0.002 A 
ATOM     23  C   UNL     1      -1.754   5.332  25.350  0.00  0.00    +0.002 A 
ATOM     26  C   UNL     1      -2.162   6.168  24.311  0.00  0.00    +0.000 A 
ENDBRANCH   1  16
ENDBRANCH   7   1
BRANCH   8  15
ATOM     15  C   UNL     1       1.229  -1.245  22.499  0.00  0.00    +0.144 C 
BRANCH  15  17
ATOM      2  F   UNL     1       6.198   0.971  23.947  0.00  0.00    -0.205 F 
ATOM     17  C   UNL     1       2.554  -0.654  22.885  0.00  0.00    -0.030 A 
ATOM     20  C   UNL     1       2.870   0.653  22.515  0.00  0.00    +0.008 A 
ATOM     21  C   UNL     1       3.471  -1.412  23.614  0.00  0.00    +0.008 A 
ATOM     24  C   UNL     1       4.100   1.203  22.873  0.00  0.00    +0.038 A 
ATOM     25  C   UNL     1       4.703  -0.863  23.972  0.00  0.00    +0.038 A 
ATOM     27  C   UNL     1       5.017   0.445  23.601  0.00  0.00    +0.123 A 
ENDBRANCH  15  17
ENDBRANCH   8  15
TORSDOF 4
ENDMDL
MODEL 3
REMARK VINA RESULT:      -1.0     16.359     17.757
REMARK  Name = 75536993
REMARK  4 active torsions:
REMARK  status: ('A' for Active; 'I' for Inactive)
REMARK    1  A    between atoms: S_1  and  N_7
REMARK    2  A    between atoms: S_1  and  C_16
REMARK    3  A    between atoms: N_8  and  C_15
REMARK    4  A    between atoms: C_15  and  C_17
REMARK                            x       y       z     vdW  Elec       q    Type
REMARK                         _______ _______ _______ _____ _____    ______ ____
ROOT
ATOM      3  O   UNL     1       0.010  -1.674  23.903  0.00  0.00    -0.252 OA
ATOM      6  N   UNL     1      -0.515   0.463  24.727  0.00  0.00    -0.278 N 
ATOM      7  N   UNL     1      -2.109   2.632  25.480  0.00  0.00    -0.173 NA
ATOM      8  N   UNL     1       1.188   0.269  23.275  0.00  0.00    -0.279 N 
ATOM      9  C   UNL     1       0.052   1.796  24.653  0.00  0.00    +0.111 C 
ATOM     10  C   UNL     1      -1.046   2.830  24.437  0.00  0.00    +0.133 C 
ATOM     11  C   UNL     1       1.065   1.697  23.514  0.00  0.00    +0.133 C 
ATOM     12  C   UNL     1      -1.632   0.207  25.614  0.00  0.00    +0.127 C 
ATOM     13  C   UNL     1      -2.716   1.261  25.405  0.00  0.00    +0.128 C 
ATOM     14  C   UNL     1       0.205  -0.467  23.964  0.00  0.00    +0.305 C 
ENDROOT
BRANCH   7   1
ATOM      1  S   UNL     1      -3.231   3.919  25.629  0.00  0.00    +0.061 S 
ATOM      4  O   UNL     1      -3.154   4.752  24.448  0.00  0.00    -0.153 OA
ATOM      5  O   UNL     1      -3.115   4.490  26.953  0.00  0.00    -0.153 OA
BRANCH   1  16
ATOM     16  C   UNL     1      -4.746   3.017  25.557  0.00  0.00    +0.105 A 
ATOM     18  C   UNL     1      -5.188   2.492  24.343  0.00  0.00    +0.028 A 
ATOM     19  C   UNL     1      -5.502   2.828  26.715  0.00  0.00    +0.028 A 
ATOM     22  C   UNL     1      -6.386   1.779  24.285  0.00  0.00    +0.002 A 
ATOM     23  C   UNL     1      -6.699   2.114  26.658  0.00  0.00    +0.002 A 
ATOM     26  C   UNL     1      -7.141   1.589  25.443  0.00  0.00    +0.000 A 
ENDBRANCH   1  16
ENDBRANCH   7   1
BRANCH   8  15
ATOM     15  C   UNL     1       2.140  -0.269  22.329  0.00  0.00    +0.144 C 
BRANCH  15  17
ATOM      2  F   UNL     1       7.359  -0.408  24.435  0.00  0.00    -0.205 F 
ATOM     17  C   UNL     1       3.532  -0.306  22.890  0.00  0.00    -0.030 A 
ATOM     20  C   UNL     1       4.371   0.799  22.749  0.00  0.00    +0.008 A 
ATOM     21  C   UNL     1       3.987  -1.446  23.555  0.00  0.00    +0.008 A 
ATOM     24  C   UNL     1       5.664   0.765  23.270  0.00  0.00    +0.038 A 
ATOM     25  C   UNL     1       5.280  -1.481  24.076  0.00  0.00    +0.038 A 
ATOM     27  C   UNL     1       6.119  -0.374  23.934  0.00  0.00    +0.123 A 
ENDBRANCH  15  17
ENDBRANCH   8  15
TORSDOF 4
ENDMDL
MODEL 4
REMARK VINA RESULT:      -0.9      1.758      2.744
REMARK  Name = 75536993
REMARK  4 active torsions:
REMARK  status: ('A' for Active; 'I' for Inactive)
REMARK    1  A    between atoms: S_1  and  N_7
REMARK    2  A    between atoms: S_1  and  C_16
REMARK    3  A    between atoms: N_8  and  C_15
REMARK    4  A    between atoms: C_15  and  C_17
REMARK                            x       y       z     vdW  Elec       q    Type
REMARK                         _______ _______ _______ _____ _____    ______ ____
ROOT
ATOM      3  O   UNL     1      -2.205  -8.887  10.217  0.00  0.00    -0.252 OA
ATOM      6  N   UNL     1      -4.394  -9.740  10.166  0.00  0.00    -0.278 N 
ATOM      7  N   UNL     1      -7.163  -9.754   9.782  0.00  0.00    -0.173 NA
ATOM      8  N   UNL     1      -3.112 -10.202  11.952  0.00  0.00    -0.279 N 
ATOM      9  C   UNL     1      -5.198 -10.645  10.965  0.00  0.00    +0.111 C 
ATOM     10  C   UNL     1      -6.608 -10.093  11.136  0.00  0.00    +0.133 C 
ATOM     11  C   UNL     1      -4.407 -10.781  12.265  0.00  0.00    +0.133 C 
ATOM     12  C   UNL     1      -4.905  -9.255   8.899  0.00  0.00    +0.127 C 
ATOM     13  C   UNL     1      -6.325  -8.727   9.078  0.00  0.00    +0.128 C 
ATOM     14  C   UNL     1      -3.120  -9.531  10.713  0.00  0.00    +0.305 C 
ENDROOT
BRANCH   7   1
ATOM      1  S   UNL     1      -8.853  -9.473   9.737  0.00  0.00    +0.061 S 
ATOM      4  O   UNL     1      -9.373  -9.507  11.087  0.00  0.00    -0.153 OA
ATOM      5  O   UNL     1      -9.435 -10.287   8.693  0.00  0.00    -0.153 OA
BRANCH   1  16
ATOM     16  C   UNL     1      -8.871  -7.794   9.192  0.00  0.00    +0.105 A 
ATOM     18  C   UNL     1      -7.721  -7.227   8.644  0.00  0.00    +0.028 A 
ATOM     19  C   UNL     1     -10.036  -7.035   9.310  0.00  0.00    +0.028 A 
ATOM     22  C   UNL     1      -7.735  -5.899   8.214  0.00  0.00    +0.002 A 
ATOM     23  C   UNL     1     -10.050  -5.708   8.879  0.00  0.00    +0.002 A 
ATOM     26  C   UNL     1      -8.900  -5.140   8.331  0.00  0.00    +0.000 A 
ENDBRANCH   1  16
ENDBRANCH   7   1
BRANCH   8  15
ATOM     15  C   UNL     1      -2.015 -10.224  12.894  0.00  0.00    +0.144 C 
BRANCH  15  17
ATOM      2  F   UNL     1       2.115  -6.699  11.405  0.00  0.00    -0.205 F 
ATOM     17  C   UNL     1      -0.914  -9.284  12.498  0.00  0.00    -0.030 A 
ATOM     20  C   UNL     1      -0.181  -9.519  11.334  0.00  0.00    +0.008 A 
ATOM     21  C   UNL     1      -0.622  -8.174  13.292  0.00  0.00    +0.008 A 
ATOM     24  C   UNL     1       0.841  -8.647  10.964  0.00  0.00    +0.038 A 
ATOM     25  C   UNL     1       0.402  -7.302  12.924  0.00  0.00    +0.038 A 
ATOM     27  C   UNL     1       1.134  -7.538  11.759  0.00  0.00    +0.123 A 
ENDBRANCH  15  17
ENDBRANCH   8  15
TORSDOF 4
ENDMDL
MODEL 5
REMARK VINA RESULT:      -0.9     15.489     17.237
REMARK  Name = 75536993
REMARK  4 active torsions:
REMARK  status: ('A' for Active; 'I' for Inactive)
REMARK    1  A    between atoms: S_1  and  N_7
REMARK    2  A    between atoms: S_1  and  C_16
REMARK    3  A    between atoms: N_8  and  C_15
REMARK    4  A    between atoms: C_15  and  C_17
REMARK                            x       y       z     vdW  Elec       q    Type
REMARK                         _______ _______ _______ _____ _____    ______ ____
ROOT
ATOM      3  O   UNL     1      -1.689  -3.214  23.523  0.00  0.00    -0.252 OA
ATOM      6  N   UNL     1      -2.845  -1.622  24.807  0.00  0.00    -0.278 N 
ATOM      7  N   UNL     1      -4.607   0.476  25.363  0.00  0.00    -0.173 NA
ATOM      8  N   UNL     1      -0.643  -1.882  25.164  0.00  0.00    -0.279 N 
ATOM      9  C   UNL     1      -2.555  -0.756  25.934  0.00  0.00    +0.111 C 
ATOM     10  C   UNL     1      -3.154   0.627  25.710  0.00  0.00    +0.133 C 
ATOM     11  C   UNL     1      -1.031  -0.782  26.030  0.00  0.00    +0.133 C 
ATOM     12  C   UNL     1      -4.205  -1.731  24.318  0.00  0.00    +0.127 C 
ATOM     13  C   UNL     1      -4.801  -0.341  24.119  0.00  0.00    +0.128 C 
ATOM     14  C   UNL     1      -1.723  -2.351  24.391  0.00  0.00    +0.305 C 
ENDROOT
BRANCH   7   1
ATOM      1  S   UNL     1      -5.528   1.920  25.440  0.00  0.00    +0.061 S 
ATOM      4  O   UNL     1      -6.087   2.053  26.768  0.00  0.00    -0.153 OA
ATOM      5  O   UNL     1      -6.369   2.001  24.265  0.00  0.00    -0.153 OA
BRANCH   1  16
ATOM     16  C   UNL     1      -4.241   3.115  25.271  0.00  0.00    +0.105 A 
ATOM     18  C   UNL     1      -3.774   3.800  26.393  0.00  0.00    +0.028 A 
ATOM     19  C   UNL     1      -3.691   3.376  24.015  0.00  0.00    +0.028 A 
ATOM     22  C   UNL     1      -2.757   4.746  26.259  0.00  0.00    +0.002 A 
ATOM     23  C   UNL     1      -2.673   4.321  23.882  0.00  0.00    +0.002 A 
ATOM     26  C   UNL     1      -2.206   5.006  25.004  0.00  0.00    +0.000 A 
ENDBRANCH   1  16
ENDBRANCH   7   1
BRANCH   8  15
ATOM     15  C   UNL     1       0.732  -2.317  25.048  0.00  0.00    +0.144 C 
BRANCH  15  17
ATOM      2  F   UNL     1       3.725   1.036  21.657  0.00  0.00    -0.205 F 
ATOM     17  C   UNL     1       1.530  -1.423  24.144  0.00  0.00    -0.030 A 
ATOM     20  C   UNL     1       0.889  -0.439  23.391  0.00  0.00    +0.008 A 
ATOM     21  C   UNL     1       2.915  -1.575  24.056  0.00  0.00    +0.008 A 
ATOM     24  C   UNL     1       1.629   0.391  22.551  0.00  0.00    +0.038 A 
ATOM     25  C   UNL     1       3.656  -0.745  23.215  0.00  0.00    +0.038 A 
ATOM     27  C   UNL     1       3.013   0.239  22.462  0.00  0.00    +0.123 A 
ENDBRANCH  15  17
ENDBRANCH   8  15
TORSDOF 4
ENDMDL
MODEL 6
REMARK VINA RESULT:      -0.1     15.985     17.287
REMARK  Name = 75536993
REMARK  4 active torsions:
REMARK  status: ('A' for Active; 'I' for Inactive)
REMARK    1  A    between atoms: S_1  and  N_7
REMARK    2  A    between atoms: S_1  and  C_16
REMARK    3  A    between atoms: N_8  and  C_15
REMARK    4  A    between atoms: C_15  and  C_17
REMARK                            x       y       z     vdW  Elec       q    Type
REMARK                         _______ _______ _______ _____ _____    ______ ____
ROOT
ATOM      3  O   UNL     1       0.808  -2.093  24.568  0.00  0.00    -0.252 OA
ATOM      6  N   UNL     1      -0.891  -0.492  24.835  0.00  0.00    -0.278 N 
ATOM      7  N   UNL     1      -3.457   0.511  25.305  0.00  0.00    -0.173 NA
ATOM      8  N   UNL     1       0.533  -0.258  23.113  0.00  0.00    -0.279 N 
ATOM      9  C   UNL     1      -1.261   0.772  24.228  0.00  0.00    +0.111 C 
ATOM     10  C   UNL     1      -2.768   0.837  24.012  0.00  0.00    +0.133 C 
ATOM     11  C   UNL     1      -0.432   0.816  22.946  0.00  0.00    +0.133 C 
ATOM     12  C   UNL     1      -1.593  -0.953  26.017  0.00  0.00    +0.127 C 
ATOM     13  C   UNL     1      -3.100  -0.862  25.797  0.00  0.00    +0.128 C 
ATOM     14  C   UNL     1       0.226  -1.075  24.219  0.00  0.00    +0.305 C 
ENDROOT
BRANCH   7   1
ATOM      1  S   UNL     1      -5.128   0.892  25.357  0.00  0.00    +0.061 S 
ATOM      4  O   UNL     1      -5.616   0.688  26.704  0.00  0.00    -0.153 OA
ATOM      5  O   UNL     1      -5.783   0.277  24.224  0.00  0.00    -0.153 OA
BRANCH   1  16
ATOM     16  C   UNL     1      -5.056   2.631  25.065  0.00  0.00    +0.105 A 
ATOM     18  C   UNL     1      -5.935   3.486  25.729  0.00  0.00    +0.028 A 
ATOM     19  C   UNL     1      -4.119   3.150  24.171  0.00  0.00    +0.028 A 
ATOM     22  C   UNL     1      -5.878   4.861  25.498  0.00  0.00    +0.002 A 
ATOM     23  C   UNL     1      -4.061   4.525  23.940  0.00  0.00    +0.002 A 
ATOM     26  C   UNL     1      -4.941   5.381  24.604  0.00  0.00    +0.000 A 
ENDBRANCH   1  16
ENDBRANCH   7   1
BRANCH   8  15
ATOM     15  C   UNL     1       1.588  -0.496  22.153  0.00  0.00    +0.144 C 
BRANCH  15  17
ATOM      2  F   UNL     1       6.695   0.267  24.396  0.00  0.00    -0.205 F 
ATOM     17  C   UNL     1       2.949  -0.292  22.752  0.00  0.00    -0.030 A 
ATOM     20  C   UNL     1       3.583  -1.341  23.418  0.00  0.00    +0.008 A 
ATOM     21  C   UNL     1       3.583   0.946  22.641  0.00  0.00    +0.008 A 
ATOM     24  C   UNL     1       4.847  -1.154  23.974  0.00  0.00    +0.038 A 
ATOM     25  C   UNL     1       4.848   1.135  23.197  0.00  0.00    +0.038 A 
ATOM     27  C   UNL     1       5.481   0.085  23.864  0.00  0.00    +0.123 A 
ENDBRANCH  15  17
ENDBRANCH   8  15
TORSDOF 4
ENDMDL
MODEL 7
REMARK VINA RESULT:       2.0     15.595     17.080
REMARK  Name = 75536993
REMARK  4 active torsions:
REMARK  status: ('A' for Active; 'I' for Inactive)
REMARK    1  A    between atoms: S_1  and  N_7
REMARK    2  A    between atoms: S_1  and  C_16
REMARK    3  A    between atoms: N_8  and  C_15
REMARK    4  A    between atoms: C_15  and  C_17
REMARK                            x       y       z     vdW  Elec       q    Type
REMARK                         _______ _______ _______ _____ _____    ______ ____
ROOT
ATOM      3  O   UNL     1       2.302   1.862  23.825  0.00  0.00    -0.252 OA
ATOM      6  N   UNL     1       0.061   1.186  23.615  0.00  0.00    -0.278 N 
ATOM      7  N   UNL     1      -2.488   0.374  24.424  0.00  0.00    -0.173 NA
ATOM      8  N   UNL     1       1.589   0.249  22.261  0.00  0.00    -0.279 N 
ATOM      9  C   UNL     1      -0.713   0.348  22.720  0.00  0.00    +0.111 C 
ATOM     10  C   UNL     1      -1.691  -0.513  23.511  0.00  0.00    +0.133 C 
ATOM     11  C   UNL     1       0.347  -0.438  21.950  0.00  0.00    +0.133 C 
ATOM     12  C   UNL     1      -0.617   1.982  24.620  0.00  0.00    +0.127 C 
ATOM     13  C   UNL     1      -1.609   1.115  25.389  0.00  0.00    +0.128 C 
ATOM     14  C   UNL     1       1.427   1.188  23.298  0.00  0.00    +0.305 C 
ENDROOT
BRANCH   7   1
ATOM      1  S   UNL     1      -3.879  -0.353  25.114  0.00  0.00    +0.061 S 
ATOM      4  O   UNL     1      -3.521  -0.940  26.387  0.00  0.00    -0.153 OA
ATOM      5  O   UNL     1      -4.554  -1.129  24.098  0.00  0.00    -0.153 OA
BRANCH   1  16
ATOM     16  C   UNL     1      -4.850   1.085  25.435  0.00  0.00    +0.105 A 
ATOM     18  C   UNL     1      -5.976   0.998  26.253  0.00  0.00    +0.028 A 
ATOM     19  C   UNL     1      -4.491   2.310  24.871  0.00  0.00    +0.028 A 
ATOM     22  C   UNL     1      -6.745   2.135  26.506  0.00  0.00    +0.002 A 
ATOM     23  C   UNL     1      -5.258   3.447  25.125  0.00  0.00    +0.002 A 
ATOM     26  C   UNL     1      -6.386   3.359  25.943  0.00  0.00    +0.000 A 
ENDBRANCH   1  16
ENDBRANCH   7   1
BRANCH   8  15
ATOM     15  C   UNL     1       2.843  -0.120  21.642  0.00  0.00    +0.144 C 
BRANCH  15  17
ATOM      2  F   UNL     1       6.884  -1.037  25.453  0.00  0.00    -0.205 F 
ATOM     17  C   UNL     1       3.921  -0.365  22.658  0.00  0.00    -0.030 A 
ATOM     20  C   UNL     1       4.899   0.603  22.884  0.00  0.00    +0.008 A 
ATOM     21  C   UNL     1       3.944  -1.560  23.377  0.00  0.00    +0.008 A 
ATOM     24  C   UNL     1       5.900   0.378  23.827  0.00  0.00    +0.038 A 
ATOM     25  C   UNL     1       4.946  -1.788  24.321  0.00  0.00    +0.038 A 
ATOM     27  C   UNL     1       5.924  -0.818  24.546  0.00  0.00    +0.123 A 
ENDBRANCH  15  17
ENDBRANCH   8  15
TORSDOF 4
ENDMDL
MODEL 8
REMARK VINA RESULT:       2.2     15.633     17.335
REMARK  Name = 75536993
REMARK  4 active torsions:
REMARK  status: ('A' for Active; 'I' for Inactive)
REMARK    1  A    between atoms: S_1  and  N_7
REMARK    2  A    between atoms: S_1  and  C_16
REMARK    3  A    between atoms: N_8  and  C_15
REMARK    4  A    between atoms: C_15  and  C_17
REMARK                            x       y       z     vdW  Elec       q    Type
REMARK                         _______ _______ _______ _____ _____    ______ ____
ROOT
ATOM      3  O   UNL     1      -0.236   5.146  25.018  0.00  0.00    -0.252 OA
ATOM      6  N   UNL     1      -2.053   3.775  24.437  0.00  0.00    -0.278 N 
ATOM      7  N   UNL     1      -4.362   2.241  24.795  0.00  0.00    -0.173 NA
ATOM      8  N   UNL     1      -0.036   3.293  23.574  0.00  0.00    -0.279 N 
ATOM      9  C   UNL     1      -2.302   2.677  23.522  0.00  0.00    +0.111 C 
ATOM     10  C   UNL     1      -3.141   1.600  24.200  0.00  0.00    +0.133 C 
ATOM     11  C   UNL     1      -0.903   2.225  23.107  0.00  0.00    +0.133 C 
ATOM     12  C   UNL     1      -3.159   4.373  25.158  0.00  0.00    +0.127 C 
ATOM     13  C   UNL     1      -4.005   3.285  25.813  0.00  0.00    +0.128 C 
ATOM     14  C   UNL     1      -0.715   4.194  24.417  0.00  0.00    +0.305 C 
ENDROOT
BRANCH   7   1
ATOM      1  S   UNL     1      -5.598   1.152  25.271  0.00  0.00    +0.061 S 
ATOM      4  O   UNL     1      -6.668   1.199  24.298  0.00  0.00    -0.153 OA
ATOM      5  O   UNL     1      -5.863   1.333  26.682  0.00  0.00    -0.153 OA
BRANCH   1  16
ATOM     16  C   UNL     1      -4.750  -0.383  25.070  0.00  0.00    +0.105 A 
ATOM     18  C   UNL     1      -3.894  -0.843  26.070  0.00  0.00    +0.028 A 
ATOM     19  C   UNL     1      -4.936  -1.136  23.910  0.00  0.00    +0.028 A 
ATOM     22  C   UNL     1      -3.222  -2.056  25.910  0.00  0.00    +0.002 A 
ATOM     23  C   UNL     1      -4.266  -2.349  23.750  0.00  0.00    +0.002 A 
ATOM     26  C   UNL     1      -3.409  -2.809  24.751  0.00  0.00    +0.000 A 
ENDBRANCH   1  16
ENDBRANCH   7   1
BRANCH   8  15
ATOM     15  C   UNL     1       1.382   3.307  23.289  0.00  0.00    +0.144 C 
BRANCH  15  17
ATOM      2  F   UNL     1       3.577  -1.878  23.249  0.00  0.00    -0.205 F 
ATOM     17  C   UNL     1       1.967   1.924  23.278  0.00  0.00    -0.030 A 
ATOM     20  C   UNL     1       3.309   1.737  22.948  0.00  0.00    +0.008 A 
ATOM     21  C   UNL     1       1.169   0.825  23.599  0.00  0.00    +0.008 A 
ATOM     24  C   UNL     1       3.854   0.454  22.938  0.00  0.00    +0.038 A 
ATOM     25  C   UNL     1       1.713  -0.459  23.589  0.00  0.00    +0.038 A 
ATOM     27  C   UNL     1       3.055  -0.646  23.258  0.00  0.00    +0.123 A 
ENDBRANCH  15  17
ENDBRANCH   8  15
TORSDOF 4
ENDMDL
