MODEL 1
REMARK VINA RESULT:       4.5      0.000      0.000
REMARK  Name = 11887582
REMARK  13 active torsions:
REMARK  status: ('A' for Active; 'I' for Inactive)
REMARK    1  A    between atoms: O_4  and  C_20
REMARK    2  A    between atoms: O_4  and  C_30
REMARK    3  A    between atoms: O_5  and  C_23
REMARK    4  A    between atoms: O_5  and  C_35
REMARK    5  A    between atoms: O_7  and  C_33
REMARK    6  A    between atoms: O_7  and  C_36
REMARK    7  A    between atoms: N_10  and  C_19
REMARK    8  A    between atoms: C_12  and  C_16
REMARK    9  A    between atoms: C_17  and  C_20
REMARK   10  A    between atoms: C_18  and  C_22
REMARK   11  A    between atoms: C_19  and  C_21
REMARK   12  A    between atoms: C_19  and  C_23
REMARK   13  A    between atoms: C_21  and  C_24
REMARK                            x       y       z     vdW  Elec       q    Type
REMARK                         _______ _______ _______ _____ _____    ______ ____
ROOT
ATOM      2  O   UNL     1      -3.562  -3.308  26.016  0.00  0.00    -0.273 OA
ATOM      3  O   UNL     1      -3.411   2.885  22.394  0.00  0.00    -0.270 OA
ATOM      8  N   UNL     1      -3.449  -1.530  24.518  0.00  0.00    -0.285 N 
ATOM      9  N   UNL     1      -3.937   1.217  23.945  0.00  0.00    -0.294 N 
ATOM     12  C   UNL     1      -3.311  -0.533  25.588  0.00  0.00    +0.179 C 
ATOM     13  C   UNL     1      -4.099   0.751  25.327  0.00  0.00    +0.140 C 
ATOM     14  C   UNL     1      -3.361  -1.025  23.137  0.00  0.00    +0.127 C 
ATOM     15  C   UNL     1      -4.231   0.207  22.933  0.00  0.00    +0.127 C 
ATOM     17  C   UNL     1      -3.488  -2.887  24.858  0.00  0.00    +0.242 C 
ATOM     18  C   UNL     1      -3.543   2.497  23.554  0.00  0.00    +0.248 C 
ENDROOT
BRANCH  18  22
ATOM     11  N   UNL     1      -3.745   4.347  26.811  0.00  0.00    -0.263 NA
ATOM     22  C   UNL     1      -3.261   3.484  24.605  0.00  0.00    +0.055 A 
ATOM     25  C   UNL     1      -2.288   4.460  24.427  0.00  0.00    +0.016 A 
ATOM     26  C   UNL     1      -3.955   3.469  25.804  0.00  0.00    +0.123 A 
ATOM     29  C   UNL     1      -2.042   5.381  25.440  0.00  0.00    +0.020 A 
ATOM     34  C   UNL     1      -2.791   5.282  26.603  0.00  0.00    +0.111 A 
ENDBRANCH  18  22
BRANCH  12  16
ATOM      1  O   UNL     1      -1.239  -0.478  26.778  0.00  0.00    -0.274 OA
ATOM     10  N   UNL     1      -1.292   0.266  24.572  0.00  0.00    -0.301 N 
ATOM     16  C   UNL     1      -1.840  -0.260  25.729  0.00  0.00    +0.236 C 
ATOM     37  H   UNL     1      -1.878   0.397  23.752  0.00  0.00    +0.150 HD
BRANCH  10  19
ATOM     19  C   UNL     1       0.100   0.637  24.454  0.00  0.00    +0.186 C 
BRANCH  19  23
ATOM      6  O   UNL     1       0.030   2.879  23.557  0.00  0.00    -0.249 OA
ATOM     23  C   UNL     1       0.304   2.145  24.500  0.00  0.00    +0.328 C 
BRANCH  23   5
ATOM      5  O   UNL     1       0.832   2.556  25.687  0.00  0.00    -0.467 OA
ATOM     35  C   UNL     1      -0.091   2.658  26.776  0.00  0.00    +0.280 C 
ENDBRANCH  23   5
ENDBRANCH  19  23
BRANCH  19  21
ATOM     21  C   UNL     1       0.741   0.006  23.208  0.00  0.00    +0.069 C 
BRANCH  21  24
ATOM     24  C   UNL     1       2.252   0.036  23.191  0.00  0.00    -0.045 A 
ATOM     27  C   UNL     1       2.923   1.175  22.748  0.00  0.00    +0.007 A 
ATOM     28  C   UNL     1       2.976  -1.078  23.619  0.00  0.00    +0.007 A 
ATOM     31  C   UNL     1       4.317   1.202  22.733  0.00  0.00    +0.046 A 
ATOM     32  C   UNL     1       4.371  -1.052  23.604  0.00  0.00    +0.046 A 
ATOM     33  C   UNL     1       5.041   0.088  23.160  0.00  0.00    +0.120 A 
BRANCH  33   7
ATOM      7  O   UNL     1       6.402   0.114  23.145  0.00  0.00    -0.495 OA
ATOM     36  C   UNL     1       7.070  -1.092  22.778  0.00  0.00    +0.277 C 
ENDBRANCH  33   7
ENDBRANCH  21  24
ENDBRANCH  19  21
ENDBRANCH  10  19
ENDBRANCH  12  16
BRANCH  17  20
ATOM     20  C   UNL     1      -3.440  -3.872  23.718  0.00  0.00    +0.255 C 
BRANCH  20   4
ATOM      4  O   UNL     1      -2.131  -3.829  23.204  0.00  0.00    -0.374 OA
ATOM     30  C   UNL     1      -1.218  -3.221  24.114  0.00  0.00    +0.194 C 
ENDBRANCH  20   4
ENDBRANCH  17  20
TORSDOF 10
ENDMDL
MODEL 2
REMARK VINA RESULT:       4.9      2.034      6.804
REMARK  Name = 11887582
REMARK  13 active torsions:
REMARK  status: ('A' for Active; 'I' for Inactive)
REMARK    1  A    between atoms: O_4  and  C_20
REMARK    2  A    between atoms: O_4  and  C_30
REMARK    3  A    between atoms: O_5  and  C_23
REMARK    4  A    between atoms: O_5  and  C_35
REMARK    5  A    between atoms: O_7  and  C_33
REMARK    6  A    between atoms: O_7  and  C_36
REMARK    7  A    between atoms: N_10  and  C_19
REMARK    8  A    between atoms: C_12  and  C_16
REMARK    9  A    between atoms: C_17  and  C_20
REMARK   10  A    between atoms: C_18  and  C_22
REMARK   11  A    between atoms: C_19  and  C_21
REMARK   12  A    between atoms: C_19  and  C_23
REMARK   13  A    between atoms: C_21  and  C_24
REMARK                            x       y       z     vdW  Elec       q    Type
REMARK                         _______ _______ _______ _____ _____    ______ ____
ROOT
ATOM      2  O   UNL     1      -3.677   0.916  23.330  0.00  0.00    -0.273 OA
ATOM      3  O   UNL     1       2.367  -2.672  24.777  0.00  0.00    -0.270 OA
ATOM      8  N   UNL     1      -1.949  -0.474  24.037  0.00  0.00    -0.285 N 
ATOM      9  N   UNL     1       0.701  -1.452  23.680  0.00  0.00    -0.294 N 
ATOM     12  C   UNL     1      -0.907   0.430  23.531  0.00  0.00    +0.179 C 
ATOM     13  C   UNL     1       0.267  -0.301  22.880  0.00  0.00    +0.140 C 
ATOM     14  C   UNL     1      -1.484  -1.664  24.770  0.00  0.00    +0.127 C 
ATOM     15  C   UNL     1      -0.369  -2.383  24.023  0.00  0.00    +0.127 C 
ATOM     17  C   UNL     1      -3.289  -0.081  23.944  0.00  0.00    +0.242 C 
ATOM     18  C   UNL     1       2.005  -1.704  24.109  0.00  0.00    +0.248 C 
ENDROOT
BRANCH  18  22
ATOM     11  N   UNL     1       3.646   1.408  22.808  0.00  0.00    -0.263 NA
ATOM     22  C   UNL     1       3.052  -0.744  23.737  0.00  0.00    +0.055 A 
ATOM     25  C   UNL     1       4.396  -1.035  23.942  0.00  0.00    +0.016 A 
ATOM     26  C   UNL     1       2.732   0.480  23.173  0.00  0.00    +0.123 A 
ATOM     29  C   UNL     1       5.366  -0.106  23.581  0.00  0.00    +0.020 A 
ATOM     34  C   UNL     1       4.942   1.090  23.023  0.00  0.00    +0.111 A 
ENDBRANCH  18  22
BRANCH  12  16
ATOM      1  O   UNL     1      -0.319   0.781  25.821  0.00  0.00    -0.274 OA
ATOM     10  N   UNL     1      -0.265   2.588  24.354  0.00  0.00    -0.301 N 
ATOM     16  C   UNL     1      -0.461   1.262  24.700  0.00  0.00    +0.236 C 
ATOM     37  H   UNL     1      -0.400   2.882  23.391  0.00  0.00    +0.150 HD
BRANCH  10  19
ATOM     19  C   UNL     1       0.143   3.600  25.302  0.00  0.00    +0.186 C 
BRANCH  19  23
ATOM      6  O   UNL     1      -0.527   2.619  27.406  0.00  0.00    -0.249 OA
ATOM     23  C   UNL     1       0.383   3.029  26.693  0.00  0.00    +0.328 C 
BRANCH  23   5
ATOM      5  O   UNL     1       1.701   3.049  27.036  0.00  0.00    -0.467 OA
ATOM     35  C   UNL     1       1.986   2.835  28.423  0.00  0.00    +0.280 C 
ENDBRANCH  23   5
ENDBRANCH  19  23
BRANCH  19  21
ATOM     21  C   UNL     1      -0.847   4.775  25.324  0.00  0.00    +0.069 C 
BRANCH  21  24
ATOM     24  C   UNL     1      -2.304   4.372  25.340  0.00  0.00    -0.045 A 
ATOM     27  C   UNL     1      -2.985   4.167  24.140  0.00  0.00    +0.007 A 
ATOM     28  C   UNL     1      -2.969   4.206  26.556  0.00  0.00    +0.007 A 
ATOM     31  C   UNL     1      -4.328   3.796  24.155  0.00  0.00    +0.046 A 
ATOM     32  C   UNL     1      -4.313   3.836  26.571  0.00  0.00    +0.046 A 
ATOM     33  C   UNL     1      -4.993   3.631  25.371  0.00  0.00    +0.120 A 
BRANCH  33   7
ATOM      7  O   UNL     1      -6.305   3.269  25.385  0.00  0.00    -0.495 OA
ATOM     36  C   UNL     1      -6.613   1.930  24.998  0.00  0.00    +0.277 C 
ENDBRANCH  33   7
ENDBRANCH  21  24
ENDBRANCH  19  21
ENDBRANCH  10  19
ENDBRANCH  12  16
BRANCH  17  20
ATOM     20  C   UNL     1      -4.300  -0.954  24.645  0.00  0.00    +0.255 C 
BRANCH  20   4
ATOM      4  O   UNL     1      -4.669  -1.956  23.729  0.00  0.00    -0.374 OA
ATOM     30  C   UNL     1      -4.124  -3.227  24.077  0.00  0.00    +0.194 C 
ENDBRANCH  20   4
ENDBRANCH  17  20
TORSDOF 10
ENDMDL
MODEL 3
REMARK VINA RESULT:       5.2      1.434      5.136
REMARK  Name = 11887582
REMARK  13 active torsions:
REMARK  status: ('A' for Active; 'I' for Inactive)
REMARK    1  A    between atoms: O_4  and  C_20
REMARK    2  A    between atoms: O_4  and  C_30
REMARK    3  A    between atoms: O_5  and  C_23
REMARK    4  A    between atoms: O_5  and  C_35
REMARK    5  A    between atoms: O_7  and  C_33
REMARK    6  A    between atoms: O_7  and  C_36
REMARK    7  A    between atoms: N_10  and  C_19
REMARK    8  A    between atoms: C_12  and  C_16
REMARK    9  A    between atoms: C_17  and  C_20
REMARK   10  A    between atoms: C_18  and  C_22
REMARK   11  A    between atoms: C_19  and  C_21
REMARK   12  A    between atoms: C_19  and  C_23
REMARK   13  A    between atoms: C_21  and  C_24
REMARK                            x       y       z     vdW  Elec       q    Type
REMARK                         _______ _______ _______ _____ _____    ______ ____
ROOT
ATOM      2  O   UNL     1      -4.459   4.273  22.701  0.00  0.00    -0.273 OA
ATOM      3  O   UNL     1      -3.327  -1.392  26.957  0.00  0.00    -0.270 OA
ATOM      8  N   UNL     1      -4.057   2.708  24.375  0.00  0.00    -0.285 N 
ATOM      9  N   UNL     1      -4.122   0.000  25.255  0.00  0.00    -0.294 N 
ATOM     12  C   UNL     1      -3.791   1.629  23.414  0.00  0.00    +0.179 C 
ATOM     13  C   UNL     1      -4.376   0.281  23.837  0.00  0.00    +0.140 C 
ATOM     14  C   UNL     1      -3.869   2.378  25.799  0.00  0.00    +0.127 C 
ATOM     15  C   UNL     1      -4.544   1.062  26.163  0.00  0.00    +0.127 C 
ATOM     17  C   UNL     1      -4.302   3.998  23.893  0.00  0.00    +0.242 C 
ATOM     18  C   UNL     1      -3.536  -1.158  25.767  0.00  0.00    +0.248 C 
ENDROOT
BRANCH  18  22
ATOM     11  N   UNL     1      -1.352  -3.354  23.651  0.00  0.00    -0.263 NA
ATOM     22  C   UNL     1      -3.129  -2.203  24.819  0.00  0.00    +0.055 A 
ATOM     25  C   UNL     1      -4.072  -3.017  24.202  0.00  0.00    +0.016 A 
ATOM     26  C   UNL     1      -1.794  -2.411  24.513  0.00  0.00    +0.123 A 
ATOM     29  C   UNL     1      -3.658  -3.998  23.309  0.00  0.00    +0.020 A 
ATOM     34  C   UNL     1      -2.298  -4.126  23.070  0.00  0.00    +0.111 A 
ENDBRANCH  18  22
BRANCH  12  16
ATOM      1  O   UNL     1      -1.745   1.874  22.203  0.00  0.00    -0.274 OA
ATOM     10  N   UNL     1      -1.671   1.091  24.394  0.00  0.00    -0.301 N 
ATOM     16  C   UNL     1      -2.300   1.559  23.253  0.00  0.00    +0.236 C 
ATOM     37  H   UNL     1      -2.223   0.868  25.217  0.00  0.00    +0.150 HD
BRANCH  10  19
ATOM     19  C   UNL     1      -0.240   0.908  24.491  0.00  0.00    +0.186 C 
BRANCH  19  23
ATOM      6  O   UNL     1       0.655   3.089  23.958  0.00  0.00    -0.249 OA
ATOM     23  C   UNL     1       0.490   2.209  24.797  0.00  0.00    +0.328 C 
BRANCH  23   5
ATOM      5  O   UNL     1       0.938   2.256  26.083  0.00  0.00    -0.467 OA
ATOM     35  C   UNL     1      -0.050   2.558  27.074  0.00  0.00    +0.280 C 
ENDBRANCH  23   5
ENDBRANCH  19  23
BRANCH  19  21
ATOM     21  C   UNL     1       0.318   0.214  23.239  0.00  0.00    +0.069 C 
BRANCH  21  24
ATOM     24  C   UNL     1       1.827   0.124  23.186  0.00  0.00    -0.045 A 
ATOM     27  C   UNL     1       2.471  -1.045  23.589  0.00  0.00    +0.007 A 
ATOM     28  C   UNL     1       2.575   1.213  22.735  0.00  0.00    +0.007 A 
ATOM     31  C   UNL     1       3.861  -1.128  23.540  0.00  0.00    +0.046 A 
ATOM     32  C   UNL     1       3.966   1.131  22.687  0.00  0.00    +0.046 A 
ATOM     33  C   UNL     1       4.610  -0.040  23.089  0.00  0.00    +0.120 A 
BRANCH  33   7
ATOM      7  O   UNL     1       5.968  -0.120  23.042  0.00  0.00    -0.495 OA
ATOM     36  C   UNL     1       6.620  -0.735  24.152  0.00  0.00    +0.277 C 
ENDBRANCH  33   7
ENDBRANCH  21  24
ENDBRANCH  19  21
ENDBRANCH  10  19
ENDBRANCH  12  16
BRANCH  17  20
ATOM     20  C   UNL     1      -4.381   5.101  24.920  0.00  0.00    +0.255 C 
BRANCH  20   4
ATOM      4  O   UNL     1      -3.272   4.937  25.771  0.00  0.00    -0.374 OA
ATOM     30  C   UNL     1      -2.042   5.225  25.111  0.00  0.00    +0.194 C 
ENDBRANCH  20   4
ENDBRANCH  17  20
TORSDOF 10
ENDMDL
MODEL 4
REMARK VINA RESULT:       5.5      2.575      5.064
REMARK  Name = 11887582
REMARK  13 active torsions:
REMARK  status: ('A' for Active; 'I' for Inactive)
REMARK    1  A    between atoms: O_4  and  C_20
REMARK    2  A    between atoms: O_4  and  C_30
REMARK    3  A    between atoms: O_5  and  C_23
REMARK    4  A    between atoms: O_5  and  C_35
REMARK    5  A    between atoms: O_7  and  C_33
REMARK    6  A    between atoms: O_7  and  C_36
REMARK    7  A    between atoms: N_10  and  C_19
REMARK    8  A    between atoms: C_12  and  C_16
REMARK    9  A    between atoms: C_17  and  C_20
REMARK   10  A    between atoms: C_18  and  C_22
REMARK   11  A    between atoms: C_19  and  C_21
REMARK   12  A    between atoms: C_19  and  C_23
REMARK   13  A    between atoms: C_21  and  C_24
REMARK                            x       y       z     vdW  Elec       q    Type
REMARK                         _______ _______ _______ _____ _____    ______ ____
ROOT
ATOM      2  O   UNL     1       0.732  -1.577  23.878  0.00  0.00    -0.273 OA
ATOM      3  O   UNL     1      -4.144   3.539  22.637  0.00  0.00    -0.270 OA
ATOM      8  N   UNL     1      -0.571   0.240  23.232  0.00  0.00    -0.285 N 
ATOM      9  N   UNL     1      -3.130   1.479  23.078  0.00  0.00    -0.294 N 
ATOM     12  C   UNL     1      -1.541   0.032  24.315  0.00  0.00    +0.179 C 
ATOM     13  C   UNL     1      -2.990   0.262  23.886  0.00  0.00    +0.140 C 
ATOM     14  C   UNL     1      -0.779   1.428  22.386  0.00  0.00    +0.127 C 
ATOM     15  C   UNL     1      -2.228   1.548  21.933  0.00  0.00    +0.127 C 
ATOM     17  C   UNL     1       0.559  -0.582  23.169  0.00  0.00    +0.242 C 
ATOM     18  C   UNL     1      -4.026   2.522  23.318  0.00  0.00    +0.248 C 
ENDROOT
BRANCH  18  22
ATOM     11  N   UNL     1      -6.253   3.509  26.170  0.00  0.00    -0.263 NA
ATOM     22  C   UNL     1      -4.920   2.411  24.479  0.00  0.00    +0.055 A 
ATOM     25  C   UNL     1      -5.282   1.169  24.987  0.00  0.00    +0.016 A 
ATOM     26  C   UNL     1      -5.428   3.540  25.100  0.00  0.00    +0.123 A 
ATOM     29  C   UNL     1      -6.130   1.095  26.087  0.00  0.00    +0.020 A 
ATOM     34  C   UNL     1      -6.585   2.284  26.637  0.00  0.00    +0.111 A 
ENDBRANCH  18  22
BRANCH  12  16
ATOM      1  O   UNL     1      -0.950   0.551  26.573  0.00  0.00    -0.274 OA
ATOM     10  N   UNL     1      -1.043   2.272  25.008  0.00  0.00    -0.301 N 
ATOM     16  C   UNL     1      -1.140   0.958  25.429  0.00  0.00    +0.236 C 
ATOM     37  H   UNL     1      -1.211   2.502  24.033  0.00  0.00    +0.150 HD
BRANCH  10  19
ATOM     19  C   UNL     1      -0.696   3.362  25.892  0.00  0.00    +0.186 C 
BRANCH  19  23
ATOM      6  O   UNL     1      -0.390   5.424  24.669  0.00  0.00    -0.249 OA
ATOM     23  C   UNL     1      -1.130   4.715  25.343  0.00  0.00    +0.328 C 
BRANCH  23   5
ATOM      5  O   UNL     1      -2.406   5.030  25.703  0.00  0.00    -0.467 OA
ATOM     35  C   UNL     1      -2.941   4.290  26.805  0.00  0.00    +0.280 C 
ENDBRANCH  23   5
ENDBRANCH  19  23
BRANCH  19  21
ATOM     21  C   UNL     1       0.799   3.337  26.246  0.00  0.00    +0.069 C 
BRANCH  21  24
ATOM     24  C   UNL     1       1.103   2.941  27.673  0.00  0.00    -0.045 A 
ATOM     27  C   UNL     1       0.061   2.694  28.567  0.00  0.00    +0.007 A 
ATOM     28  C   UNL     1       2.428   2.821  28.096  0.00  0.00    +0.007 A 
ATOM     31  C   UNL     1       0.343   2.328  29.882  0.00  0.00    +0.046 A 
ATOM     32  C   UNL     1       2.710   2.456  29.412  0.00  0.00    +0.046 A 
ATOM     33  C   UNL     1       1.667   2.210  30.305  0.00  0.00    +0.120 A 
BRANCH  33   7
ATOM      7  O   UNL     1       1.941   1.853  31.590  0.00  0.00    -0.495 OA
ATOM     36  C   UNL     1       0.889   1.999  32.543  0.00  0.00    +0.277 C 
ENDBRANCH  33   7
ENDBRANCH  21  24
ENDBRANCH  19  21
ENDBRANCH  10  19
ENDBRANCH  12  16
BRANCH  17  20
ATOM     20  C   UNL     1       1.613  -0.208  22.156  0.00  0.00    +0.255 C 
BRANCH  20   4
ATOM      4  O   UNL     1       2.853  -0.298  22.815  0.00  0.00    -0.374 OA
ATOM     30  C   UNL     1       3.623   0.894  22.674  0.00  0.00    +0.194 C 
ENDBRANCH  20   4
ENDBRANCH  17  20
TORSDOF 10
ENDMDL
MODEL 5
REMARK VINA RESULT:       7.5      1.958      5.769
REMARK  Name = 11887582
REMARK  13 active torsions:
REMARK  status: ('A' for Active; 'I' for Inactive)
REMARK    1  A    between atoms: O_4  and  C_20
REMARK    2  A    between atoms: O_4  and  C_30
REMARK    3  A    between atoms: O_5  and  C_23
REMARK    4  A    between atoms: O_5  and  C_35
REMARK    5  A    between atoms: O_7  and  C_33
REMARK    6  A    between atoms: O_7  and  C_36
REMARK    7  A    between atoms: N_10  and  C_19
REMARK    8  A    between atoms: C_12  and  C_16
REMARK    9  A    between atoms: C_17  and  C_20
REMARK   10  A    between atoms: C_18  and  C_22
REMARK   11  A    between atoms: C_19  and  C_21
REMARK   12  A    between atoms: C_19  and  C_23
REMARK   13  A    between atoms: C_21  and  C_24
REMARK                            x       y       z     vdW  Elec       q    Type
REMARK                         _______ _______ _______ _____ _____    ______ ____
ROOT
ATOM      2  O   UNL     1       1.964  -0.528  22.072  0.00  0.00    -0.273 OA
ATOM      3  O   UNL     1      -1.436   5.129  24.889  0.00  0.00    -0.270 OA
ATOM      8  N   UNL     1       1.229   1.462  23.030  0.00  0.00    -0.285 N 
ATOM      9  N   UNL     1      -0.901   3.271  23.573  0.00  0.00    -0.294 N 
ATOM     12  C   UNL     1      -0.118   0.936  23.284  0.00  0.00    +0.179 C 
ATOM     13  C   UNL     1      -1.228   1.953  23.017  0.00  0.00    +0.140 C 
ATOM     14  C   UNL     1       1.508   2.819  23.531  0.00  0.00    +0.127 C 
ATOM     15  C   UNL     1       0.397   3.793  23.160  0.00  0.00    +0.127 C 
ATOM     17  C   UNL     1       2.199   0.609  22.491  0.00  0.00    +0.242 C 
ATOM     18  C   UNL     1      -1.712   4.022  24.426  0.00  0.00    +0.248 C 
ENDROOT
BRANCH  18  22
ATOM     11  N   UNL     1      -4.842   3.391  26.393  0.00  0.00    -0.263 NA
ATOM     22  C   UNL     1      -3.013   3.462  24.814  0.00  0.00    +0.055 A 
ATOM     25  C   UNL     1      -3.648   2.513  24.022  0.00  0.00    +0.016 A 
ATOM     26  C   UNL     1      -3.646   3.865  25.978  0.00  0.00    +0.123 A 
ATOM     29  C   UNL     1      -4.880   2.001  24.414  0.00  0.00    +0.020 A 
ATOM     34  C   UNL     1      -5.430   2.469  25.598  0.00  0.00    +0.111 A 
ENDBRANCH  18  22
BRANCH  12  16
ATOM      1  O   UNL     1       0.189  -0.680  25.018  0.00  0.00    -0.274 OA
ATOM     10  N   UNL     1      -0.554   1.453  25.583  0.00  0.00    -0.301 N 
ATOM     16  C   UNL     1      -0.131   0.466  24.711  0.00  0.00    +0.236 C 
ATOM     37  H   UNL     1      -0.785   2.375  25.226  0.00  0.00    +0.150 HD
BRANCH  10  19
ATOM     19  C   UNL     1      -0.676   1.248  27.009  0.00  0.00    +0.186 C 
BRANCH  19  23
ATOM      6  O   UNL     1       1.231   2.710  27.265  0.00  0.00    -0.249 OA
ATOM     23  C   UNL     1       0.422   1.954  27.793  0.00  0.00    +0.328 C 
BRANCH  23   5
ATOM      5  O   UNL     1       0.398   1.631  29.117  0.00  0.00    -0.467 OA
ATOM     35  C   UNL     1       1.319   2.345  29.947  0.00  0.00    +0.280 C 
ENDBRANCH  23   5
ENDBRANCH  19  23
BRANCH  19  21
ATOM     21  C   UNL     1      -0.758  -0.247  27.352  0.00  0.00    +0.069 C 
BRANCH  21  24
ATOM     24  C   UNL     1      -1.654  -1.056  26.442  0.00  0.00    -0.045 A 
ATOM     27  C   UNL     1      -1.151  -2.179  25.785  0.00  0.00    +0.007 A 
ATOM     28  C   UNL     1      -2.985  -0.679  26.259  0.00  0.00    +0.007 A 
ATOM     31  C   UNL     1      -1.977  -2.925  24.946  0.00  0.00    +0.046 A 
ATOM     32  C   UNL     1      -3.812  -1.425  25.419  0.00  0.00    +0.046 A 
ATOM     33  C   UNL     1      -3.308  -2.548  24.763  0.00  0.00    +0.120 A 
BRANCH  33   7
ATOM      7  O   UNL     1      -4.114  -3.276  23.943  0.00  0.00    -0.495 OA
ATOM     36  C   UNL     1      -5.132  -2.567  23.237  0.00  0.00    +0.277 C 
ENDBRANCH  33   7
ENDBRANCH  21  24
ENDBRANCH  19  21
ENDBRANCH  10  19
ENDBRANCH  12  16
BRANCH  17  20
ATOM     20  C   UNL     1       3.609   1.140  22.427  0.00  0.00    +0.255 C 
BRANCH  20   4
ATOM      4  O   UNL     1       4.239   0.752  23.624  0.00  0.00    -0.374 OA
ATOM     30  C   UNL     1       5.411  -0.025  23.384  0.00  0.00    +0.194 C 
ENDBRANCH  20   4
ENDBRANCH  17  20
TORSDOF 10
ENDMDL
MODEL 6
REMARK VINA RESULT:       7.6      2.075      6.755
REMARK  Name = 11887582
REMARK  13 active torsions:
REMARK  status: ('A' for Active; 'I' for Inactive)
REMARK    1  A    between atoms: O_4  and  C_20
REMARK    2  A    between atoms: O_4  and  C_30
REMARK    3  A    between atoms: O_5  and  C_23
REMARK    4  A    between atoms: O_5  and  C_35
REMARK    5  A    between atoms: O_7  and  C_33
REMARK    6  A    between atoms: O_7  and  C_36
REMARK    7  A    between atoms: N_10  and  C_19
REMARK    8  A    between atoms: C_12  and  C_16
REMARK    9  A    between atoms: C_17  and  C_20
REMARK   10  A    between atoms: C_18  and  C_22
REMARK   11  A    between atoms: C_19  and  C_21
REMARK   12  A    between atoms: C_19  and  C_23
REMARK   13  A    between atoms: C_21  and  C_24
REMARK                            x       y       z     vdW  Elec       q    Type
REMARK                         _______ _______ _______ _____ _____    ______ ____
ROOT
ATOM      2  O   UNL     1       0.844  -1.016  21.755  0.00  0.00    -0.273 OA
ATOM      3  O   UNL     1      -0.279   5.027  25.458  0.00  0.00    -0.270 OA
ATOM      8  N   UNL     1       0.875   0.929  23.032  0.00  0.00    -0.285 N 
ATOM      9  N   UNL     1      -0.410   3.336  23.849  0.00  0.00    -0.294 N 
ATOM     12  C   UNL     1      -0.587   0.957  23.170  0.00  0.00    +0.179 C 
ATOM     13  C   UNL     1      -1.181   2.363  23.066  0.00  0.00    +0.140 C 
ATOM     14  C   UNL     1       1.621   1.966  23.766  0.00  0.00    +0.127 C 
ATOM     15  C   UNL     1       1.019   3.348  23.553  0.00  0.00    +0.127 C 
ATOM     17  C   UNL     1       1.471  -0.149  22.369  0.00  0.00    +0.242 C 
ATOM     18  C   UNL     1      -0.927   4.210  24.806  0.00  0.00    +0.248 C 
ENDROOT
BRANCH  18  22
ATOM     11  N   UNL     1      -4.630   4.357  24.229  0.00  0.00    -0.263 NA
ATOM     22  C   UNL     1      -2.371   4.168  25.070  0.00  0.00    +0.055 A 
ATOM     25  C   UNL     1      -2.859   3.912  26.346  0.00  0.00    +0.016 A 
ATOM     26  C   UNL     1      -3.290   4.381  24.055  0.00  0.00    +0.123 A 
ATOM     29  C   UNL     1      -4.231   3.879  26.566  0.00  0.00    +0.020 A 
ATOM     34  C   UNL     1      -5.068   4.105  25.483  0.00  0.00    +0.111 A 
ENDBRANCH  18  22
BRANCH  12  16
ATOM      1  O   UNL     1      -0.449   0.756  25.548  0.00  0.00    -0.274 OA
ATOM     10  N   UNL     1      -1.721  -0.789  24.358  0.00  0.00    -0.301 N 
ATOM     16  C   UNL     1      -0.903   0.320  24.493  0.00  0.00    +0.236 C 
ATOM     37  H   UNL     1      -2.053  -1.060  23.437  0.00  0.00    +0.150 HD
BRANCH  10  19
ATOM     19  C   UNL     1      -2.153  -1.594  25.478  0.00  0.00    +0.186 C 
BRANCH  19  23
ATOM      6  O   UNL     1      -3.231  -3.730  25.817  0.00  0.00    -0.249 OA
ATOM     23  C   UNL     1      -2.920  -2.834  25.039  0.00  0.00    +0.328 C 
BRANCH  23   5
ATOM      5  O   UNL     1      -3.191  -2.825  23.704  0.00  0.00    -0.467 OA
ATOM     35  C   UNL     1      -4.568  -2.658  23.350  0.00  0.00    +0.280 C 
ENDBRANCH  23   5
ENDBRANCH  19  23
BRANCH  19  21
ATOM     21  C   UNL     1      -2.945  -0.756  26.494  0.00  0.00    +0.069 C 
BRANCH  21  24
ATOM     24  C   UNL     1      -4.102   0.020  25.907  0.00  0.00    -0.045 A 
ATOM     27  C   UNL     1      -5.210   0.325  26.697  0.00  0.00    +0.007 A 
ATOM     28  C   UNL     1      -4.063   0.430  24.574  0.00  0.00    +0.007 A 
ATOM     31  C   UNL     1      -6.277   1.041  26.156  0.00  0.00    +0.046 A 
ATOM     32  C   UNL     1      -5.130   1.145  24.032  0.00  0.00    +0.046 A 
ATOM     33  C   UNL     1      -6.238   1.450  24.823  0.00  0.00    +0.120 A 
BRANCH  33   7
ATOM      7  O   UNL     1      -7.280   2.149  24.294  0.00  0.00    -0.495 OA
ATOM     36  C   UNL     1      -8.128   1.456  23.380  0.00  0.00    +0.277 C 
ENDBRANCH  33   7
ENDBRANCH  21  24
ENDBRANCH  19  21
ENDBRANCH  10  19
ENDBRANCH  12  16
BRANCH  17  20
ATOM     20  C   UNL     1       2.977  -0.226  22.420  0.00  0.00    +0.255 C 
BRANCH  20   4
ATOM      4  O   UNL     1       3.299  -1.093  23.480  0.00  0.00    -0.374 OA
ATOM     30  C   UNL     1       4.677  -1.014  23.837  0.00  0.00    +0.194 C 
ENDBRANCH  20   4
ENDBRANCH  17  20
TORSDOF 10
ENDMDL
MODEL 7
REMARK VINA RESULT:       7.7      1.439      2.025
REMARK  Name = 11887582
REMARK  13 active torsions:
REMARK  status: ('A' for Active; 'I' for Inactive)
REMARK    1  A    between atoms: O_4  and  C_20
REMARK    2  A    between atoms: O_4  and  C_30
REMARK    3  A    between atoms: O_5  and  C_23
REMARK    4  A    between atoms: O_5  and  C_35
REMARK    5  A    between atoms: O_7  and  C_33
REMARK    6  A    between atoms: O_7  and  C_36
REMARK    7  A    between atoms: N_10  and  C_19
REMARK    8  A    between atoms: C_12  and  C_16
REMARK    9  A    between atoms: C_17  and  C_20
REMARK   10  A    between atoms: C_18  and  C_22
REMARK   11  A    between atoms: C_19  and  C_21
REMARK   12  A    between atoms: C_19  and  C_23
REMARK   13  A    between atoms: C_21  and  C_24
REMARK                            x       y       z     vdW  Elec       q    Type
REMARK                         _______ _______ _______ _____ _____    ______ ____
ROOT
ATOM      2  O   UNL     1      -0.967  -2.647  25.436  0.00  0.00    -0.273 OA
ATOM      3  O   UNL     1      -6.304   1.901  23.910  0.00  0.00    -0.270 OA
ATOM      8  N   UNL     1      -2.782  -1.426  24.641  0.00  0.00    -0.285 N 
ATOM      9  N   UNL     1      -4.726   0.614  25.057  0.00  0.00    -0.294 N 
ATOM     12  C   UNL     1      -2.422  -0.232  25.417  0.00  0.00    +0.179 C 
ATOM     13  C   UNL     1      -3.628   0.486  26.023  0.00  0.00    +0.140 C 
ATOM     14  C   UNL     1      -3.937  -1.295  23.736  0.00  0.00    +0.127 C 
ATOM     15  C   UNL     1      -5.125  -0.643  24.432  0.00  0.00    +0.127 C 
ATOM     17  C   UNL     1      -1.934  -2.538  24.677  0.00  0.00    +0.242 C 
ATOM     18  C   UNL     1      -5.382   1.797  24.718  0.00  0.00    +0.248 C 
ENDROOT
BRANCH  18  22
ATOM     11  N   UNL     1      -3.230   4.264  26.549  0.00  0.00    -0.263 NA
ATOM     22  C   UNL     1      -4.952   3.038  25.374  0.00  0.00    +0.055 A 
ATOM     25  C   UNL     1      -5.800   4.136  25.456  0.00  0.00    +0.016 A 
ATOM     26  C   UNL     1      -3.688   3.152  25.931  0.00  0.00    +0.123 A 
ATOM     29  C   UNL     1      -5.366   5.299  26.083  0.00  0.00    +0.020 A 
ATOM     34  C   UNL     1      -4.082   5.311  26.609  0.00  0.00    +0.111 A 
ENDBRANCH  18  22
BRANCH  12  16
ATOM      1  O   UNL     1      -2.103   1.000  23.394  0.00  0.00    -0.274 OA
ATOM     10  N   UNL     1      -0.421   1.021  25.003  0.00  0.00    -0.301 N 
ATOM     16  C   UNL     1      -1.655   0.664  24.487  0.00  0.00    +0.236 C 
ATOM     37  H   UNL     1      -0.149   0.696  25.926  0.00  0.00    +0.150 HD
BRANCH  10  19
ATOM     19  C   UNL     1       0.520   1.859  24.295  0.00  0.00    +0.186 C 
BRANCH  19  23
ATOM      6  O   UNL     1      -0.317   3.604  22.848  0.00  0.00    -0.249 OA
ATOM     23  C   UNL     1      -0.049   3.237  23.987  0.00  0.00    +0.328 C 
BRANCH  23   5
ATOM      5  O   UNL     1      -0.200   3.993  25.111  0.00  0.00    -0.467 OA
ATOM     35  C   UNL     1      -0.798   5.280  24.919  0.00  0.00    +0.280 C 
ENDBRANCH  23   5
ENDBRANCH  19  23
BRANCH  19  21
ATOM     21  C   UNL     1       1.049   1.160  23.034  0.00  0.00    +0.069 C 
BRANCH  21  24
ATOM     24  C   UNL     1       2.428   0.555  23.177  0.00  0.00    -0.045 A 
ATOM     27  C   UNL     1       2.569  -0.779  23.557  0.00  0.00    +0.007 A 
ATOM     28  C   UNL     1       3.559   1.334  22.929  0.00  0.00    +0.007 A 
ATOM     31  C   UNL     1       3.840  -1.335  23.689  0.00  0.00    +0.046 A 
ATOM     32  C   UNL     1       4.831   0.777  23.061  0.00  0.00    +0.046 A 
ATOM     33  C   UNL     1       4.972  -0.558  23.442  0.00  0.00    +0.120 A 
BRANCH  33   7
ATOM      7  O   UNL     1       6.213  -1.101  23.571  0.00  0.00    -0.495 OA
ATOM     36  C   UNL     1       7.316  -0.311  23.130  0.00  0.00    +0.277 C 
ENDBRANCH  33   7
ENDBRANCH  21  24
ENDBRANCH  19  21
ENDBRANCH  10  19
ENDBRANCH  12  16
BRANCH  17  20
ATOM     20  C   UNL     1      -2.249  -3.661  23.721  0.00  0.00    +0.255 C 
BRANCH  20   4
ATOM      4  O   UNL     1      -3.525  -4.141  24.069  0.00  0.00    -0.374 OA
ATOM     30  C   UNL     1      -4.479  -3.931  23.030  0.00  0.00    +0.194 C 
ENDBRANCH  20   4
ENDBRANCH  17  20
TORSDOF 10
ENDMDL
