MODEL 1
REMARK VINA RESULT:      15.0      0.000      0.000
REMARK  Name = 51136846
REMARK  5 active torsions:
REMARK  status: ('A' for Active; 'I' for Inactive)
REMARK    1  A    between atoms: N_3  and  C_10
REMARK    2  A    between atoms: N_8  and  C_31
REMARK    3  A    between atoms: C_11  and  C_19
REMARK    4  A    between atoms: C_20  and  C_22
REMARK    5  A    between atoms: C_21  and  C_27
REMARK                            x       y       z     vdW  Elec       q    Type
REMARK                         _______ _______ _______ _____ _____    ______ ____
ROOT
ATOM      1  O   UNL     1      -2.806   3.448  23.674  0.00  0.00    -0.336 OA
ATOM      5  N   UNL     1      -2.213   1.310  23.986  0.00  0.00    -0.190 NA
ATOM      6  N   UNL     1      -1.425   3.390  23.449  0.00  0.00    -0.056 NA
ATOM     19  C   UNL     1      -3.190   2.182  23.985  0.00  0.00    +0.245 A 
ATOM     21  C   UNL     1      -1.150   2.098  23.652  0.00  0.00    +0.204 A 
ENDROOT
BRANCH  21  27
ATOM      7  N   UNL     1       4.023   0.100  23.218  0.00  0.00    -0.313 N 
ATOM      8  N   UNL     1       6.727  -0.821  23.213  0.00  0.00    -0.302 NA
ATOM      9  N   UNL     1       2.552   1.835  23.876  0.00  0.00    -0.240 NA
ATOM     23  C   UNL     1       5.125   1.053  23.037  0.00  0.00    +0.122 C 
ATOM     24  C   UNL     1       4.373  -1.153  23.894  0.00  0.00    +0.122 C 
ATOM     25  C   UNL     1       6.342   0.356  22.425  0.00  0.00    +0.103 C 
ATOM     26  C   UNL     1       5.615  -1.779  23.255  0.00  0.00    +0.103 C 
ATOM     27  C   UNL     1       0.175   1.563  23.529  0.00  0.00    +0.041 A 
ATOM     28  C   UNL     1       2.724   0.610  23.330  0.00  0.00    +0.121 A 
ATOM     29  C   UNL     1       0.392   0.307  22.973  0.00  0.00    +0.016 A 
ATOM     30  C   UNL     1       1.279   2.280  23.962  0.00  0.00    +0.124 A 
ATOM     31  C   UNL     1       7.922  -1.447  22.651  0.00  0.00    +0.105 C 
ATOM     32  C   UNL     1       1.688  -0.186  22.868  0.00  0.00    +0.044 A 
ENDBRANCH  21  27
BRANCH  19  11
ATOM      3  N   UNL     1      -4.899   1.345  25.589  0.00  0.00    -0.288 NA
ATOM     11  C   UNL     1      -4.662   1.975  24.275  0.00  0.00    +0.146 C 
ATOM     12  C   UNL     1      -6.202   1.824  26.049  0.00  0.00    +0.085 C 
ATOM     13  C   UNL     1      -5.448   3.298  24.328  0.00  0.00    +0.030 C 
ATOM     16  C   UNL     1      -6.142   3.294  25.683  0.00  0.00    +0.017 C 
BRANCH   3  10
ATOM      2  O   UNL     1      -1.434  -3.720  25.212  0.00  0.00    -0.276 OA
ATOM      4  N   UNL     1      -3.413  -2.549  24.885  0.00  0.00    -0.302 N 
ATOM     10  C   UNL     1      -4.834  -0.115  25.547  0.00  0.00    +0.060 C 
ATOM     14  C   UNL     1      -4.693  -0.594  24.096  0.00  0.00    +0.038 C 
ATOM     15  C   UNL     1      -3.654  -0.613  26.392  0.00  0.00    +0.038 C 
ATOM     17  C   UNL     1      -4.526  -2.112  24.034  0.00  0.00    +0.109 C 
ATOM     18  C   UNL     1      -3.509  -2.130  26.285  0.00  0.00    +0.109 C 
ATOM     20  C   UNL     1      -2.339  -3.335  24.469  0.00  0.00    +0.212 C 
ATOM     22  C   UNL     1      -2.311  -3.723  23.011  0.00  0.00    +0.109 C 
ENDBRANCH   3  10
ENDBRANCH  19  11
TORSDOF 3
ENDMDL
MODEL 2
REMARK VINA RESULT:      17.2      2.097      4.535
REMARK  Name = 51136846
REMARK  5 active torsions:
REMARK  status: ('A' for Active; 'I' for Inactive)
REMARK    1  A    between atoms: N_3  and  C_10
REMARK    2  A    between atoms: N_8  and  C_31
REMARK    3  A    between atoms: C_11  and  C_19
REMARK    4  A    between atoms: C_20  and  C_22
REMARK    5  A    between atoms: C_21  and  C_27
REMARK                            x       y       z     vdW  Elec       q    Type
REMARK                         _______ _______ _______ _____ _____    ______ ____
ROOT
ATOM      1  O   UNL     1      -3.985  -0.720  24.627  0.00  0.00    -0.336 OA
ATOM      5  N   UNL     1      -2.555   0.988  24.861  0.00  0.00    -0.190 NA
ATOM      6  N   UNL     1      -2.725  -1.216  24.269  0.00  0.00    -0.056 NA
ATOM     19  C   UNL     1      -3.795   0.583  24.960  0.00  0.00    +0.245 A 
ATOM     21  C   UNL     1      -1.934  -0.151  24.433  0.00  0.00    +0.204 A 
ENDROOT
BRANCH  21  27
ATOM      7  N   UNL     1       3.532  -0.396  23.440  0.00  0.00    -0.313 N 
ATOM      8  N   UNL     1       6.295  -0.716  22.786  0.00  0.00    -0.302 NA
ATOM      9  N   UNL     1       1.473  -1.502  23.811  0.00  0.00    -0.240 NA
ATOM     23  C   UNL     1       4.285  -1.543  23.965  0.00  0.00    +0.122 C 
ATOM     24  C   UNL     1       4.074   0.215  22.223  0.00  0.00    +0.122 C 
ATOM     25  C   UNL     1       5.774  -1.205  24.069  0.00  0.00    +0.103 C 
ATOM     26  C   UNL     1       5.571   0.496  22.383  0.00  0.00    +0.103 C 
ATOM     27  C   UNL     1      -0.524  -0.190  24.178  0.00  0.00    +0.041 A 
ATOM     28  C   UNL     1       2.157  -0.342  23.691  0.00  0.00    +0.121 A 
ATOM     29  C   UNL     1       0.213   0.982  24.048  0.00  0.00    +0.016 A 
ATOM     30  C   UNL     1       0.147  -1.396  24.051  0.00  0.00    +0.124 A 
ATOM     31  C   UNL     1       7.729  -0.448  22.883  0.00  0.00    +0.105 C 
ATOM     32  C   UNL     1       1.580   0.913  23.800  0.00  0.00    +0.044 A 
ENDBRANCH  21  27
BRANCH  19  11
ATOM      3  N   UNL     1      -5.352   2.463  24.473  0.00  0.00    -0.288 NA
ATOM     11  C   UNL     1      -5.025   1.355  25.393  0.00  0.00    +0.146 C 
ATOM     12  C   UNL     1      -6.802   2.644  24.543  0.00  0.00    +0.085 C 
ATOM     13  C   UNL     1      -6.294   0.482  25.420  0.00  0.00    +0.030 C 
ATOM     16  C   UNL     1      -7.297   1.212  24.537  0.00  0.00    +0.017 C 
BRANCH   3  10
ATOM      2  O   UNL     1      -0.349   5.933  23.618  0.00  0.00    -0.276 OA
ATOM      4  N   UNL     1      -2.159   5.202  24.878  0.00  0.00    -0.302 N 
ATOM     10  C   UNL     1      -4.629   3.695  24.779  0.00  0.00    +0.060 C 
ATOM     14  C   UNL     1      -3.570   3.431  25.857  0.00  0.00    +0.038 C 
ATOM     15  C   UNL     1      -3.973   4.249  23.507  0.00  0.00    +0.038 C 
ATOM     17  C   UNL     1      -2.736   4.684  26.124  0.00  0.00    +0.109 C 
ATOM     18  C   UNL     1      -3.133   5.486  23.822  0.00  0.00    +0.109 C 
ATOM     20  C   UNL     1      -0.806   5.464  24.663  0.00  0.00    +0.212 C 
ATOM     22  C   UNL     1       0.133   5.141  25.798  0.00  0.00    +0.109 C 
ENDBRANCH   3  10
ENDBRANCH  19  11
TORSDOF 3
ENDMDL
