MODEL 1
REMARK VINA RESULT:       2.2      0.000      0.000
REMARK  Name = 7051762
REMARK  2 active torsions:
REMARK  status: ('A' for Active; 'I' for Inactive)
REMARK    1  A    between atoms: C_14  and  C_19
REMARK    2  A    between atoms: C_16  and  C_20
REMARK                            x       y       z     vdW  Elec       q    Type
REMARK                         _______ _______ _______ _____ _____    ______ ____
ROOT
ATOM      2  O   UNL     1      -2.473   4.035  27.383  0.00  0.00    -0.268 OA
ATOM      3  O   UNL     1      -5.396   0.545  25.144  0.00  0.00    -0.270 OA
ATOM      4  N   UNL     1      -3.920   1.316  23.503  0.00  0.00    -0.297 N 
ATOM      5  N   UNL     1      -2.125   3.291  25.190  0.00  0.00    -0.311 N 
ATOM      7  C   UNL     1      -3.811   3.788  23.321  0.00  0.00    +0.027 C 
ATOM      8  C   UNL     1      -1.805   2.445  22.845  0.00  0.00    +0.054 C 
ATOM      9  C   UNL     1      -2.604   3.669  22.401  0.00  0.00    +0.018 C 
ATOM     10  C   UNL     1      -4.687   2.529  23.230  0.00  0.00    +0.113 C 
ATOM     11  C   UNL     1      -3.311   4.037  24.746  0.00  0.00    +0.130 C 
ATOM     12  C   UNL     1      -2.683   1.182  22.718  0.00  0.00    +0.117 C 
ATOM     13  C   UNL     1      -1.303   2.590  24.284  0.00  0.00    +0.034 A 
ATOM     14  C   UNL     1      -0.133   2.048  24.711  0.00  0.00    +0.004 A 
ATOM     15  C   UNL     1      -1.801   3.425  26.552  0.00  0.00    +0.252 A 
ATOM     16  C   UNL     1      -4.362   0.429  24.489  0.00  0.00    +0.247 C 
ATOM     17  C   UNL     1       0.232   2.162  26.109  0.00  0.00    +0.015 A 
ATOM     18  C   UNL     1      -0.540   2.789  26.997  0.00  0.00    +0.071 A 
ENDROOT
BRANCH  16  20
ATOM      1  F   UNL     1      -1.174  -4.012  25.667  0.00  0.00    -0.205 F 
ATOM     20  C   UNL     1      -3.526  -0.737  24.799  0.00  0.00    +0.037 A 
ATOM     23  C   UNL     1      -3.884  -1.994  24.320  0.00  0.00    +0.016 A 
ATOM     24  C   UNL     1      -2.377  -0.579  25.569  0.00  0.00    +0.016 A 
ATOM     26  C   UNL     1      -3.089  -3.102  24.614  0.00  0.00    +0.039 A 
ATOM     27  C   UNL     1      -1.581  -1.687  25.862  0.00  0.00    +0.039 A 
ATOM     29  C   UNL     1      -1.937  -2.948  25.385  0.00  0.00    +0.123 A 
ENDBRANCH  16  20
BRANCH  14  19
ATOM      6  N   UNL     1       2.922   1.185  22.711  0.00  0.00    -0.263 NA
ATOM     19  C   UNL     1       0.772   1.326  23.789  0.00  0.00    +0.002 A 
ATOM     21  C   UNL     1       0.358   0.164  23.157  0.00  0.00    +0.011 A 
ATOM     22  C   UNL     1       2.046   1.795  23.541  0.00  0.00    +0.119 A 
ATOM     25  C   UNL     1       1.231  -0.491  22.296  0.00  0.00    +0.020 A 
ATOM     28  C   UNL     1       2.491   0.055  22.108  0.00  0.00    +0.111 A 
ENDBRANCH  14  19
TORSDOF 2
ENDMDL
