MODEL 1
REMARK VINA RESULT:      -6.9      0.000      0.000
REMARK  Name = 26742963
REMARK  9 active torsions:
REMARK  status: ('A' for Active; 'I' for Inactive)
REMARK    1  A    between atoms: N_4  and  C_13
REMARK    2  A    between atoms: C_6  and  C_10
REMARK    3  A    between atoms: C_7  and  C_12
REMARK    4  A    between atoms: C_10  and  C_16
REMARK    5  A    between atoms: C_12  and  C_20
REMARK    6  A    between atoms: C_22  and  C_23
REMARK    7  A    between atoms: C_23  and  C_24
REMARK    8  A    between atoms: C_24  and  C_25
REMARK    9  A    between atoms: C_25  and  C_26
REMARK                            x       y       z     vdW  Elec       q    Type
REMARK                         _______ _______ _______ _____ _____    ______ ____
ROOT
ATOM      3  N   UNL     1      -2.235  -3.114  24.576  0.00  0.00    -0.316 NA
ATOM      6  C   UNL     1      -3.820  -0.692  24.005  0.00  0.00    +0.004 C 
ATOM      7  C   UNL     1      -2.273  -0.690  24.035  0.00  0.00    +0.012 C 
ATOM      8  C   UNL     1      -4.314  -2.114  23.694  0.00  0.00    +0.019 C 
ATOM      9  C   UNL     1      -1.722  -1.796  24.952  0.00  0.00    +0.085 C 
ATOM     11  C   UNL     1      -3.695  -3.161  24.618  0.00  0.00    +0.081 C 
ATOM     27  H   UNL     1      -1.857  -3.817  25.209  0.00  0.00    +0.122 HD
ENDROOT
BRANCH   6  10
ATOM     10  C   UNL     1      -4.469  -0.155  25.285  0.00  0.00    +0.099 C 
BRANCH  10  16
ATOM      1  O   UNL     1      -6.057   1.578  24.711  0.00  0.00    -0.276 OA
ATOM      4  N   UNL     1      -3.962   2.174  25.524  0.00  0.00    -0.312 N 
ATOM     16  C   UNL     1      -4.943   1.275  25.132  0.00  0.00    +0.214 C 
ATOM     28  H   UNL     1      -3.099   1.818  25.923  0.00  0.00    +0.149 HD
BRANCH   4  13
ATOM     13  C   UNL     1      -4.142   3.608  25.482  0.00  0.00    +0.073 C 
ATOM     14  C   UNL     1      -3.282   4.303  26.544  0.00  0.00    +0.022 C 
ATOM     15  C   UNL     1      -3.851   4.159  24.083  0.00  0.00    +0.022 C 
ATOM     17  C   UNL     1      -1.793   4.275  26.199  0.00  0.00    +0.002 C 
ATOM     18  C   UNL     1      -2.361   4.131  23.742  0.00  0.00    +0.002 C 
ATOM     19  C   UNL     1      -1.527   4.839  24.806  0.00  0.00    +0.000 C 
ENDBRANCH   4  13
ENDBRANCH  10  16
ENDBRANCH   6  10
BRANCH   7  12
ATOM     12  C   UNL     1      -1.681   0.667  24.418  0.00  0.00    +0.064 C 
BRANCH  12  20
ATOM      2  O   UNL     1       1.729   1.634  23.788  0.00  0.00    -0.359 OA
ATOM      5  N   UNL     1       0.474   1.846  24.345  0.00  0.00    -0.083 NA
ATOM     20  C   UNL     1      -0.249   0.782  23.984  0.00  0.00    +0.084 A 
ATOM     21  C   UNL     1       0.491  -0.126  23.206  0.00  0.00    +0.071 A 
ATOM     22  C   UNL     1       1.726   0.457  23.111  0.00  0.00    +0.138 A 
BRANCH  22  23
ATOM     23  C   UNL     1       2.984   0.075  22.456  0.00  0.00    +0.077 C 
BRANCH  23  24
ATOM     24  C   UNL     1       4.142   1.053  22.754  0.00  0.00    +0.007 C 
BRANCH  24  25
ATOM     25  C   UNL     1       5.248   0.414  23.596  0.00  0.00    -0.003 C 
ATOM     26  C   UNL     1       4.941  -1.043  23.904  0.00  0.00    +0.004 C 
ENDBRANCH  24  25
ENDBRANCH  23  24
ENDBRANCH  22  23
ENDBRANCH  12  20
ENDBRANCH   7  12
TORSDOF 8
ENDMDL
MODEL 2
REMARK VINA RESULT:      -5.0      1.209      4.493
REMARK  Name = 26742963
REMARK  9 active torsions:
REMARK  status: ('A' for Active; 'I' for Inactive)
REMARK    1  A    between atoms: N_4  and  C_13
REMARK    2  A    between atoms: C_6  and  C_10
REMARK    3  A    between atoms: C_7  and  C_12
REMARK    4  A    between atoms: C_10  and  C_16
REMARK    5  A    between atoms: C_12  and  C_20
REMARK    6  A    between atoms: C_22  and  C_23
REMARK    7  A    between atoms: C_23  and  C_24
REMARK    8  A    between atoms: C_24  and  C_25
REMARK    9  A    between atoms: C_25  and  C_26
REMARK                            x       y       z     vdW  Elec       q    Type
REMARK                         _______ _______ _______ _____ _____    ______ ____
ROOT
ATOM      3  N   UNL     1      -0.993   5.296  24.926  0.00  0.00    -0.316 NA
ATOM      6  C   UNL     1      -2.884   3.176  25.724  0.00  0.00    +0.004 C 
ATOM      7  C   UNL     1      -1.460   2.872  25.201  0.00  0.00    +0.012 C 
ATOM      8  C   UNL     1      -2.908   4.594  26.320  0.00  0.00    +0.019 C 
ATOM      9  C   UNL     1      -0.946   3.987  24.274  0.00  0.00    +0.085 C 
ATOM     11  C   UNL     1      -2.347   5.639  25.358  0.00  0.00    +0.081 C 
ATOM     27  H   UNL     1      -0.655   6.008  24.280  0.00  0.00    +0.122 HD
ENDROOT
BRANCH   6  10
ATOM     10  C   UNL     1      -3.984   3.007  24.671  0.00  0.00    +0.099 C 
BRANCH  10  16
ATOM      1  O   UNL     1      -5.947   1.592  24.697  0.00  0.00    -0.276 OA
ATOM      4  N   UNL     1      -3.862   0.658  25.126  0.00  0.00    -0.312 N 
ATOM     16  C   UNL     1      -4.730   1.698  24.825  0.00  0.00    +0.214 C 
ATOM     28  H   UNL     1      -2.863   0.839  25.142  0.00  0.00    +0.149 HD
BRANCH   4  13
ATOM     13  C   UNL     1      -4.302  -0.704  25.329  0.00  0.00    +0.073 C 
ATOM     14  C   UNL     1      -4.352  -1.471  24.003  0.00  0.00    +0.022 C 
ATOM     15  C   UNL     1      -3.416  -1.422  26.353  0.00  0.00    +0.022 C 
ATOM     17  C   UNL     1      -2.959  -1.786  23.457  0.00  0.00    +0.002 C 
ATOM     18  C   UNL     1      -2.025  -1.737  25.804  0.00  0.00    +0.002 C 
ATOM     19  C   UNL     1      -2.100  -2.510  24.490  0.00  0.00    +0.000 C 
ENDBRANCH   4  13
ENDBRANCH  10  16
ENDBRANCH   6  10
BRANCH   7  12
ATOM     12  C   UNL     1      -1.350   1.510  24.514  0.00  0.00    +0.064 C 
BRANCH  12  20
ATOM      2  O   UNL     1       2.149   1.612  23.676  0.00  0.00    -0.359 OA
ATOM      5  N   UNL     1       1.010   2.147  24.265  0.00  0.00    -0.083 NA
ATOM     20  C   UNL     1       0.043   1.259  24.016  0.00  0.00    +0.084 A 
ATOM     21  C   UNL     1       0.509   0.155  23.282  0.00  0.00    +0.071 A 
ATOM     22  C   UNL     1       1.839   0.427  23.094  0.00  0.00    +0.138 A 
BRANCH  22  23
ATOM     23  C   UNL     1       2.936  -0.281  22.420  0.00  0.00    +0.077 C 
BRANCH  23  24
ATOM     24  C   UNL     1       4.233   0.554  22.339  0.00  0.00    +0.007 C 
BRANCH  24  25
ATOM     25  C   UNL     1       5.235   0.190  23.435  0.00  0.00    -0.003 C 
ATOM     26  C   UNL     1       4.974  -1.201  23.988  0.00  0.00    +0.004 C 
ENDBRANCH  24  25
ENDBRANCH  23  24
ENDBRANCH  22  23
ENDBRANCH  12  20
ENDBRANCH   7  12
TORSDOF 8
ENDMDL
MODEL 3
REMARK VINA RESULT:      -4.6      2.164      6.406
REMARK  Name = 26742963
REMARK  9 active torsions:
REMARK  status: ('A' for Active; 'I' for Inactive)
REMARK    1  A    between atoms: N_4  and  C_13
REMARK    2  A    between atoms: C_6  and  C_10
REMARK    3  A    between atoms: C_7  and  C_12
REMARK    4  A    between atoms: C_10  and  C_16
REMARK    5  A    between atoms: C_12  and  C_20
REMARK    6  A    between atoms: C_22  and  C_23
REMARK    7  A    between atoms: C_23  and  C_24
REMARK    8  A    between atoms: C_24  and  C_25
REMARK    9  A    between atoms: C_25  and  C_26
REMARK                            x       y       z     vdW  Elec       q    Type
REMARK                         _______ _______ _______ _____ _____    ______ ____
ROOT
ATOM      3  N   UNL     1       2.884   0.846  22.226  0.00  0.00    -0.316 NA
ATOM      6  C   UNL     1       0.314  -0.038  23.375  0.00  0.00    +0.004 C 
ATOM      7  C   UNL     1       0.925   1.354  23.665  0.00  0.00    +0.012 C 
ATOM      8  C   UNL     1       0.859  -0.556  22.033  0.00  0.00    +0.019 C 
ATOM      9  C   UNL     1       2.457   1.340  23.536  0.00  0.00    +0.085 C 
ATOM     11  C   UNL     1       2.385  -0.502  21.965  0.00  0.00    +0.081 C 
ATOM     27  H   UNL     1       3.902   0.843  22.181  0.00  0.00    +0.122 HD
ENDROOT
BRANCH   6  10
ATOM     10  C   UNL     1       0.544  -1.064  24.491  0.00  0.00    +0.099 C 
BRANCH  10  16
ATOM      1  O   UNL     1      -0.880  -0.739  26.419  0.00  0.00    -0.276 OA
ATOM      4  N   UNL     1      -1.570  -2.166  24.719  0.00  0.00    -0.312 N 
ATOM     16  C   UNL     1      -0.694  -1.282  25.333  0.00  0.00    +0.214 C 
ATOM     28  H   UNL     1      -1.353  -2.507  23.788  0.00  0.00    +0.149 HD
BRANCH   4  13
ATOM     13  C   UNL     1      -2.834  -2.558  25.300  0.00  0.00    +0.073 C 
ATOM     14  C   UNL     1      -3.431  -1.423  26.140  0.00  0.00    +0.022 C 
ATOM     15  C   UNL     1      -3.816  -3.026  24.220  0.00  0.00    +0.022 C 
ATOM     17  C   UNL     1      -3.951  -0.271  25.279  0.00  0.00    +0.002 C 
ATOM     18  C   UNL     1      -4.335  -1.872  23.363  0.00  0.00    +0.002 C 
ATOM     19  C   UNL     1      -4.935  -0.760  24.219  0.00  0.00    +0.000 C 
ENDBRANCH   4  13
ENDBRANCH  10  16
ENDBRANCH   6  10
BRANCH   7  12
ATOM     12  C   UNL     1       0.506   1.923  25.022  0.00  0.00    +0.064 C 
BRANCH  12  20
ATOM      2  O   UNL     1      -2.016   4.490  24.993  0.00  0.00    -0.359 OA
ATOM      5  N   UNL     1      -0.716   4.046  25.203  0.00  0.00    -0.083 NA
ATOM     20  C   UNL     1      -0.745   2.743  24.908  0.00  0.00    +0.084 A 
ATOM     21  C   UNL     1      -2.023   2.314  24.510  0.00  0.00    +0.071 A 
ATOM     22  C   UNL     1      -2.785   3.451  24.582  0.00  0.00    +0.138 A 
BRANCH  22  23
ATOM     23  C   UNL     1      -4.198   3.746  24.311  0.00  0.00    +0.077 C 
BRANCH  23  24
ATOM     24  C   UNL     1      -5.044   3.881  25.597  0.00  0.00    +0.007 C 
BRANCH  24  25
ATOM     25  C   UNL     1      -5.713   2.566  26.001  0.00  0.00    -0.003 C 
ATOM     26  C   UNL     1      -6.541   1.991  24.864  0.00  0.00    +0.004 C 
ENDBRANCH  24  25
ENDBRANCH  23  24
ENDBRANCH  22  23
ENDBRANCH  12  20
ENDBRANCH   7  12
TORSDOF 8
ENDMDL
MODEL 4
REMARK VINA RESULT:      -3.5      2.391      2.886
REMARK  Name = 26742963
REMARK  9 active torsions:
REMARK  status: ('A' for Active; 'I' for Inactive)
REMARK    1  A    between atoms: N_4  and  C_13
REMARK    2  A    between atoms: C_6  and  C_10
REMARK    3  A    between atoms: C_7  and  C_12
REMARK    4  A    between atoms: C_10  and  C_16
REMARK    5  A    between atoms: C_12  and  C_20
REMARK    6  A    between atoms: C_22  and  C_23
REMARK    7  A    between atoms: C_23  and  C_24
REMARK    8  A    between atoms: C_24  and  C_25
REMARK    9  A    between atoms: C_25  and  C_26
REMARK                            x       y       z     vdW  Elec       q    Type
REMARK                         _______ _______ _______ _____ _____    ______ ____
ROOT
ATOM      3  N   UNL     1      -1.612  -2.595  24.647  0.00  0.00    -0.316 NA
ATOM      6  C   UNL     1      -3.981  -0.923  24.101  0.00  0.00    +0.004 C 
ATOM      7  C   UNL     1      -2.554  -0.522  23.657  0.00  0.00    +0.012 C 
ATOM      8  C   UNL     1      -4.047  -2.452  24.256  0.00  0.00    +0.019 C 
ATOM      9  C   UNL     1      -1.481  -1.140  24.568  0.00  0.00    +0.085 C 
ATOM     11  C   UNL     1      -2.927  -2.996  25.142  0.00  0.00    +0.081 C 
ATOM     27  H   UNL     1      -0.892  -2.967  25.265  0.00  0.00    +0.122 HD
ENDROOT
BRANCH   6  10
ATOM     10  C   UNL     1      -4.456  -0.223  25.379  0.00  0.00    +0.099 C 
BRANCH  10  16
ATOM      1  O   UNL     1      -6.242   1.215  24.605  0.00  0.00    -0.276 OA
ATOM      4  N   UNL     1      -4.295   2.165  25.448  0.00  0.00    -0.312 N 
ATOM     16  C   UNL     1      -5.118   1.107  25.092  0.00  0.00    +0.214 C 
ATOM     28  H   UNL     1      -3.411   1.969  25.907  0.00  0.00    +0.149 HD
BRANCH   4  13
ATOM     13  C   UNL     1      -4.673   3.551  25.283  0.00  0.00    +0.073 C 
ATOM     14  C   UNL     1      -4.219   4.393  26.480  0.00  0.00    +0.022 C 
ATOM     15  C   UNL     1      -4.128   4.118  23.967  0.00  0.00    +0.022 C 
ATOM     17  C   UNL     1      -2.704   4.598  26.510  0.00  0.00    +0.002 C 
ATOM     18  C   UNL     1      -2.614   4.323  24.001  0.00  0.00    +0.002 C 
ATOM     19  C   UNL     1      -2.187   5.173  25.194  0.00  0.00    +0.000 C 
ENDBRANCH   4  13
ENDBRANCH  10  16
ENDBRANCH   6  10
BRANCH   7  12
ATOM     12  C   UNL     1      -2.361   0.992  23.552  0.00  0.00    +0.064 C 
BRANCH  12  20
ATOM      2  O   UNL     1       0.897   1.924  24.763  0.00  0.00    -0.359 OA
ATOM      5  N   UNL     1       0.041   1.453  23.775  0.00  0.00    -0.083 NA
ATOM     20  C   UNL     1      -1.169   1.448  24.341  0.00  0.00    +0.084 A 
ATOM     21  C   UNL     1      -1.139   1.901  25.671  0.00  0.00    +0.071 A 
ATOM     22  C   UNL     1       0.183   2.187  25.887  0.00  0.00    +0.138 A 
BRANCH  22  23
ATOM     23  C   UNL     1       0.938   2.697  27.039  0.00  0.00    +0.077 C 
BRANCH  23  24
ATOM     24  C   UNL     1       0.419   2.154  28.389  0.00  0.00    +0.007 C 
BRANCH  24  25
ATOM     25  C   UNL     1       1.416   2.368  29.530  0.00  0.00    -0.003 C 
ATOM     26  C   UNL     1       2.749   2.886  29.014  0.00  0.00    +0.004 C 
ENDBRANCH  24  25
ENDBRANCH  23  24
ENDBRANCH  22  23
ENDBRANCH  12  20
ENDBRANCH   7  12
TORSDOF 8
ENDMDL
MODEL 5
REMARK VINA RESULT:      -3.0      1.727      6.764
REMARK  Name = 26742963
REMARK  9 active torsions:
REMARK  status: ('A' for Active; 'I' for Inactive)
REMARK    1  A    between atoms: N_4  and  C_13
REMARK    2  A    between atoms: C_6  and  C_10
REMARK    3  A    between atoms: C_7  and  C_12
REMARK    4  A    between atoms: C_10  and  C_16
REMARK    5  A    between atoms: C_12  and  C_20
REMARK    6  A    between atoms: C_22  and  C_23
REMARK    7  A    between atoms: C_23  and  C_24
REMARK    8  A    between atoms: C_24  and  C_25
REMARK    9  A    between atoms: C_25  and  C_26
REMARK                            x       y       z     vdW  Elec       q    Type
REMARK                         _______ _______ _______ _____ _____    ______ ____
ROOT
ATOM      3  N   UNL     1      -2.031   3.759  26.318  0.00  0.00    -0.316 NA
ATOM      6  C   UNL     1      -0.358   2.640  24.161  0.00  0.00    +0.004 C 
ATOM      7  C   UNL     1      -1.835   3.048  23.947  0.00  0.00    +0.012 C 
ATOM      8  C   UNL     1       0.216   3.436  25.345  0.00  0.00    +0.019 C 
ATOM      9  C   UNL     1      -2.643   2.963  25.254  0.00  0.00    +0.085 C 
ATOM     11  C   UNL     1      -0.659   3.337  26.593  0.00  0.00    +0.081 C 
ATOM     27  H   UNL     1      -2.587   3.671  27.168  0.00  0.00    +0.122 HD
ENDROOT
BRANCH   6  10
ATOM     10  C   UNL     1      -0.150   1.134  24.362  0.00  0.00    +0.099 C 
BRANCH  10  16
ATOM      1  O   UNL     1       0.211  -0.211  22.384  0.00  0.00    -0.276 OA
ATOM      4  N   UNL     1       2.013   0.882  23.366  0.00  0.00    -0.312 N 
ATOM     16  C   UNL     1       0.679   0.517  23.256  0.00  0.00    +0.214 C 
ATOM     28  H   UNL     1       2.286   1.545  24.084  0.00  0.00    +0.149 HD
BRANCH   4  13
ATOM     13  C   UNL     1       3.033   0.435  22.442  0.00  0.00    +0.073 C 
ATOM     14  C   UNL     1       4.327   1.237  22.620  0.00  0.00    +0.022 C 
ATOM     15  C   UNL     1       3.286  -1.069  22.587  0.00  0.00    +0.022 C 
ATOM     17  C   UNL     1       5.059   0.885  23.915  0.00  0.00    +0.002 C 
ATOM     18  C   UNL     1       4.019  -1.417  23.882  0.00  0.00    +0.002 C 
ATOM     19  C   UNL     1       5.309  -0.616  24.032  0.00  0.00    +0.000 C 
ENDBRANCH   4  13
ENDBRANCH  10  16
ENDBRANCH   6  10
BRANCH   7  12
ATOM     12  C   UNL     1      -2.524   2.250  22.839  0.00  0.00    +0.064 C 
BRANCH  12  20
ATOM      2  O   UNL     1      -4.739   0.011  24.581  0.00  0.00    -0.359 OA
ATOM      5  N   UNL     1      -4.260   1.281  24.282  0.00  0.00    -0.083 NA
ATOM     20  C   UNL     1      -3.281   1.080  23.396  0.00  0.00    +0.084 A 
ATOM     21  C   UNL     1      -3.099  -0.283  23.100  0.00  0.00    +0.071 A 
ATOM     22  C   UNL     1      -4.040  -0.911  23.872  0.00  0.00    +0.138 A 
BRANCH  22  23
ATOM     23  C   UNL     1      -4.420  -2.316  24.069  0.00  0.00    +0.077 C 
BRANCH  23  24
ATOM     24  C   UNL     1      -3.356  -3.127  24.840  0.00  0.00    +0.007 C 
BRANCH  24  25
ATOM     25  C   UNL     1      -1.934  -2.841  24.355  0.00  0.00    -0.003 C 
ATOM     26  C   UNL     1      -1.130  -2.087  25.400  0.00  0.00    +0.004 C 
ENDBRANCH  24  25
ENDBRANCH  23  24
ENDBRANCH  22  23
ENDBRANCH  12  20
ENDBRANCH   7  12
TORSDOF 8
ENDMDL
