MODEL 1
REMARK VINA RESULT:      -4.9      0.000      0.000
REMARK  Name = 25390190
REMARK  10 active torsions:
REMARK  status: ('A' for Active; 'I' for Inactive)
REMARK    1  A    between atoms: O_3  and  C_9
REMARK    2  A    between atoms: O_4  and  C_10
REMARK    3  A    between atoms: N_7  and  C_14
REMARK    4  A    between atoms: N_8  and  C_17
REMARK    5  A    between atoms: C_11  and  C_13
REMARK    6  A    between atoms: C_12  and  C_14
REMARK    7  A    between atoms: C_13  and  C_15
REMARK    8  A    between atoms: C_16  and  C_18
REMARK    9  A    between atoms: C_17  and  C_19
REMARK   10  A    between atoms: C_26  and  C_30
REMARK                            x       y       z     vdW  Elec       q    Type
REMARK                         _______ _______ _______ _____ _____    ______ ____
ROOT
ATOM      2  O   UNL     1      -2.614   3.180  23.292  0.00  0.00    -0.366 OA
ATOM      9  C   UNL     1      -2.813   3.388  25.631  0.00  0.00    +0.175 C 
ATOM     10  C   UNL     1      -1.350   3.543  25.274  0.00  0.00    +0.176 C 
ATOM     11  C   UNL     1      -3.486   3.705  24.307  0.00  0.00    +0.158 C 
ATOM     12  C   UNL     1      -1.303   2.961  23.865  0.00  0.00    +0.167 C 
ENDROOT
BRANCH   9   3
ATOM      3  O   UNL     1      -3.233   4.258  26.661  0.00  0.00    -0.387 OA
ATOM     31  H   UNL     1      -3.000   5.162  26.390  0.00  0.00    +0.210 HD
ENDBRANCH   9   3
BRANCH  10   4
ATOM      4  O   UNL     1      -1.003   4.925  25.194  0.00  0.00    -0.387 OA
ATOM     32  H   UNL     1      -1.528   5.315  24.474  0.00  0.00    +0.210 HD
ENDBRANCH  10   4
BRANCH  11  13
ATOM     13  C   UNL     1      -4.865   3.086  24.167  0.00  0.00    +0.130 C 
BRANCH  13  15
ATOM      5  O   UNL     1      -5.491   1.700  26.048  0.00  0.00    -0.276 OA
ATOM      8  N   UNL     1      -4.493   0.713  24.196  0.00  0.00    -0.311 N 
ATOM     15  C   UNL     1      -4.997   1.779  24.927  0.00  0.00    +0.216 C 
ATOM     34  H   UNL     1      -4.118   0.891  23.268  0.00  0.00    +0.149 HD
BRANCH   8  17
ATOM     17  C   UNL     1      -4.491  -0.648  24.684  0.00  0.00    +0.139 C 
BRANCH  17  19
ATOM      1  F   UNL     1       0.719  -2.491  25.761  0.00  0.00    -0.205 F 
ATOM     19  C   UNL     1      -3.102  -1.139  24.971  0.00  0.00    -0.030 A 
ATOM     22  C   UNL     1      -2.345  -0.542  25.980  0.00  0.00    +0.008 A 
ATOM     23  C   UNL     1      -2.568  -2.193  24.230  0.00  0.00    +0.008 A 
ATOM     27  C   UNL     1      -1.054  -0.998  26.246  0.00  0.00    +0.038 A 
ATOM     28  C   UNL     1      -1.277  -2.650  24.498  0.00  0.00    +0.038 A 
ATOM     29  C   UNL     1      -0.520  -2.053  25.505  0.00  0.00    +0.123 A 
ENDBRANCH  17  19
ENDBRANCH   8  17
ENDBRANCH  13  15
ENDBRANCH  11  13
BRANCH  12  14
ATOM     14  C   UNL     1      -1.031   1.463  23.847  0.00  0.00    +0.138 C 
BRANCH  14   7
ATOM      6  O   UNL     1       0.343  -0.446  22.202  0.00  0.00    -0.270 OA
ATOM      7  N   UNL     1       0.376   1.193  23.844  0.00  0.00    -0.309 N 
ATOM     16  C   UNL     1       0.960   0.246  23.008  0.00  0.00    +0.244 C 
ATOM     33  H   UNL     1       0.936   1.692  24.527  0.00  0.00    +0.149 HD
BRANCH  16  18
ATOM     18  C   UNL     1       2.428   0.065  23.144  0.00  0.00    +0.037 A 
ATOM     20  C   UNL     1       2.943  -1.149  23.599  0.00  0.00    +0.013 A 
ATOM     21  C   UNL     1       3.293   1.109  22.815  0.00  0.00    +0.013 A 
ATOM     24  C   UNL     1       4.323  -1.318  23.728  0.00  0.00    +0.004 A 
ATOM     25  C   UNL     1       4.671   0.941  22.944  0.00  0.00    +0.004 A 
ATOM     26  C   UNL     1       5.186  -0.273  23.400  0.00  0.00    -0.050 A 
ATOM     30  C   UNL     1       6.660  -0.454  23.536  0.00  0.00    +0.044 C 
ENDBRANCH  16  18
ENDBRANCH  14   7
ENDBRANCH  12  14
TORSDOF 9
ENDMDL
MODEL 2
REMARK VINA RESULT:      -3.9      1.862      6.179
REMARK  Name = 25390190
REMARK  10 active torsions:
REMARK  status: ('A' for Active; 'I' for Inactive)
REMARK    1  A    between atoms: O_3  and  C_9
REMARK    2  A    between atoms: O_4  and  C_10
REMARK    3  A    between atoms: N_7  and  C_14
REMARK    4  A    between atoms: N_8  and  C_17
REMARK    5  A    between atoms: C_11  and  C_13
REMARK    6  A    between atoms: C_12  and  C_14
REMARK    7  A    between atoms: C_13  and  C_15
REMARK    8  A    between atoms: C_16  and  C_18
REMARK    9  A    between atoms: C_17  and  C_19
REMARK   10  A    between atoms: C_26  and  C_30
REMARK                            x       y       z     vdW  Elec       q    Type
REMARK                         _______ _______ _______ _____ _____    ______ ____
ROOT
ATOM      2  O   UNL     1      -2.436   3.517  26.314  0.00  0.00    -0.366 OA
ATOM      9  C   UNL     1      -1.124   3.688  24.363  0.00  0.00    +0.175 C 
ATOM     10  C   UNL     1      -2.009   4.915  24.437  0.00  0.00    +0.176 C 
ATOM     11  C   UNL     1      -1.121   3.227  25.810  0.00  0.00    +0.158 C 
ATOM     12  C   UNL     1      -3.072   4.480  25.442  0.00  0.00    +0.167 C 
ENDROOT
BRANCH   9   3
ATOM      3  O   UNL     1       0.177   3.965  23.892  0.00  0.00    -0.387 OA
ATOM     31  H   UNL     1       0.710   4.246  24.656  0.00  0.00    +0.210 HD
ENDBRANCH   9   3
BRANCH  10   4
ATOM      4  O   UNL     1      -1.290   6.011  25.000  0.00  0.00    -0.387 OA
ATOM     32  H   UNL     1      -0.832   6.463  24.271  0.00  0.00    +0.210 HD
ENDBRANCH  10   4
BRANCH  11  13
ATOM     13  C   UNL     1      -0.828   1.745  25.970  0.00  0.00    +0.130 C 
BRANCH  13  15
ATOM      5  O   UNL     1      -1.538   0.709  23.903  0.00  0.00    -0.276 OA
ATOM      8  N   UNL     1       0.732   0.844  24.382  0.00  0.00    -0.311 N 
ATOM     15  C   UNL     1      -0.615   1.046  24.640  0.00  0.00    +0.216 C 
ATOM     34  H   UNL     1       1.415   1.177  25.058  0.00  0.00    +0.149 HD
BRANCH   8  17
ATOM     17  C   UNL     1       1.218   0.197  23.184  0.00  0.00    +0.139 C 
BRANCH  17  19
ATOM      1  F   UNL     1       6.821  -0.354  23.212  0.00  0.00    -0.205 F 
ATOM     19  C   UNL     1       2.711   0.050  23.191  0.00  0.00    -0.030 A 
ATOM     22  C   UNL     1       3.293  -1.143  23.622  0.00  0.00    +0.008 A 
ATOM     23  C   UNL     1       3.519   1.106  22.768  0.00  0.00    +0.008 A 
ATOM     27  C   UNL     1       4.681  -1.279  23.629  0.00  0.00    +0.038 A 
ATOM     28  C   UNL     1       4.907   0.969  22.775  0.00  0.00    +0.038 A 
ATOM     29  C   UNL     1       5.488  -0.223  23.205  0.00  0.00    +0.123 A 
ENDBRANCH  17  19
ENDBRANCH   8  17
ENDBRANCH  13  15
ENDBRANCH  11  13
BRANCH  12  14
ATOM     14  C   UNL     1      -4.266   3.798  24.788  0.00  0.00    +0.138 C 
BRANCH  14   7
ATOM      6  O   UNL     1      -5.703   1.658  26.052  0.00  0.00    -0.270 OA
ATOM      7  N   UNL     1      -4.032   2.394  24.620  0.00  0.00    -0.309 N 
ATOM     16  C   UNL     1      -4.781   1.421  25.276  0.00  0.00    +0.244 C 
ATOM     33  H   UNL     1      -3.247   2.131  24.034  0.00  0.00    +0.149 HD
BRANCH  16  18
ATOM     18  C   UNL     1      -4.397   0.010  25.016  0.00  0.00    +0.037 A 
ATOM     20  C   UNL     1      -3.706  -0.715  25.986  0.00  0.00    +0.013 A 
ATOM     21  C   UNL     1      -4.728  -0.591  23.801  0.00  0.00    +0.013 A 
ATOM     24  C   UNL     1      -3.344  -2.041  25.742  0.00  0.00    +0.004 A 
ATOM     25  C   UNL     1      -4.366  -1.915  23.556  0.00  0.00    +0.004 A 
ATOM     26  C   UNL     1      -3.674  -2.640  24.527  0.00  0.00    -0.050 A 
ATOM     30  C   UNL     1      -3.289  -4.057  24.265  0.00  0.00    +0.044 C 
ENDBRANCH  16  18
ENDBRANCH  14   7
ENDBRANCH  12  14
TORSDOF 9
ENDMDL
MODEL 3
REMARK VINA RESULT:      -3.3      2.230      4.336
REMARK  Name = 25390190
REMARK  10 active torsions:
REMARK  status: ('A' for Active; 'I' for Inactive)
REMARK    1  A    between atoms: O_3  and  C_9
REMARK    2  A    between atoms: O_4  and  C_10
REMARK    3  A    between atoms: N_7  and  C_14
REMARK    4  A    between atoms: N_8  and  C_17
REMARK    5  A    between atoms: C_11  and  C_13
REMARK    6  A    between atoms: C_12  and  C_14
REMARK    7  A    between atoms: C_13  and  C_15
REMARK    8  A    between atoms: C_16  and  C_18
REMARK    9  A    between atoms: C_17  and  C_19
REMARK   10  A    between atoms: C_26  and  C_30
REMARK                            x       y       z     vdW  Elec       q    Type
REMARK                         _______ _______ _______ _____ _____    ______ ____
ROOT
ATOM      2  O   UNL     1      -2.850   0.034  25.446  0.00  0.00    -0.366 OA
ATOM      9  C   UNL     1      -3.346  -1.693  23.921  0.00  0.00    +0.175 C 
ATOM     10  C   UNL     1      -1.921  -1.887  24.395  0.00  0.00    +0.176 C 
ATOM     11  C   UNL     1      -3.922  -0.829  25.029  0.00  0.00    +0.158 C 
ATOM     12  C   UNL     1      -1.595  -0.520  24.988  0.00  0.00    +0.167 C 
ENDROOT
BRANCH   9   3
ATOM      3  O   UNL     1      -4.055  -2.905  23.770  0.00  0.00    -0.387 OA
ATOM     31  H   UNL     1      -4.522  -2.864  22.918  0.00  0.00    +0.210 HD
ENDBRANCH   9   3
BRANCH  10   4
ATOM      4  O   UNL     1      -1.876  -2.848  25.448  0.00  0.00    -0.387 OA
ATOM     32  H   UNL     1      -2.670  -2.718  25.995  0.00  0.00    +0.210 HD
ENDBRANCH  10   4
BRANCH  11  13
ATOM     13  C   UNL     1      -5.110   0.007  24.588  0.00  0.00    +0.130 C 
BRANCH  13  15
ATOM      5  O   UNL     1      -4.346   2.067  23.578  0.00  0.00    -0.276 OA
ATOM      8  N   UNL     1      -5.094   2.092  25.778  0.00  0.00    -0.311 N 
ATOM     15  C   UNL     1      -4.801   1.492  24.563  0.00  0.00    +0.216 C 
ATOM     34  H   UNL     1      -5.482   1.521  26.525  0.00  0.00    +0.149 HD
BRANCH   8  17
ATOM     17  C   UNL     1      -4.893   3.501  26.031  0.00  0.00    +0.139 C 
BRANCH  17  19
ATOM      1  F   UNL     1       0.326   5.156  24.717  0.00  0.00    -0.205 F 
ATOM     19  C   UNL     1      -3.502   3.942  25.681  0.00  0.00    -0.030 A 
ATOM     22  C   UNL     1      -2.402   3.226  26.156  0.00  0.00    +0.008 A 
ATOM     23  C   UNL     1      -3.308   5.068  24.880  0.00  0.00    +0.008 A 
ATOM     27  C   UNL     1      -1.110   3.637  25.831  0.00  0.00    +0.038 A 
ATOM     28  C   UNL     1      -2.015   5.478  24.555  0.00  0.00    +0.038 A 
ATOM     29  C   UNL     1      -0.916   4.763  25.030  0.00  0.00    +0.123 A 
ENDBRANCH  17  19
ENDBRANCH   8  17
ENDBRANCH  13  15
ENDBRANCH  11  13
BRANCH  12  14
ATOM     14  C   UNL     1      -1.004   0.446  23.969  0.00  0.00    +0.138 C 
BRANCH  14   7
ATOM      6  O   UNL     1       0.686  -0.526  21.862  0.00  0.00    -0.270 OA
ATOM      7  N   UNL     1       0.428   0.393  23.976  0.00  0.00    -0.309 N 
ATOM     16  C   UNL     1       1.170  -0.096  22.905  0.00  0.00    +0.244 C 
ATOM     33  H   UNL     1       0.889   0.682  24.833  0.00  0.00    +0.149 HD
BRANCH  16  18
ATOM     18  C   UNL     1       2.645  -0.109  23.079  0.00  0.00    +0.037 A 
ATOM     20  C   UNL     1       3.279  -1.242  23.589  0.00  0.00    +0.013 A 
ATOM     21  C   UNL     1       3.398   1.013  22.731  0.00  0.00    +0.013 A 
ATOM     24  C   UNL     1       4.665  -1.253  23.752  0.00  0.00    +0.004 A 
ATOM     25  C   UNL     1       4.783   1.003  22.895  0.00  0.00    +0.004 A 
ATOM     26  C   UNL     1       5.416  -0.131  23.405  0.00  0.00    -0.050 A 
ATOM     30  C   UNL     1       6.898  -0.143  23.579  0.00  0.00    +0.044 C 
ENDBRANCH  16  18
ENDBRANCH  14   7
ENDBRANCH  12  14
TORSDOF 9
ENDMDL
MODEL 4
REMARK VINA RESULT:      -1.9      2.274      6.732
REMARK  Name = 25390190
REMARK  10 active torsions:
REMARK  status: ('A' for Active; 'I' for Inactive)
REMARK    1  A    between atoms: O_3  and  C_9
REMARK    2  A    between atoms: O_4  and  C_10
REMARK    3  A    between atoms: N_7  and  C_14
REMARK    4  A    between atoms: N_8  and  C_17
REMARK    5  A    between atoms: C_11  and  C_13
REMARK    6  A    between atoms: C_12  and  C_14
REMARK    7  A    between atoms: C_13  and  C_15
REMARK    8  A    between atoms: C_16  and  C_18
REMARK    9  A    between atoms: C_17  and  C_19
REMARK   10  A    between atoms: C_26  and  C_30
REMARK                            x       y       z     vdW  Elec       q    Type
REMARK                         _______ _______ _______ _____ _____    ______ ____
ROOT
ATOM      2  O   UNL     1      -2.083  -1.347  24.058  0.00  0.00    -0.366 OA
ATOM      9  C   UNL     1      -3.038  -1.320  26.212  0.00  0.00    +0.175 C 
ATOM     10  C   UNL     1      -3.845  -2.276  25.358  0.00  0.00    +0.176 C 
ATOM     11  C   UNL     1      -1.727  -1.261  25.448  0.00  0.00    +0.158 C 
ATOM     12  C   UNL     1      -3.426  -1.872  23.948  0.00  0.00    +0.167 C 
ENDROOT
BRANCH   9   3
ATOM      3  O   UNL     1      -2.859  -1.770  27.538  0.00  0.00    -0.387 OA
ATOM     31  H   UNL     1      -1.919  -1.655  27.760  0.00  0.00    +0.210 HD
ENDBRANCH   9   3
BRANCH  10   4
ATOM      4  O   UNL     1      -3.418  -3.619  25.579  0.00  0.00    -0.387 OA
ATOM     32  H   UNL     1      -3.171  -3.695  26.517  0.00  0.00    +0.210 HD
ENDBRANCH  10   4
BRANCH  11  13
ATOM     13  C   UNL     1      -0.941   0.015  25.697  0.00  0.00    +0.130 C 
BRANCH  13  15
ATOM      5  O   UNL     1      -0.304   1.657  24.040  0.00  0.00    -0.276 OA
ATOM      8  N   UNL     1       0.532  -0.505  23.872  0.00  0.00    -0.311 N 
ATOM     15  C   UNL     1      -0.218   0.505  24.456  0.00  0.00    +0.216 C 
ATOM     34  H   UNL     1       0.542  -1.422  24.311  0.00  0.00    +0.149 HD
BRANCH   8  17
ATOM     17  C   UNL     1       1.320  -0.312  22.676  0.00  0.00    +0.139 C 
BRANCH  17  19
ATOM      1  F   UNL     1       6.823   0.035  23.812  0.00  0.00    -0.205 F 
ATOM     19  C   UNL     1       2.787  -0.220  22.978  0.00  0.00    -0.030 A 
ATOM     22  C   UNL     1       3.449  -1.301  23.561  0.00  0.00    +0.008 A 
ATOM     23  C   UNL     1       3.489   0.947  22.677  0.00  0.00    +0.008 A 
ATOM     27  C   UNL     1       4.812  -1.215  23.843  0.00  0.00    +0.038 A 
ATOM     28  C   UNL     1       4.853   1.033  22.959  0.00  0.00    +0.038 A 
ATOM     29  C   UNL     1       5.514  -0.048  23.542  0.00  0.00    +0.123 A 
ENDBRANCH  17  19
ENDBRANCH   8  17
ENDBRANCH  13  15
ENDBRANCH  11  13
BRANCH  12  14
ATOM     14  C   UNL     1      -4.305  -0.780  23.355  0.00  0.00    +0.138 C 
BRANCH  14   7
ATOM      6  O   UNL     1      -5.242   1.149  25.264  0.00  0.00    -0.270 OA
ATOM      7  N   UNL     1      -3.753   0.519  23.600  0.00  0.00    -0.309 N 
ATOM     16  C   UNL     1      -4.273   1.394  24.550  0.00  0.00    +0.244 C 
ATOM     33  H   UNL     1      -2.983   0.806  23.004  0.00  0.00    +0.149 HD
BRANCH  16  18
ATOM     18  C   UNL     1      -3.603   2.715  24.665  0.00  0.00    +0.037 A 
ATOM     20  C   UNL     1      -3.828   3.698  23.703  0.00  0.00    +0.013 A 
ATOM     21  C   UNL     1      -2.748   2.972  25.738  0.00  0.00    +0.013 A 
ATOM     24  C   UNL     1      -3.198   4.939  23.811  0.00  0.00    +0.004 A 
ATOM     25  C   UNL     1      -2.117   4.211  25.846  0.00  0.00    +0.004 A 
ATOM     26  C   UNL     1      -2.343   5.194  24.882  0.00  0.00    -0.050 A 
ATOM     30  C   UNL     1      -1.670   6.521  24.998  0.00  0.00    +0.044 C 
ENDBRANCH  16  18
ENDBRANCH  14   7
ENDBRANCH  12  14
TORSDOF 9
ENDMDL
MODEL 5
REMARK VINA RESULT:      -1.8      3.111      7.260
REMARK  Name = 25390190
REMARK  10 active torsions:
REMARK  status: ('A' for Active; 'I' for Inactive)
REMARK    1  A    between atoms: O_3  and  C_9
REMARK    2  A    between atoms: O_4  and  C_10
REMARK    3  A    between atoms: N_7  and  C_14
REMARK    4  A    between atoms: N_8  and  C_17
REMARK    5  A    between atoms: C_11  and  C_13
REMARK    6  A    between atoms: C_12  and  C_14
REMARK    7  A    between atoms: C_13  and  C_15
REMARK    8  A    between atoms: C_16  and  C_18
REMARK    9  A    between atoms: C_17  and  C_19
REMARK   10  A    between atoms: C_26  and  C_30
REMARK                            x       y       z     vdW  Elec       q    Type
REMARK                         _______ _______ _______ _____ _____    ______ ____
ROOT
ATOM      2  O   UNL     1      -1.730  -2.792  24.317  0.00  0.00    -0.366 OA
ATOM      9  C   UNL     1      -1.647  -1.041  25.892  0.00  0.00    +0.175 C 
ATOM     10  C   UNL     1      -3.052  -1.607  25.900  0.00  0.00    +0.176 C 
ATOM     11  C   UNL     1      -0.858  -2.190  25.289  0.00  0.00    +0.158 C 
ATOM     12  C   UNL     1      -3.090  -2.380  24.585  0.00  0.00    +0.167 C 
ENDROOT
BRANCH   9   3
ATOM      3  O   UNL     1      -1.177  -0.693  27.177  0.00  0.00    -0.387 OA
ATOM     31  H   UNL     1      -1.616   0.137  27.432  0.00  0.00    +0.210 HD
ENDBRANCH   9   3
BRANCH  10   4
ATOM      4  O   UNL     1      -3.203  -2.542  26.967  0.00  0.00    -0.387 OA
ATOM     32  H   UNL     1      -2.420  -2.462  27.537  0.00  0.00    +0.210 HD
ENDBRANCH  10   4
BRANCH  11  13
ATOM     13  C   UNL     1       0.431  -1.751  24.618  0.00  0.00    +0.130 C 
BRANCH  13  15
ATOM      5  O   UNL     1      -0.191  -0.515  22.634  0.00  0.00    -0.276 OA
ATOM      8  N   UNL     1       0.655   0.635  24.467  0.00  0.00    -0.311 N 
ATOM     15  C   UNL     1       0.254  -0.499  23.779  0.00  0.00    +0.216 C 
ATOM     34  H   UNL     1       0.996   0.535  25.420  0.00  0.00    +0.149 HD
BRANCH   8  17
ATOM     17  C   UNL     1       0.596   1.965  23.901  0.00  0.00    +0.139 C 
BRANCH  17  19
ATOM      1  F   UNL     1      -2.933   5.307  26.743  0.00  0.00    -0.205 F 
ATOM     19  C   UNL     1      -0.345   2.855  24.659  0.00  0.00    -0.030 A 
ATOM     22  C   UNL     1      -0.478   4.197  24.298  0.00  0.00    +0.008 A 
ATOM     23  C   UNL     1      -1.087   2.343  25.723  0.00  0.00    +0.008 A 
ATOM     27  C   UNL     1      -1.352   5.025  25.003  0.00  0.00    +0.038 A 
ATOM     28  C   UNL     1      -1.961   3.172  26.427  0.00  0.00    +0.038 A 
ATOM     29  C   UNL     1      -2.094   4.512  26.067  0.00  0.00    +0.123 A 
ENDBRANCH  17  19
ENDBRANCH   8  17
ENDBRANCH  13  15
ENDBRANCH  11  13
BRANCH  12  14
ATOM     14  C   UNL     1      -3.560  -1.533  23.410  0.00  0.00    +0.138 C 
BRANCH  14   7
ATOM      6  O   UNL     1      -2.626   1.116  22.815  0.00  0.00    -0.270 OA
ATOM      7  N   UNL     1      -4.138  -0.301  23.859  0.00  0.00    -0.309 N 
ATOM     16  C   UNL     1      -3.617   0.945  23.520  0.00  0.00    +0.244 C 
ATOM     33  H   UNL     1      -4.928  -0.373  24.492  0.00  0.00    +0.149 HD
BRANCH  16  18
ATOM     18  C   UNL     1      -4.315   2.126  24.088  0.00  0.00    +0.037 A 
ATOM     20  C   UNL     1      -4.106   3.391  23.540  0.00  0.00    +0.013 A 
ATOM     21  C   UNL     1      -5.183   1.970  25.170  0.00  0.00    +0.013 A 
ATOM     24  C   UNL     1      -4.762   4.501  24.074  0.00  0.00    +0.004 A 
ATOM     25  C   UNL     1      -5.838   3.079  25.705  0.00  0.00    +0.004 A 
ATOM     26  C   UNL     1      -5.628   4.345  25.157  0.00  0.00    -0.050 A 
ATOM     30  C   UNL     1      -6.330   5.531  25.727  0.00  0.00    +0.044 C 
ENDBRANCH  16  18
ENDBRANCH  14   7
ENDBRANCH  12  14
TORSDOF 9
ENDMDL
MODEL 6
REMARK VINA RESULT:      -1.5     15.231     17.945
REMARK  Name = 25390190
REMARK  10 active torsions:
REMARK  status: ('A' for Active; 'I' for Inactive)
REMARK    1  A    between atoms: O_3  and  C_9
REMARK    2  A    between atoms: O_4  and  C_10
REMARK    3  A    between atoms: N_7  and  C_14
REMARK    4  A    between atoms: N_8  and  C_17
REMARK    5  A    between atoms: C_11  and  C_13
REMARK    6  A    between atoms: C_12  and  C_14
REMARK    7  A    between atoms: C_13  and  C_15
REMARK    8  A    between atoms: C_16  and  C_18
REMARK    9  A    between atoms: C_17  and  C_19
REMARK   10  A    between atoms: C_26  and  C_30
REMARK                            x       y       z     vdW  Elec       q    Type
REMARK                         _______ _______ _______ _____ _____    ______ ____
ROOT
ATOM      2  O   UNL     1      -1.963 -10.780  12.068  0.00  0.00    -0.366 OA
ATOM      9  C   UNL     1      -2.335  -8.674  11.078  0.00  0.00    +0.175 C 
ATOM     10  C   UNL     1      -0.874  -8.752  11.470  0.00  0.00    +0.176 C 
ATOM     11  C   UNL     1      -2.714 -10.143  11.020  0.00  0.00    +0.158 C 
ATOM     12  C   UNL     1      -0.873  -9.914  12.458  0.00  0.00    +0.167 C 
ENDROOT
BRANCH   9   3
ATOM      3  O   UNL     1      -2.548  -8.022   9.843  0.00  0.00    -0.387 OA
ATOM     31  H   UNL     1      -1.869  -8.341   9.225  0.00  0.00    +0.210 HD
ENDBRANCH   9   3
BRANCH  10   4
ATOM      4  O   UNL     1      -0.078  -9.125  10.347  0.00  0.00    -0.387 OA
ATOM     32  H   UNL     1      -0.678  -9.228   9.588  0.00  0.00    +0.210 HD
ENDBRANCH  10   4
BRANCH  11  13
ATOM     13  C   UNL     1      -4.197 -10.392  11.229  0.00  0.00    +0.130 C 
BRANCH  13  15
ATOM      5  O   UNL     1      -4.438 -10.668   8.838  0.00  0.00    -0.276 OA
ATOM      8  N   UNL     1      -6.322 -10.224  10.123  0.00  0.00    -0.311 N 
ATOM     15  C   UNL     1      -4.968 -10.450   9.923  0.00  0.00    +0.216 C 
ATOM     34  H   UNL     1      -6.657 -10.067  11.069  0.00  0.00    +0.149 HD
BRANCH   8  17
ATOM     17  C   UNL     1      -7.289 -10.221   9.047  0.00  0.00    +0.139 C 
BRANCH  17  19
ATOM      1  F   UNL     1      -9.734  -5.187   8.427  0.00  0.00    -0.205 F 
ATOM     19  C   UNL     1      -7.940  -8.879   8.882  0.00  0.00    -0.030 A 
ATOM     22  C   UNL     1      -9.289  -8.714   9.200  0.00  0.00    +0.008 A 
ATOM     23  C   UNL     1      -7.198  -7.796   8.411  0.00  0.00    +0.008 A 
ATOM     27  C   UNL     1      -9.894  -7.468   9.046  0.00  0.00    +0.038 A 
ATOM     28  C   UNL     1      -7.805  -6.549   8.257  0.00  0.00    +0.038 A 
ATOM     29  C   UNL     1      -9.152  -6.385   8.574  0.00  0.00    +0.123 A 
ENDBRANCH  17  19
ENDBRANCH   8  17
ENDBRANCH  13  15
ENDBRANCH  11  13
BRANCH  12  14
ATOM     14  C   UNL     1      -1.118  -9.475  13.895  0.00  0.00    +0.138 C 
BRANCH  14   7
ATOM      6  O   UNL     1      -2.116 -10.647  16.318  0.00  0.00    -0.270 OA
ATOM      7  N   UNL     1      -2.493  -9.645  14.260  0.00  0.00    -0.309 N 
ATOM     16  C   UNL     1      -2.889 -10.227  15.461  0.00  0.00    +0.244 C 
ATOM     33  H   UNL     1      -3.184  -9.369  13.571  0.00  0.00    +0.149 HD
BRANCH  16  18
ATOM     18  C   UNL     1      -4.353 -10.356  15.680  0.00  0.00    +0.037 A 
ATOM     20  C   UNL     1      -5.194 -10.660  14.610  0.00  0.00    +0.013 A 
ATOM     21  C   UNL     1      -4.886 -10.172  16.956  0.00  0.00    +0.013 A 
ATOM     24  C   UNL     1      -6.569 -10.780  14.816  0.00  0.00    +0.004 A 
ATOM     25  C   UNL     1      -6.260 -10.291  17.162  0.00  0.00    +0.004 A 
ATOM     26  C   UNL     1      -7.102 -10.596  16.091  0.00  0.00    -0.050 A 
ATOM     30  C   UNL     1      -8.571 -10.725  16.311  0.00  0.00    +0.044 C 
ENDBRANCH  16  18
ENDBRANCH  14   7
ENDBRANCH  12  14
TORSDOF 9
ENDMDL
