MODEL 1
REMARK VINA RESULT:      -6.2      0.000      0.000
REMARK  Name = 40780432
REMARK  7 active torsions:
REMARK  status: ('A' for Active; 'I' for Inactive)
REMARK    1  A    between atoms: N_1  and  C_6
REMARK    2  A    between atoms: N_1  and  C_12
REMARK    3  A    between atoms: N_2  and  C_15
REMARK    4  A    between atoms: C_4  and  C_7
REMARK    5  A    between atoms: C_10  and  C_13
REMARK    6  A    between atoms: C_11  and  C_14
REMARK    7  A    between atoms: C_12  and  C_16
REMARK                            x       y       z     vdW  Elec       q    Type
REMARK                         _______ _______ _______ _____ _____    ______ ____
ROOT
ATOM      4  C   UNL     1      -3.781 -10.734  12.407  0.00  0.00    +0.047 C 
ATOM      5  C   UNL     1      -4.668  -9.732  11.644  0.00  0.00    +0.035 C 
ATOM      6  C   UNL     1      -3.882  -9.339  10.381  0.00  0.00    +0.078 C 
ATOM      8  C   UNL     1      -2.414 -10.419  11.873  0.00  0.00    -0.021 C 
ATOM      9  C   UNL     1      -2.474  -9.668  10.768  0.00  0.00    -0.012 C 
ENDROOT
BRANCH   4   7
ATOM      2  N   UNL     1      -4.678 -10.520  15.953  0.00  0.00    -0.236 N 
ATOM      3  N   UNL     1      -3.347 -10.414  16.111  0.00  0.00    -0.171 NA
ATOM      7  C   UNL     1      -3.914 -10.626  13.909  0.00  0.00    +0.003 A 
ATOM     10  C   UNL     1      -5.069 -10.648  14.652  0.00  0.00    +0.046 A 
ATOM     11  C   UNL     1      -2.886 -10.480  14.859  0.00  0.00    +0.064 A 
ATOM     13  C   UNL     1      -6.482 -10.781  14.240  0.00  0.00    +0.066 C 
ATOM     14  C   UNL     1      -1.435 -10.398  14.616  0.00  0.00    +0.068 C 
BRANCH   2  15
ATOM     15  C   UNL     1      -5.512 -10.490  17.070  0.00  0.00    +0.066 A 
ATOM     17  C   UNL     1      -4.996 -10.781  18.333  0.00  0.00    +0.028 A 
ATOM     18  C   UNL     1      -6.861 -10.169  16.926  0.00  0.00    +0.028 A 
ATOM     21  C   UNL     1      -5.828 -10.750  19.451  0.00  0.00    +0.002 A 
ATOM     22  C   UNL     1      -7.695 -10.139  18.044  0.00  0.00    +0.002 A 
ATOM     25  C   UNL     1      -7.178 -10.429  19.307  0.00  0.00    +0.000 A 
ENDBRANCH   2  15
ENDBRANCH   4   7
BRANCH   6   1
ATOM      1  N   UNL     1      -4.305 -10.104   9.213  0.00  0.00    -0.306 NA
ATOM     27  H   UNL     1      -4.910 -10.869   9.513  0.00  0.00    +0.123 HD
BRANCH   1  12
ATOM     12  C   UNL     1      -5.036  -9.262   8.275  0.00  0.00    +0.116 C 
BRANCH  12  16
ATOM     16  C   UNL     1      -6.503  -9.198   8.606  0.00  0.00    -0.034 A 
ATOM     19  C   UNL     1      -7.154  -7.965   8.654  0.00  0.00    +0.005 A 
ATOM     20  C   UNL     1      -7.212 -10.371   8.865  0.00  0.00    +0.005 A 
ATOM     23  C   UNL     1      -8.513  -7.904   8.961  0.00  0.00    +0.000 A 
ATOM     24  C   UNL     1      -8.572 -10.311   9.171  0.00  0.00    +0.000 A 
ATOM     26  C   UNL     1      -9.222  -9.077   9.219  0.00  0.00    +0.000 A 
ENDBRANCH  12  16
ENDBRANCH   1  12
ENDBRANCH   6   1
TORSDOF 5
ENDMDL
MODEL 2
REMARK VINA RESULT:      -4.1     14.259     17.027
REMARK  Name = 40780432
REMARK  7 active torsions:
REMARK  status: ('A' for Active; 'I' for Inactive)
REMARK    1  A    between atoms: N_1  and  C_6
REMARK    2  A    between atoms: N_1  and  C_12
REMARK    3  A    between atoms: N_2  and  C_15
REMARK    4  A    between atoms: C_4  and  C_7
REMARK    5  A    between atoms: C_10  and  C_13
REMARK    6  A    between atoms: C_11  and  C_14
REMARK    7  A    between atoms: C_12  and  C_16
REMARK                            x       y       z     vdW  Elec       q    Type
REMARK                         _______ _______ _______ _____ _____    ______ ____
ROOT
ATOM      4  C   UNL     1      -2.215   1.457  23.727  0.00  0.00    +0.047 C 
ATOM      5  C   UNL     1      -2.912   2.141  24.920  0.00  0.00    +0.035 C 
ATOM      6  C   UNL     1      -4.232   2.712  24.376  0.00  0.00    +0.078 C 
ATOM      8  C   UNL     1      -2.854   2.140  22.553  0.00  0.00    -0.021 C 
ATOM      9  C   UNL     1      -3.953   2.814  22.908  0.00  0.00    -0.012 C 
ENDROOT
BRANCH   4   7
ATOM      2  N   UNL     1       1.435   1.149  23.676  0.00  0.00    -0.236 N 
ATOM      3  N   UNL     1       1.382   2.435  24.065  0.00  0.00    -0.171 NA
ATOM      7  C   UNL     1      -0.709   1.560  23.777  0.00  0.00    +0.003 A 
ATOM     10  C   UNL     1       0.209   0.579  23.491  0.00  0.00    +0.046 A 
ATOM     11  C   UNL     1       0.070   2.680  24.124  0.00  0.00    +0.064 A 
ATOM     13  C   UNL     1       0.024  -0.823  23.063  0.00  0.00    +0.066 C 
ATOM     14  C   UNL     1      -0.399   4.019  24.522  0.00  0.00    +0.068 C 
BRANCH   2  15
ATOM     15  C   UNL     1       2.672   0.529  23.504  0.00  0.00    +0.066 A 
ATOM     17  C   UNL     1       3.747   1.250  22.983  0.00  0.00    +0.028 A 
ATOM     18  C   UNL     1       2.836  -0.811  23.853  0.00  0.00    +0.028 A 
ATOM     21  C   UNL     1       4.985   0.632  22.813  0.00  0.00    +0.002 A 
ATOM     22  C   UNL     1       4.075  -1.431  23.681  0.00  0.00    +0.002 A 
ATOM     25  C   UNL     1       5.149  -0.709  23.162  0.00  0.00    +0.000 A 
ENDBRANCH   2  15
ENDBRANCH   4   7
BRANCH   6   1
ATOM      1  N   UNL     1      -5.362   1.828  24.643  0.00  0.00    -0.306 NA
ATOM     27  H   UNL     1      -5.560   1.275  23.809  0.00  0.00    +0.123 HD
BRANCH   1  12
ATOM     12  C   UNL     1      -5.070   0.928  25.750  0.00  0.00    +0.116 C 
BRANCH  12  16
ATOM     16  C   UNL     1      -4.428  -0.350  25.279  0.00  0.00    -0.034 A 
ATOM     19  C   UNL     1      -4.775  -0.890  24.041  0.00  0.00    +0.005 A 
ATOM     20  C   UNL     1      -3.485  -0.993  26.081  0.00  0.00    +0.005 A 
ATOM     23  C   UNL     1      -4.180  -2.073  23.603  0.00  0.00    +0.000 A 
ATOM     24  C   UNL     1      -2.889  -2.177  25.643  0.00  0.00    +0.000 A 
ATOM     26  C   UNL     1      -3.237  -2.716  24.405  0.00  0.00    +0.000 A 
ENDBRANCH  12  16
ENDBRANCH   1  12
ENDBRANCH   6   1
TORSDOF 5
ENDMDL
MODEL 3
REMARK VINA RESULT:      -3.4     14.426     17.460
REMARK  Name = 40780432
REMARK  7 active torsions:
REMARK  status: ('A' for Active; 'I' for Inactive)
REMARK    1  A    between atoms: N_1  and  C_6
REMARK    2  A    between atoms: N_1  and  C_12
REMARK    3  A    between atoms: N_2  and  C_15
REMARK    4  A    between atoms: C_4  and  C_7
REMARK    5  A    between atoms: C_10  and  C_13
REMARK    6  A    between atoms: C_11  and  C_14
REMARK    7  A    between atoms: C_12  and  C_16
REMARK                            x       y       z     vdW  Elec       q    Type
REMARK                         _______ _______ _______ _____ _____    ______ ____
ROOT
ATOM      4  C   UNL     1      -2.349   0.370  24.964  0.00  0.00    +0.047 C 
ATOM      5  C   UNL     1      -3.405   0.542  23.856  0.00  0.00    +0.035 C 
ATOM      6  C   UNL     1      -4.765   0.243  24.509  0.00  0.00    +0.078 C 
ATOM      8  C   UNL     1      -3.059  -0.518  25.945  0.00  0.00    -0.021 C 
ATOM      9  C   UNL     1      -4.373  -0.578  25.698  0.00  0.00    -0.012 C 
ENDROOT
BRANCH   4   7
ATOM      2  N   UNL     1       1.039  -0.406  23.807  0.00  0.00    -0.236 N 
ATOM      3  N   UNL     1       0.527  -1.639  23.658  0.00  0.00    -0.171 NA
ATOM      7  C   UNL     1      -1.034  -0.174  24.457  0.00  0.00    +0.003 A 
ATOM     10  C   UNL     1       0.145   0.509  24.282  0.00  0.00    +0.046 A 
ATOM     11  C   UNL     1      -0.740  -1.491  24.057  0.00  0.00    +0.064 A 
ATOM     13  C   UNL     1       0.487   1.926  24.525  0.00  0.00    +0.066 C 
ATOM     14  C   UNL     1      -1.645  -2.654  24.039  0.00  0.00    +0.068 C 
BRANCH   2  15
ATOM     15  C   UNL     1       2.374  -0.167  23.481  0.00  0.00    +0.066 A 
ATOM     17  C   UNL     1       2.730   1.002  22.808  0.00  0.00    +0.028 A 
ATOM     18  C   UNL     1       3.354  -1.097  23.827  0.00  0.00    +0.028 A 
ATOM     21  C   UNL     1       4.064   1.242  22.483  0.00  0.00    +0.002 A 
ATOM     22  C   UNL     1       4.690  -0.858  23.501  0.00  0.00    +0.002 A 
ATOM     25  C   UNL     1       5.044   0.312  22.829  0.00  0.00    +0.000 A 
ENDBRANCH   2  15
ENDBRANCH   4   7
BRANCH   6   1
ATOM      1  N   UNL     1      -5.461   1.461  24.909  0.00  0.00    -0.306 NA
ATOM     27  H   UNL     1      -5.211   1.690  25.871  0.00  0.00    +0.123 HD
BRANCH   1  12
ATOM     12  C   UNL     1      -5.096   2.578  24.047  0.00  0.00    +0.116 C 
BRANCH  12  16
ATOM     16  C   UNL     1      -3.940   3.364  24.607  0.00  0.00    -0.034 A 
ATOM     19  C   UNL     1      -2.953   3.856  23.754  0.00  0.00    +0.005 A 
ATOM     20  C   UNL     1      -3.857   3.599  25.979  0.00  0.00    +0.005 A 
ATOM     23  C   UNL     1      -1.883   4.585  24.272  0.00  0.00    +0.000 A 
ATOM     24  C   UNL     1      -2.786   4.328  26.498  0.00  0.00    +0.000 A 
ATOM     26  C   UNL     1      -1.799   4.821  25.644  0.00  0.00    +0.000 A 
ENDBRANCH  12  16
ENDBRANCH   1  12
ENDBRANCH   6   1
TORSDOF 5
ENDMDL
