MODEL 1
REMARK VINA RESULT:      -4.1      0.000      0.000
REMARK  Name = 45784182
REMARK  4 active torsions:
REMARK  status: ('A' for Active; 'I' for Inactive)
REMARK    1  A    between atoms: N_2  and  C_8
REMARK    2  A    between atoms: C_4  and  C_9
REMARK    3  A    between atoms: C_8  and  C_10
REMARK    4  A    between atoms: C_17  and  C_22
REMARK                            x       y       z     vdW  Elec       q    Type
REMARK                         _______ _______ _______ _____ _____    ______ ____
ROOT
ATOM      2  N   UNL     1       0.785  -0.547  23.685  0.00  0.00    -0.297 NA
ATOM      4  C   UNL     1      -0.979   0.110  25.085  0.00  0.00    +0.090 C 
ATOM      5  C   UNL     1      -1.290  -1.270  24.478  0.00  0.00    +0.029 C 
ATOM      6  C   UNL     1       0.162   0.666  24.222  0.00  0.00    +0.097 C 
ATOM      7  C   UNL     1      -0.335  -1.405  23.299  0.00  0.00    +0.085 C 
ENDROOT
BRANCH   4   9
ATOM      1  O   UNL     1      -3.390   0.456  25.157  0.00  0.00    -0.439 OA
ATOM      3  N   UNL     1      -2.162   2.358  25.259  0.00  0.00    -0.213 NA
ATOM      9  C   UNL     1      -2.163   1.047  25.171  0.00  0.00    +0.201 A 
ATOM     11  C   UNL     1      -3.499   2.672  25.307  0.00  0.00    +0.110 A 
ATOM     12  C   UNL     1      -4.253   1.510  25.245  0.00  0.00    +0.155 A 
ATOM     15  C   UNL     1      -4.160   3.906  25.402  0.00  0.00    +0.035 A 
ATOM     16  C   UNL     1      -5.642   1.466  25.271  0.00  0.00    +0.049 A 
ATOM     17  C   UNL     1      -5.562   3.902  25.430  0.00  0.00    -0.048 A 
ATOM     18  C   UNL     1      -6.286   2.704  25.366  0.00  0.00    +0.007 A 
ATOM     22  C   UNL     1      -6.295   5.199  25.532  0.00  0.00    +0.044 C 
ENDBRANCH   4   9
BRANCH   2   8
ATOM      8  C   UNL     1       1.676  -0.265  22.570  0.00  0.00    +0.119 C 
BRANCH   8  10
ATOM     10  C   UNL     1       3.119  -0.234  23.001  0.00  0.00    -0.033 A 
ATOM     13  C   UNL     1       3.693  -1.359  23.594  0.00  0.00    +0.005 A 
ATOM     14  C   UNL     1       3.880   0.918  22.808  0.00  0.00    +0.005 A 
ATOM     19  C   UNL     1       5.030  -1.330  23.993  0.00  0.00    +0.000 A 
ATOM     20  C   UNL     1       5.216   0.946  23.206  0.00  0.00    +0.000 A 
ATOM     21  C   UNL     1       5.791  -0.177  23.800  0.00  0.00    +0.000 A 
ENDBRANCH   8  10
ENDBRANCH   2   8
TORSDOF 3
ENDMDL
MODEL 2
REMARK VINA RESULT:      -3.5      2.070      7.377
REMARK  Name = 45784182
REMARK  4 active torsions:
REMARK  status: ('A' for Active; 'I' for Inactive)
REMARK    1  A    between atoms: N_2  and  C_8
REMARK    2  A    between atoms: C_4  and  C_9
REMARK    3  A    between atoms: C_8  and  C_10
REMARK    4  A    between atoms: C_17  and  C_22
REMARK                            x       y       z     vdW  Elec       q    Type
REMARK                         _______ _______ _______ _____ _____    ______ ____
ROOT
ATOM      2  N   UNL     1      -3.928   1.988  25.088  0.00  0.00    -0.297 NA
ATOM      4  C   UNL     1      -1.684   2.539  24.688  0.00  0.00    +0.090 C 
ATOM      5  C   UNL     1      -2.575   3.199  23.621  0.00  0.00    +0.029 C 
ATOM      6  C   UNL     1      -2.579   1.474  25.336  0.00  0.00    +0.097 C 
ATOM      7  C   UNL     1      -3.903   2.459  23.703  0.00  0.00    +0.085 C 
ENDROOT
BRANCH   4   9
ATOM      1  O   UNL     1      -0.485   0.894  23.348  0.00  0.00    -0.439 OA
ATOM      3  N   UNL     1       0.842   2.397  24.403  0.00  0.00    -0.213 NA
ATOM      9  C   UNL     1      -0.381   1.977  24.168  0.00  0.00    +0.201 A 
ATOM     11  C   UNL     1       1.621   1.523  23.682  0.00  0.00    +0.110 A 
ATOM     12  C   UNL     1       0.811   0.603  23.035  0.00  0.00    +0.155 A 
ATOM     15  C   UNL     1       3.011   1.437  23.519  0.00  0.00    +0.035 A 
ATOM     16  C   UNL     1       1.274  -0.422  22.219  0.00  0.00    +0.049 A 
ATOM     17  C   UNL     1       3.517   0.415  22.703  0.00  0.00    -0.048 A 
ATOM     18  C   UNL     1       2.663  -0.495  22.067  0.00  0.00    +0.007 A 
ATOM     22  C   UNL     1       4.993   0.296  22.510  0.00  0.00    +0.044 C 
ENDBRANCH   4   9
BRANCH   2   8
ATOM      8  C   UNL     1      -4.955   0.981  25.312  0.00  0.00    +0.119 C 
BRANCH   8  10
ATOM     10  C   UNL     1      -4.434  -0.412  25.073  0.00  0.00    -0.033 A 
ATOM     13  C   UNL     1      -4.665  -1.042  23.850  0.00  0.00    +0.005 A 
ATOM     14  C   UNL     1      -3.722  -1.071  26.074  0.00  0.00    +0.005 A 
ATOM     19  C   UNL     1      -4.183  -2.332  23.629  0.00  0.00    +0.000 A 
ATOM     20  C   UNL     1      -3.240  -2.361  25.853  0.00  0.00    +0.000 A 
ATOM     21  C   UNL     1      -3.471  -2.992  24.631  0.00  0.00    +0.000 A 
ENDBRANCH   8  10
ENDBRANCH   2   8
TORSDOF 3
ENDMDL
MODEL 3
REMARK VINA RESULT:      -3.0     16.656     19.818
REMARK  Name = 45784182
REMARK  4 active torsions:
REMARK  status: ('A' for Active; 'I' for Inactive)
REMARK    1  A    between atoms: N_2  and  C_8
REMARK    2  A    between atoms: C_4  and  C_9
REMARK    3  A    between atoms: C_8  and  C_10
REMARK    4  A    between atoms: C_17  and  C_22
REMARK                            x       y       z     vdW  Elec       q    Type
REMARK                         _______ _______ _______ _____ _____    ______ ____
ROOT
ATOM      2  N   UNL     1      13.478  -9.443  32.058  0.00  0.00    -0.297 NA
ATOM      4  C   UNL     1      14.759  -9.749  30.117  0.00  0.00    +0.090 C 
ATOM      5  C   UNL     1      15.683  -9.741  31.348  0.00  0.00    +0.029 C 
ATOM      6  C   UNL     1      13.435  -9.159  30.622  0.00  0.00    +0.097 C 
ATOM      7  C   UNL     1      14.848  -9.126  32.463  0.00  0.00    +0.085 C 
ENDROOT
BRANCH   4   9
ATOM      1  O   UNL     1      15.530  -7.689  29.067  0.00  0.00    -0.439 OA
ATOM      3  N   UNL     1      15.592  -9.513  27.723  0.00  0.00    -0.213 NA
ATOM      9  C   UNL     1      15.305  -9.024  28.908  0.00  0.00    +0.201 A 
ATOM     11  C   UNL     1      16.046  -8.416  27.030  0.00  0.00    +0.110 A 
ATOM     12  C   UNL     1      16.010  -7.299  27.850  0.00  0.00    +0.155 A 
ATOM     15  C   UNL     1      16.507  -8.276  25.713  0.00  0.00    +0.035 A 
ATOM     16  C   UNL     1      16.401  -6.022  27.466  0.00  0.00    +0.049 A 
ATOM     17  C   UNL     1      16.910  -7.002  25.287  0.00  0.00    -0.048 A 
ATOM     18  C   UNL     1      16.858  -5.899  26.149  0.00  0.00    +0.007 A 
ATOM     22  C   UNL     1      17.405  -6.820  23.890  0.00  0.00    +0.044 C 
ENDBRANCH   4   9
BRANCH   2   8
ATOM      8  C   UNL     1      12.490  -8.679  32.804  0.00  0.00    +0.119 C 
BRANCH   8  10
ATOM     10  C   UNL     1      11.083  -9.079  32.443  0.00  0.00    -0.033 A 
ATOM     13  C   UNL     1      10.074  -8.118  32.404  0.00  0.00    +0.005 A 
ATOM     14  C   UNL     1      10.792 -10.411  32.148  0.00  0.00    +0.005 A 
ATOM     19  C   UNL     1       8.771  -8.489  32.069  0.00  0.00    +0.000 A 
ATOM     20  C   UNL     1       9.489 -10.781  31.813  0.00  0.00    +0.000 A 
ATOM     21  C   UNL     1       8.479  -9.821  31.775  0.00  0.00    +0.000 A 
ENDBRANCH   8  10
ENDBRANCH   2   8
TORSDOF 3
ENDMDL
MODEL 4
REMARK VINA RESULT:      -1.4      1.815      7.510
REMARK  Name = 45784182
REMARK  4 active torsions:
REMARK  status: ('A' for Active; 'I' for Inactive)
REMARK    1  A    between atoms: N_2  and  C_8
REMARK    2  A    between atoms: C_4  and  C_9
REMARK    3  A    between atoms: C_8  and  C_10
REMARK    4  A    between atoms: C_17  and  C_22
REMARK                            x       y       z     vdW  Elec       q    Type
REMARK                         _______ _______ _______ _____ _____    ______ ____
ROOT
ATOM      2  N   UNL     1      -3.056   0.205  24.599  0.00  0.00    -0.297 NA
ATOM      4  C   UNL     1      -1.116  -0.764  23.708  0.00  0.00    +0.090 C 
ATOM      5  C   UNL     1      -1.570  -1.564  24.942  0.00  0.00    +0.029 C 
ATOM      6  C   UNL     1      -1.881   0.562  23.801  0.00  0.00    +0.097 C 
ATOM      7  C   UNL     1      -2.537  -0.642  25.674  0.00  0.00    +0.085 C 
ENDROOT
BRANCH   4   9
ATOM      1  O   UNL     1       0.790   0.635  23.115  0.00  0.00    -0.439 OA
ATOM      3  N   UNL     1       1.338  -1.425  23.886  0.00  0.00    -0.213 NA
ATOM      9  C   UNL     1       0.380  -0.575  23.590  0.00  0.00    +0.201 A 
ATOM     11  C   UNL     1       2.483  -0.728  23.585  0.00  0.00    +0.110 A 
ATOM     12  C   UNL     1       2.152   0.532  23.113  0.00  0.00    +0.155 A 
ATOM     15  C   UNL     1       3.837  -1.083  23.680  0.00  0.00    +0.035 A 
ATOM     16  C   UNL     1       3.071   1.496  22.717  0.00  0.00    +0.049 A 
ATOM     17  C   UNL     1       4.795  -0.137  23.288  0.00  0.00    -0.048 A 
ATOM     18  C   UNL     1       4.417   1.127  22.817  0.00  0.00    +0.007 A 
ATOM     22  C   UNL     1       6.245  -0.484  23.377  0.00  0.00    +0.044 C 
ENDBRANCH   4   9
BRANCH   2   8
ATOM      8  C   UNL     1      -3.758   1.374  25.107  0.00  0.00    +0.119 C 
BRANCH   8  10
ATOM     10  C   UNL     1      -2.878   2.596  25.115  0.00  0.00    -0.033 A 
ATOM     13  C   UNL     1      -3.388   3.824  24.692  0.00  0.00    +0.005 A 
ATOM     14  C   UNL     1      -1.555   2.500  25.544  0.00  0.00    +0.005 A 
ATOM     19  C   UNL     1      -2.572   4.956  24.699  0.00  0.00    +0.000 A 
ATOM     20  C   UNL     1      -0.740   3.632  25.551  0.00  0.00    +0.000 A 
ATOM     21  C   UNL     1      -1.249   4.860  25.128  0.00  0.00    +0.000 A 
ENDBRANCH   8  10
ENDBRANCH   2   8
TORSDOF 3
ENDMDL
MODEL 5
REMARK VINA RESULT:      -1.4      1.655      7.539
REMARK  Name = 45784182
REMARK  4 active torsions:
REMARK  status: ('A' for Active; 'I' for Inactive)
REMARK    1  A    between atoms: N_2  and  C_8
REMARK    2  A    between atoms: C_4  and  C_9
REMARK    3  A    between atoms: C_8  and  C_10
REMARK    4  A    between atoms: C_17  and  C_22
REMARK                            x       y       z     vdW  Elec       q    Type
REMARK                         _______ _______ _______ _____ _____    ______ ____
ROOT
ATOM      2  N   UNL     1      -4.628  -0.627  24.727  0.00  0.00    -0.297 NA
ATOM      4  C   UNL     1      -2.436  -1.308  24.246  0.00  0.00    +0.090 C 
ATOM      5  C   UNL     1      -2.718  -1.503  25.746  0.00  0.00    +0.029 C 
ATOM      6  C   UNL     1      -3.558  -0.382  23.756  0.00  0.00    +0.097 C 
ATOM      7  C   UNL     1      -3.956  -0.662  26.026  0.00  0.00    +0.085 C 
ENDROOT
BRANCH   4   9
ATOM      1  O   UNL     1      -0.873   0.556  24.095  0.00  0.00    -0.439 OA
ATOM      3  N   UNL     1      -0.006  -1.450  23.497  0.00  0.00    -0.213 NA
ATOM      9  C   UNL     1      -1.055  -0.783  23.923  0.00  0.00    +0.201 A 
ATOM     11  C   UNL     1       0.958  -0.479  23.374  0.00  0.00    +0.110 A 
ATOM     12  C   UNL     1       0.430   0.750  23.739  0.00  0.00    +0.155 A 
ATOM     15  C   UNL     1       2.297  -0.547  22.963  0.00  0.00    +0.035 A 
ATOM     16  C   UNL     1       1.135   1.948  23.731  0.00  0.00    +0.049 A 
ATOM     17  C   UNL     1       3.041   0.641  22.941  0.00  0.00    -0.048 A 
ATOM     18  C   UNL     1       2.469   1.863  23.319  0.00  0.00    +0.007 A 
ATOM     22  C   UNL     1       4.470   0.602  22.508  0.00  0.00    +0.044 C 
ENDBRANCH   4   9
BRANCH   2   8
ATOM      8  C   UNL     1      -5.670   0.387  24.670  0.00  0.00    +0.119 C 
BRANCH   8  10
ATOM     10  C   UNL     1      -5.104   1.778  24.778  0.00  0.00    -0.033 A 
ATOM     13  C   UNL     1      -4.158   2.220  23.854  0.00  0.00    +0.005 A 
ATOM     14  C   UNL     1      -5.527   2.625  25.803  0.00  0.00    +0.005 A 
ATOM     19  C   UNL     1      -3.634   3.509  23.954  0.00  0.00    +0.000 A 
ATOM     20  C   UNL     1      -5.003   3.914  25.903  0.00  0.00    +0.000 A 
ATOM     21  C   UNL     1      -4.057   4.356  24.979  0.00  0.00    +0.000 A 
ENDBRANCH   8  10
ENDBRANCH   2   8
TORSDOF 3
ENDMDL
MODEL 6
REMARK VINA RESULT:      -1.2      0.978      1.847
REMARK  Name = 45784182
REMARK  4 active torsions:
REMARK  status: ('A' for Active; 'I' for Inactive)
REMARK    1  A    between atoms: N_2  and  C_8
REMARK    2  A    between atoms: C_4  and  C_9
REMARK    3  A    between atoms: C_8  and  C_10
REMARK    4  A    between atoms: C_17  and  C_22
REMARK                            x       y       z     vdW  Elec       q    Type
REMARK                         _______ _______ _______ _____ _____    ______ ____
ROOT
ATOM      2  N   UNL     1       0.861  -0.417  23.271  0.00  0.00    -0.297 NA
ATOM      4  C   UNL     1      -0.944   0.160  24.652  0.00  0.00    +0.090 C 
ATOM      5  C   UNL     1      -1.383  -0.933  23.661  0.00  0.00    +0.029 C 
ATOM      6  C   UNL     1       0.368   0.705  24.073  0.00  0.00    +0.097 C 
ATOM      7  C   UNL     1      -0.319  -0.926  22.572  0.00  0.00    +0.085 C 
ENDROOT
BRANCH   4   9
ATOM      1  O   UNL     1      -1.479   2.492  25.117  0.00  0.00    -0.439 OA
ATOM      3  N   UNL     1      -3.281   1.131  24.936  0.00  0.00    -0.213 NA
ATOM      9  C   UNL     1      -1.972   1.241  24.901  0.00  0.00    +0.201 A 
ATOM     11  C   UNL     1      -3.700   2.414  25.197  0.00  0.00    +0.110 A 
ATOM     12  C   UNL     1      -2.599   3.249  25.309  0.00  0.00    +0.155 A 
ATOM     15  C   UNL     1      -4.983   2.957  25.355  0.00  0.00    +0.035 A 
ATOM     16  C   UNL     1      -2.663   4.613  25.570  0.00  0.00    +0.049 A 
ATOM     17  C   UNL     1      -5.089   4.330  25.621  0.00  0.00    -0.048 A 
ATOM     18  C   UNL     1      -3.950   5.140  25.725  0.00  0.00    +0.007 A 
ATOM     22  C   UNL     1      -6.441   4.939  25.794  0.00  0.00    +0.044 C 
ENDBRANCH   4   9
BRANCH   2   8
ATOM      8  C   UNL     1       1.919  -0.021  22.354  0.00  0.00    +0.119 C 
BRANCH   8  10
ATOM     10  C   UNL     1       3.280  -0.126  22.990  0.00  0.00    -0.033 A 
ATOM     13  C   UNL     1       4.123   0.984  23.018  0.00  0.00    +0.005 A 
ATOM     14  C   UNL     1       3.696  -1.333  23.551  0.00  0.00    +0.005 A 
ATOM     19  C   UNL     1       5.384   0.887  23.608  0.00  0.00    +0.000 A 
ATOM     20  C   UNL     1       4.956  -1.430  24.140  0.00  0.00    +0.000 A 
ATOM     21  C   UNL     1       5.800  -0.320  24.169  0.00  0.00    +0.000 A 
ENDBRANCH   8  10
ENDBRANCH   2   8
TORSDOF 3
ENDMDL
MODEL 7
REMARK VINA RESULT:      -0.9     16.579     19.010
REMARK  Name = 45784182
REMARK  4 active torsions:
REMARK  status: ('A' for Active; 'I' for Inactive)
REMARK    1  A    between atoms: N_2  and  C_8
REMARK    2  A    between atoms: C_4  and  C_9
REMARK    3  A    between atoms: C_8  and  C_10
REMARK    4  A    between atoms: C_17  and  C_22
REMARK                            x       y       z     vdW  Elec       q    Type
REMARK                         _______ _______ _______ _____ _____    ______ ____
ROOT
ATOM      2  N   UNL     1      14.192  -7.448  30.339  0.00  0.00    -0.297 NA
ATOM      4  C   UNL     1      15.879  -6.452  29.051  0.00  0.00    +0.090 C 
ATOM      5  C   UNL     1      15.206  -5.384  29.931  0.00  0.00    +0.029 C 
ATOM      6  C   UNL     1      14.915  -7.645  29.080  0.00  0.00    +0.097 C 
ATOM      7  C   UNL     1      13.895  -6.016  30.382  0.00  0.00    +0.085 C 
ENDROOT
BRANCH   4   9
ATOM      1  O   UNL     1      16.523  -6.987  26.762  0.00  0.00    -0.439 OA
ATOM      3  N   UNL     1      16.246  -4.775  27.170  0.00  0.00    -0.213 NA
ATOM      9  C   UNL     1      16.214  -5.999  27.648  0.00  0.00    +0.201 A 
ATOM     11  C   UNL     1      16.606  -4.957  25.856  0.00  0.00    +0.110 A 
ATOM     12  C   UNL     1      16.776  -6.310  25.603  0.00  0.00    +0.155 A 
ATOM     15  C   UNL     1      16.810  -4.041  24.814  0.00  0.00    +0.035 A 
ATOM     16  C   UNL     1      17.140  -6.846  24.374  0.00  0.00    +0.049 A 
ATOM     17  C   UNL     1      17.180  -4.544  23.558  0.00  0.00    -0.048 A 
ATOM     18  C   UNL     1      17.340  -5.919  23.345  0.00  0.00    +0.007 A 
ATOM     22  C   UNL     1      17.404  -3.594  22.428  0.00  0.00    +0.044 C 
ENDBRANCH   4   9
BRANCH   2   8
ATOM      8  C   UNL     1      12.990  -8.264  30.422  0.00  0.00    +0.119 C 
BRANCH   8  10
ATOM     10  C   UNL     1      11.933  -7.619  31.279  0.00  0.00    -0.033 A 
ATOM     13  C   UNL     1      10.869  -8.379  31.764  0.00  0.00    +0.005 A 
ATOM     14  C   UNL     1      12.019  -6.262  31.588  0.00  0.00    +0.005 A 
ATOM     19  C   UNL     1       9.890  -7.782  32.559  0.00  0.00    +0.000 A 
ATOM     20  C   UNL     1      11.040  -5.665  32.383  0.00  0.00    +0.000 A 
ATOM     21  C   UNL     1       9.976  -6.424  32.868  0.00  0.00    +0.000 A 
ENDBRANCH   8  10
ENDBRANCH   2   8
TORSDOF 3
ENDMDL
MODEL 8
REMARK VINA RESULT:      -0.4      1.635      8.692
REMARK  Name = 45784182
REMARK  4 active torsions:
REMARK  status: ('A' for Active; 'I' for Inactive)
REMARK    1  A    between atoms: N_2  and  C_8
REMARK    2  A    between atoms: C_4  and  C_9
REMARK    3  A    between atoms: C_8  and  C_10
REMARK    4  A    between atoms: C_17  and  C_22
REMARK                            x       y       z     vdW  Elec       q    Type
REMARK                         _______ _______ _______ _____ _____    ______ ____
ROOT
ATOM      2  N   UNL     1      -1.487   1.438  24.293  0.00  0.00    -0.297 NA
ATOM      4  C   UNL     1       0.317   0.438  23.177  0.00  0.00    +0.090 C 
ATOM      5  C   UNL     1      -0.518  -0.646  23.882  0.00  0.00    +0.029 C 
ATOM      6  C   UNL     1      -0.139   1.756  23.817  0.00  0.00    +0.097 C 
ATOM      7  C   UNL     1      -1.371   0.109  24.893  0.00  0.00    +0.085 C 
ENDROOT
BRANCH   4   9
ATOM      1  O   UNL     1       2.227  -1.014  23.608  0.00  0.00    -0.439 OA
ATOM      3  N   UNL     1       2.769   1.104  23.010  0.00  0.00    -0.213 NA
ATOM      9  C   UNL     1       1.813   0.234  23.249  0.00  0.00    +0.201 A 
ATOM     11  C   UNL     1       3.917   0.380  23.227  0.00  0.00    +0.110 A 
ATOM     12  C   UNL     1       3.588  -0.916  23.593  0.00  0.00    +0.155 A 
ATOM     15  C   UNL     1       5.270   0.738  23.138  0.00  0.00    +0.035 A 
ATOM     16  C   UNL     1       4.511  -1.914  23.885  0.00  0.00    +0.049 A 
ATOM     17  C   UNL     1       6.231  -0.242  23.426  0.00  0.00    -0.048 A 
ATOM     18  C   UNL     1       5.856  -1.542  23.792  0.00  0.00    +0.007 A 
ATOM     22  C   UNL     1       7.680   0.107  23.340  0.00  0.00    +0.044 C 
ENDBRANCH   4   9
BRANCH   2   8
ATOM      8  C   UNL     1      -1.991   2.427  25.233  0.00  0.00    +0.119 C 
BRANCH   8  10
ATOM     10  C   UNL     1      -3.497   2.465  25.253  0.00  0.00    -0.033 A 
ATOM     13  C   UNL     1      -4.227   1.333  24.894  0.00  0.00    +0.005 A 
ATOM     14  C   UNL     1      -4.160   3.633  25.630  0.00  0.00    +0.005 A 
ATOM     19  C   UNL     1      -5.622   1.368  24.912  0.00  0.00    +0.000 A 
ATOM     20  C   UNL     1      -5.554   3.667  25.648  0.00  0.00    +0.000 A 
ATOM     21  C   UNL     1      -6.285   2.536  25.289  0.00  0.00    +0.000 A 
ENDBRANCH   8  10
ENDBRANCH   2   8
TORSDOF 3
ENDMDL
