MODEL 1
REMARK VINA RESULT:       8.8      0.000      0.000
REMARK  Name = 11882964
REMARK  11 active torsions:
REMARK  status: ('A' for Active; 'I' for Inactive)
REMARK    1  A    between atoms: O_2  and  C_16
REMARK    2  A    between atoms: O_3  and  C_21
REMARK    3  A    between atoms: N_8  and  C_27
REMARK    4  A    between atoms: N_10  and  C_30
REMARK    5  A    between atoms: C_11  and  C_19
REMARK    6  A    between atoms: C_13  and  C_21
REMARK    7  A    between atoms: C_13  and  C_22
REMARK    8  A    between atoms: C_14  and  C_24
REMARK    9  A    between atoms: C_24  and  C_25
REMARK   10  A    between atoms: C_27  and  C_30
REMARK   11  A    between atoms: C_28  and  C_29
REMARK                            x       y       z     vdW  Elec       q    Type
REMARK                         _______ _______ _______ _____ _____    ______ ____
ROOT
ATOM      1  S   UNL     1       0.922   2.257  25.040  0.00  0.00    -0.057 S 
ATOM      5  O   UNL     1       1.705  -0.276  21.200  0.00  0.00    -0.275 OA
ATOM      7  N   UNL     1      -0.195   1.160  22.980  0.00  0.00    -0.229 NA
ATOM      9  N   UNL     1       2.190   0.888  23.199  0.00  0.00    -0.264 N 
ATOM     11  C   UNL     1      -3.610   2.184  24.449  0.00  0.00    -0.019 C 
ATOM     12  C   UNL     1      -3.008   3.481  25.150  0.00  0.00    +0.011 C 
ATOM     13  C   UNL     1      -3.982   4.314  26.069  0.00  0.00    +0.021 C 
ATOM     14  C   UNL     1      -2.627   1.766  23.260  0.00  0.00    +0.054 C 
ATOM     15  C   UNL     1      -4.996   2.522  23.842  0.00  0.00    +0.010 C 
ATOM     16  C   UNL     1      -5.334   4.522  25.330  0.00  0.00    +0.123 C 
ATOM     17  C   UNL     1      -1.627   3.185  25.805  0.00  0.00    +0.049 C 
ATOM     18  C   UNL     1      -5.939   3.223  24.809  0.00  0.00    +0.032 C 
ATOM     19  C   UNL     1      -3.772   0.994  25.426  0.00  0.00    +0.012 C 
ATOM     20  C   UNL     1      -1.190   1.777  23.715  0.00  0.00    +0.058 A 
ATOM     22  C   UNL     1      -3.368   5.722  26.315  0.00  0.00    +0.016 C 
ATOM     23  C   UNL     1      -0.761   2.436  24.849  0.00  0.00    +0.015 A 
ATOM     26  C   UNL     1       0.958   1.341  23.588  0.00  0.00    +0.165 A 
ATOM     28  C   UNL     1       2.486   0.125  22.057  0.00  0.00    +0.222 C 
ATOM     43  H   UNL     1       2.953   1.151  23.817  0.00  0.00    +0.157 HD
ENDROOT
BRANCH  28  29
ATOM     29  C   UNL     1       3.951  -0.184  21.960  0.00  0.00    +0.075 C 
ATOM     31  C   UNL     1       4.793   0.942  22.565  0.00  0.00    +0.013 C 
ATOM     32  C   UNL     1       4.245  -1.547  22.591  0.00  0.00    +0.013 C 
ATOM     33  C   UNL     1       4.798   0.944  24.093  0.00  0.00    +0.001 C 
ATOM     34  C   UNL     1       4.239  -1.513  24.118  0.00  0.00    +0.001 C 
ATOM     35  C   UNL     1       5.158  -0.425  24.661  0.00  0.00    +0.000 C 
ENDBRANCH  28  29
BRANCH  16   2
ATOM      2  O   UNL     1      -6.282   5.160  26.184  0.00  0.00    -0.391 OA
ATOM     40  H   UNL     1      -5.803   5.816  26.719  0.00  0.00    +0.210 HD
ENDBRANCH  16   2
BRANCH  13  21
ATOM     21  C   UNL     1      -4.210   3.711  27.474  0.00  0.00    +0.165 C 
BRANCH  21   3
ATOM      3  O   UNL     1      -3.226   4.238  28.335  0.00  0.00    -0.394 OA
ATOM     41  H   UNL     1      -3.169   5.192  28.161  0.00  0.00    +0.209 HD
ENDBRANCH  21   3
ENDBRANCH  13  21
BRANCH  14  24
ATOM     24  C   UNL     1      -2.988   0.443  22.571  0.00  0.00    +0.106 C 
BRANCH  24  25
ATOM      4  O   UNL     1      -4.875   0.089  24.044  0.00  0.00    -0.276 OA
ATOM      8  N   UNL     1      -3.620  -1.733  23.331  0.00  0.00    -0.314 N 
ATOM     25  C   UNL     1      -3.943  -0.386  23.399  0.00  0.00    +0.214 C 
ATOM     42  H   UNL     1      -2.832  -2.026  22.761  0.00  0.00    +0.149 HD
BRANCH   8  27
ATOM     27  C   UNL     1      -4.361  -2.759  24.026  0.00  0.00    +0.119 C 
BRANCH  27  30
ATOM     30  C   UNL     1      -3.429  -3.718  24.751  0.00  0.00    +0.103 C 
BRANCH  30  10
ATOM      6  O   UNL     1      -0.871  -0.613  25.949  0.00  0.00    -0.377 OA
ATOM     10  N   UNL     1      -2.372  -2.977  25.437  0.00  0.00    -0.297 NA
ATOM     36  C   UNL     1      -1.381  -2.472  24.476  0.00  0.00    +0.112 C 
ATOM     37  C   UNL     1      -2.934  -1.863  26.213  0.00  0.00    +0.112 C 
ATOM     38  C   UNL     1      -0.295  -1.693  25.213  0.00  0.00    +0.175 C 
ATOM     39  C   UNL     1      -1.812  -1.096  26.908  0.00  0.00    +0.175 C 
ENDBRANCH  30  10
ENDBRANCH  27  30
ENDBRANCH   8  27
ENDBRANCH  24  25
ENDBRANCH  14  24
TORSDOF 9
ENDMDL
MODEL 2
REMARK VINA RESULT:       9.1      2.485      3.680
REMARK  Name = 11882964
REMARK  11 active torsions:
REMARK  status: ('A' for Active; 'I' for Inactive)
REMARK    1  A    between atoms: O_2  and  C_16
REMARK    2  A    between atoms: O_3  and  C_21
REMARK    3  A    between atoms: N_8  and  C_27
REMARK    4  A    between atoms: N_10  and  C_30
REMARK    5  A    between atoms: C_11  and  C_19
REMARK    6  A    between atoms: C_13  and  C_21
REMARK    7  A    between atoms: C_13  and  C_22
REMARK    8  A    between atoms: C_14  and  C_24
REMARK    9  A    between atoms: C_24  and  C_25
REMARK   10  A    between atoms: C_27  and  C_30
REMARK   11  A    between atoms: C_28  and  C_29
REMARK                            x       y       z     vdW  Elec       q    Type
REMARK                         _______ _______ _______ _____ _____    ______ ____
ROOT
ATOM      1  S   UNL     1       0.336   2.862  24.026  0.00  0.00    -0.057 S 
ATOM      5  O   UNL     1       2.830  -0.825  22.628  0.00  0.00    -0.275 OA
ATOM      7  N   UNL     1       0.221   0.345  23.443  0.00  0.00    -0.229 NA
ATOM      9  N   UNL     1       2.377   1.406  23.261  0.00  0.00    -0.264 N 
ATOM     11  C   UNL     1      -3.451   0.372  24.619  0.00  0.00    -0.019 C 
ATOM     12  C   UNL     1      -3.663   1.889  24.181  0.00  0.00    +0.011 C 
ATOM     13  C   UNL     1      -5.047   2.551  24.542  0.00  0.00    +0.021 C 
ATOM     14  C   UNL     1      -2.214  -0.212  23.792  0.00  0.00    +0.054 C 
ATOM     15  C   UNL     1      -4.715  -0.450  24.256  0.00  0.00    +0.010 C 
ATOM     16  C   UNL     1      -6.198   1.579  24.156  0.00  0.00    +0.123 C 
ATOM     17  C   UNL     1      -2.431   2.766  24.554  0.00  0.00    +0.049 C 
ATOM     18  C   UNL     1      -6.017   0.178  24.729  0.00  0.00    +0.032 C 
ATOM     19  C   UNL     1      -3.177   0.217  26.135  0.00  0.00    +0.012 C 
ATOM     20  C   UNL     1      -1.050   0.746  23.810  0.00  0.00    +0.058 A 
ATOM     22  C   UNL     1      -5.229   3.842  23.694  0.00  0.00    +0.016 C 
ATOM     23  C   UNL     1      -1.174   2.081  24.136  0.00  0.00    +0.015 A 
ATOM     26  C   UNL     1       1.034   1.375  23.527  0.00  0.00    +0.165 A 
ATOM     28  C   UNL     1       3.177   0.333  22.837  0.00  0.00    +0.222 C 
ATOM     43  H   UNL     1       2.813   2.316  23.384  0.00  0.00    +0.157 HD
ENDROOT
BRANCH  28  29
ATOM     29  C   UNL     1       4.607   0.748  22.643  0.00  0.00    +0.075 C 
ATOM     31  C   UNL     1       5.152   1.443  23.893  0.00  0.00    +0.013 C 
ATOM     32  C   UNL     1       5.452  -0.456  22.219  0.00  0.00    +0.013 C 
ATOM     33  C   UNL     1       5.487   0.477  25.029  0.00  0.00    +0.001 C 
ATOM     34  C   UNL     1       5.766  -1.404  23.375  0.00  0.00    +0.001 C 
ATOM     35  C   UNL     1       6.381  -0.665  24.558  0.00  0.00    +0.000 C 
ENDBRANCH  28  29
BRANCH  16   2
ATOM      2  O   UNL     1      -7.457   2.093  24.588  0.00  0.00    -0.391 OA
ATOM     40  H   UNL     1      -8.104   1.369  24.535  0.00  0.00    +0.210 HD
ENDBRANCH  16   2
BRANCH  13  21
ATOM     21  C   UNL     1      -5.178   3.001  26.014  0.00  0.00    +0.165 C 
BRANCH  21   3
ATOM      3  O   UNL     1      -6.190   3.981  26.079  0.00  0.00    -0.394 OA
ATOM     41  H   UNL     1      -6.156   4.488  25.250  0.00  0.00    +0.209 HD
ENDBRANCH  21   3
ENDBRANCH  13  21
BRANCH  14  24
ATOM     24  C   UNL     1      -1.784  -1.626  24.203  0.00  0.00    +0.106 C 
BRANCH  24  25
ATOM      4  O   UNL     1      -0.127  -2.544  25.709  0.00  0.00    -0.276 OA
ATOM      8  N   UNL     1      -0.991  -0.424  26.109  0.00  0.00    -0.314 N 
ATOM     25  C   UNL     1      -0.870  -1.613  25.407  0.00  0.00    +0.214 C 
ATOM     42  H   UNL     1      -1.629   0.290  25.771  0.00  0.00    +0.149 HD
BRANCH   8  27
ATOM     27  C   UNL     1      -0.237  -0.134  27.307  0.00  0.00    +0.119 C 
BRANCH  27  30
ATOM     30  C   UNL     1      -0.221   1.359  27.601  0.00  0.00    +0.103 C 
BRANCH  30  10
ATOM      6  O   UNL     1       2.597   3.555  29.802  0.00  0.00    -0.377 OA
ATOM     10  N   UNL     1       0.983   1.716  28.350  0.00  0.00    -0.297 NA
ATOM     36  C   UNL     1       1.715   2.796  27.674  0.00  0.00    +0.112 C 
ATOM     37  C   UNL     1       0.644   2.118  29.721  0.00  0.00    +0.112 C 
ATOM     38  C   UNL     1       2.960   3.160  28.479  0.00  0.00    +0.175 C 
ATOM     39  C   UNL     1       1.913   2.499  30.478  0.00  0.00    +0.175 C 
ENDBRANCH  30  10
ENDBRANCH  27  30
ENDBRANCH   8  27
ENDBRANCH  24  25
ENDBRANCH  14  24
TORSDOF 9
ENDMDL
MODEL 3
REMARK VINA RESULT:       9.5      2.975      4.685
REMARK  Name = 11882964
REMARK  11 active torsions:
REMARK  status: ('A' for Active; 'I' for Inactive)
REMARK    1  A    between atoms: O_2  and  C_16
REMARK    2  A    between atoms: O_3  and  C_21
REMARK    3  A    between atoms: N_8  and  C_27
REMARK    4  A    between atoms: N_10  and  C_30
REMARK    5  A    between atoms: C_11  and  C_19
REMARK    6  A    between atoms: C_13  and  C_21
REMARK    7  A    between atoms: C_13  and  C_22
REMARK    8  A    between atoms: C_14  and  C_24
REMARK    9  A    between atoms: C_24  and  C_25
REMARK   10  A    between atoms: C_27  and  C_30
REMARK   11  A    between atoms: C_28  and  C_29
REMARK                            x       y       z     vdW  Elec       q    Type
REMARK                         _______ _______ _______ _____ _____    ______ ____
ROOT
ATOM      1  S   UNL     1      -0.822  -0.814  23.321  0.00  0.00    -0.057 S 
ATOM      5  O   UNL     1       2.954   1.925  23.178  0.00  0.00    -0.275 OA
ATOM      7  N   UNL     1       0.073   1.562  23.821  0.00  0.00    -0.229 NA
ATOM      9  N   UNL     1       1.645  -0.026  22.916  0.00  0.00    -0.264 N 
ATOM     11  C   UNL     1      -3.542   2.607  24.659  0.00  0.00    -0.019 C 
ATOM     12  C   UNL     1      -3.925   1.152  25.181  0.00  0.00    +0.011 C 
ATOM     13  C   UNL     1      -5.431   0.911  25.585  0.00  0.00    +0.021 C 
ATOM     14  C   UNL     1      -1.952   2.754  24.734  0.00  0.00    +0.054 C 
ATOM     15  C   UNL     1      -4.177   3.673  25.590  0.00  0.00    +0.010 C 
ATOM     16  C   UNL     1      -5.919   2.089  26.474  0.00  0.00    +0.123 C 
ATOM     17  C   UNL     1      -3.337   0.044  24.260  0.00  0.00    +0.049 C 
ATOM     18  C   UNL     1      -5.659   3.457  25.855  0.00  0.00    +0.032 C 
ATOM     19  C   UNL     1      -4.016   2.869  23.209  0.00  0.00    +0.012 C 
ATOM     20  C   UNL     1      -1.268   1.543  24.155  0.00  0.00    +0.058 A 
ATOM     22  C   UNL     1      -5.525  -0.385  26.440  0.00  0.00    +0.016 C 
ATOM     23  C   UNL     1      -1.903   0.332  23.969  0.00  0.00    +0.015 A 
ATOM     26  C   UNL     1       0.415   0.377  23.363  0.00  0.00    +0.165 A 
ATOM     28  C   UNL     1       2.814   0.751  22.851  0.00  0.00    +0.222 C 
ATOM     43  H   UNL     1       1.690  -0.995  22.611  0.00  0.00    +0.157 HD
ENDROOT
BRANCH  28  29
ATOM     29  C   UNL     1       3.973  -0.033  22.307  0.00  0.00    +0.075 C 
ATOM     31  C   UNL     1       5.305   0.609  22.700  0.00  0.00    +0.013 C 
ATOM     32  C   UNL     1       3.870  -1.497  22.744  0.00  0.00    +0.013 C 
ATOM     33  C   UNL     1       5.696   0.358  24.156  0.00  0.00    +0.001 C 
ATOM     34  C   UNL     1       4.263  -1.714  24.204  0.00  0.00    +0.001 C 
ATOM     35  C   UNL     1       5.633  -1.124  24.513  0.00  0.00    +0.000 C 
ENDBRANCH  28  29
BRANCH  16   2
ATOM      2  O   UNL     1      -7.314   1.967  26.750  0.00  0.00    -0.391 OA
ATOM     40  H   UNL     1      -7.526   2.582  27.472  0.00  0.00    +0.210 HD
ENDBRANCH  16   2
BRANCH  13  21
ATOM     21  C   UNL     1      -6.387   0.689  24.392  0.00  0.00    +0.165 C 
BRANCH  21   3
ATOM      3  O   UNL     1      -7.338   1.730  24.401  0.00  0.00    -0.394 OA
ATOM     41  H   UNL     1      -8.130   1.394  24.854  0.00  0.00    +0.209 HD
ENDBRANCH  21   3
ENDBRANCH  13  21
BRANCH  14  24
ATOM     24  C   UNL     1      -1.403   4.053  24.128  0.00  0.00    +0.106 C 
BRANCH  24  25
ATOM      4  O   UNL     1       0.115   5.796  24.842  0.00  0.00    -0.276 OA
ATOM      8  N   UNL     1       0.196   3.713  25.870  0.00  0.00    -0.314 N 
ATOM     25  C   UNL     1      -0.292   4.644  24.964  0.00  0.00    +0.214 C 
ATOM     42  H   UNL     1      -0.215   2.785  25.898  0.00  0.00    +0.149 HD
BRANCH   8  27
ATOM     27  C   UNL     1       1.265   4.001  26.798  0.00  0.00    +0.119 C 
BRANCH  27  30
ATOM     30  C   UNL     1       1.785   2.729  27.451  0.00  0.00    +0.103 C 
BRANCH  30  10
ATOM      6  O   UNL     1       0.974   1.925  31.490  0.00  0.00    -0.377 OA
ATOM     10  N   UNL     1       1.735   2.848  28.907  0.00  0.00    -0.297 NA
ATOM     36  C   UNL     1       0.344   2.933  29.375  0.00  0.00    +0.112 C 
ATOM     37  C   UNL     1       2.414   1.713  29.547  0.00  0.00    +0.112 C 
ATOM     38  C   UNL     1       0.317   3.045  30.897  0.00  0.00    +0.175 C 
ATOM     39  C   UNL     1       2.336   1.852  31.065  0.00  0.00    +0.175 C 
ENDBRANCH  30  10
ENDBRANCH  27  30
ENDBRANCH   8  27
ENDBRANCH  24  25
ENDBRANCH  14  24
TORSDOF 9
ENDMDL
MODEL 4
REMARK VINA RESULT:      10.7      1.191      1.994
REMARK  Name = 11882964
REMARK  11 active torsions:
REMARK  status: ('A' for Active; 'I' for Inactive)
REMARK    1  A    between atoms: O_2  and  C_16
REMARK    2  A    between atoms: O_3  and  C_21
REMARK    3  A    between atoms: N_8  and  C_27
REMARK    4  A    between atoms: N_10  and  C_30
REMARK    5  A    between atoms: C_11  and  C_19
REMARK    6  A    between atoms: C_13  and  C_21
REMARK    7  A    between atoms: C_13  and  C_22
REMARK    8  A    between atoms: C_14  and  C_24
REMARK    9  A    between atoms: C_24  and  C_25
REMARK   10  A    between atoms: C_27  and  C_30
REMARK   11  A    between atoms: C_28  and  C_29
REMARK                            x       y       z     vdW  Elec       q    Type
REMARK                         _______ _______ _______ _____ _____    ______ ____
ROOT
ATOM      1  S   UNL     1       1.246   2.759  25.202  0.00  0.00    -0.057 S 
ATOM      5  O   UNL     1       2.525   0.096  21.590  0.00  0.00    -0.275 OA
ATOM      7  N   UNL     1       0.377   1.396  23.182  0.00  0.00    -0.229 NA
ATOM      9  N   UNL     1       2.763   1.441  23.518  0.00  0.00    -0.264 N 
ATOM     11  C   UNL     1      -3.207   2.077  24.431  0.00  0.00    -0.019 C 
ATOM     12  C   UNL     1      -2.805   3.483  25.061  0.00  0.00    +0.011 C 
ATOM     13  C   UNL     1      -3.918   4.246  25.877  0.00  0.00    +0.021 C 
ATOM     14  C   UNL     1      -2.122   1.708  23.317  0.00  0.00    +0.054 C 
ATOM     15  C   UNL     1      -4.592   2.197  23.745  0.00  0.00    +0.010 C 
ATOM     16  C   UNL     1      -5.247   4.233  25.070  0.00  0.00    +0.123 C 
ATOM     17  C   UNL     1      -1.432   3.408  25.792  0.00  0.00    +0.049 C 
ATOM     18  C   UNL     1      -5.661   2.836  24.619  0.00  0.00    +0.032 C 
ATOM     19  C   UNL     1      -3.271   0.943  25.484  0.00  0.00    +0.012 C 
ATOM     20  C   UNL     1      -0.722   1.930  23.829  0.00  0.00    +0.058 A 
ATOM     22  C   UNL     1      -3.494   5.733  26.046  0.00  0.00    +0.016 C 
ATOM     23  C   UNL     1      -0.434   2.712  24.929  0.00  0.00    +0.015 A 
ATOM     26  C   UNL     1       1.467   1.761  23.822  0.00  0.00    +0.165 A 
ATOM     28  C   UNL     1       3.207   0.648  22.448  0.00  0.00    +0.222 C 
ATOM     43  H   UNL     1       3.456   1.838  24.146  0.00  0.00    +0.157 HD
ENDROOT
BRANCH  28  29
ATOM     29  C   UNL     1       4.702   0.520  22.433  0.00  0.00    +0.075 C 
ATOM     31  C   UNL     1       5.331   1.281  23.602  0.00  0.00    +0.013 C 
ATOM     32  C   UNL     1       5.104  -0.957  22.403  0.00  0.00    +0.013 C 
ATOM     33  C   UNL     1       5.188   0.562  24.943  0.00  0.00    +0.001 C 
ATOM     34  C   UNL     1       4.945  -1.647  23.757  0.00  0.00    +0.001 C 
ATOM     35  C   UNL     1       5.662  -0.886  24.865  0.00  0.00    +0.000 C 
ENDBRANCH  28  29
BRANCH  16   2
ATOM      2  O   UNL     1      -6.307   4.801  25.836  0.00  0.00    -0.391 OA
ATOM     40  H   UNL     1      -7.144   4.574  25.396  0.00  0.00    +0.210 HD
ENDBRANCH  16   2
BRANCH  13  21
ATOM     21  C   UNL     1      -4.140   3.714  27.311  0.00  0.00    +0.165 C 
BRANCH  21   3
ATOM      3  O   UNL     1      -5.261   2.859  27.286  0.00  0.00    -0.394 OA
ATOM     41  H   UNL     1      -5.497   2.718  26.354  0.00  0.00    +0.209 HD
ENDBRANCH  21   3
ENDBRANCH  13  21
BRANCH  14  24
ATOM     24  C   UNL     1      -2.283   0.307  22.711  0.00  0.00    +0.106 C 
BRANCH  24  25
ATOM      4  O   UNL     1      -0.364  -1.085  22.229  0.00  0.00    -0.276 OA
ATOM      8  N   UNL     1      -1.048  -0.798  24.431  0.00  0.00    -0.314 N 
ATOM     25  C   UNL     1      -1.124  -0.598  23.061  0.00  0.00    +0.214 C 
ATOM     42  H   UNL     1      -1.722  -0.342  25.039  0.00  0.00    +0.149 HD
BRANCH   8  27
ATOM     27  C   UNL     1      -0.038  -1.623  25.054  0.00  0.00    +0.119 C 
BRANCH  27  30
ATOM     30  C   UNL     1      -0.596  -2.987  25.432  0.00  0.00    +0.103 C 
BRANCH  30  10
ATOM      6  O   UNL     1      -4.496  -1.969  24.262  0.00  0.00    -0.377 OA
ATOM     10  N   UNL     1      -2.052  -2.995  25.298  0.00  0.00    -0.297 NA
ATOM     36  C   UNL     1      -2.627  -1.736  25.791  0.00  0.00    +0.112 C 
ATOM     37  C   UNL     1      -2.446  -3.217  23.900  0.00  0.00    +0.112 C 
ATOM     38  C   UNL     1      -4.145  -1.763  25.631  0.00  0.00    +0.175 C 
ATOM     39  C   UNL     1      -3.968  -3.207  23.783  0.00  0.00    +0.175 C 
ENDBRANCH  30  10
ENDBRANCH  27  30
ENDBRANCH   8  27
ENDBRANCH  24  25
ENDBRANCH  14  24
TORSDOF 9
ENDMDL
MODEL 5
REMARK VINA RESULT:      11.4      3.203      5.953
REMARK  Name = 11882964
REMARK  11 active torsions:
REMARK  status: ('A' for Active; 'I' for Inactive)
REMARK    1  A    between atoms: O_2  and  C_16
REMARK    2  A    between atoms: O_3  and  C_21
REMARK    3  A    between atoms: N_8  and  C_27
REMARK    4  A    between atoms: N_10  and  C_30
REMARK    5  A    between atoms: C_11  and  C_19
REMARK    6  A    between atoms: C_13  and  C_21
REMARK    7  A    between atoms: C_13  and  C_22
REMARK    8  A    between atoms: C_14  and  C_24
REMARK    9  A    between atoms: C_24  and  C_25
REMARK   10  A    between atoms: C_27  and  C_30
REMARK   11  A    between atoms: C_28  and  C_29
REMARK                            x       y       z     vdW  Elec       q    Type
REMARK                         _______ _______ _______ _____ _____    ______ ____
ROOT
ATOM      1  S   UNL     1      -0.534  -0.352  23.157  0.00  0.00    -0.057 S 
ATOM      5  O   UNL     1       3.540   1.905  23.454  0.00  0.00    -0.275 OA
ATOM      7  N   UNL     1       0.613   1.819  23.973  0.00  0.00    -0.229 NA
ATOM      9  N   UNL     1       2.023   0.174  22.916  0.00  0.00    -0.264 N 
ATOM     11  C   UNL     1      -2.886   3.185  24.844  0.00  0.00    -0.019 C 
ATOM     12  C   UNL     1      -3.458   1.735  25.169  0.00  0.00    +0.011 C 
ATOM     13  C   UNL     1      -4.996   1.630  25.501  0.00  0.00    +0.021 C 
ATOM     14  C   UNL     1      -1.294   3.128  24.977  0.00  0.00    +0.054 C 
ATOM     15  C   UNL     1      -3.428   4.199  25.884  0.00  0.00    +0.010 C 
ATOM     16  C   UNL     1      -5.378   2.742  26.519  0.00  0.00    +0.123 C 
ATOM     17  C   UNL     1      -2.967   0.683  24.132  0.00  0.00    +0.049 C 
ATOM     18  C   UNL     1      -4.935   4.134  26.082  0.00  0.00    +0.032 C 
ATOM     19  C   UNL     1      -3.267   3.677  23.426  0.00  0.00    +0.012 C 
ATOM     20  C   UNL     1      -0.734   1.922  24.268  0.00  0.00    +0.058 A 
ATOM     22  C   UNL     1      -5.276   0.262  26.185  0.00  0.00    +0.016 C 
ATOM     23  C   UNL     1      -1.498   0.829  23.915  0.00  0.00    +0.015 A 
ATOM     26  C   UNL     1       0.832   0.665  23.379  0.00  0.00    +0.165 A 
ATOM     28  C   UNL     1       3.276   0.805  22.978  0.00  0.00    +0.222 C 
ATOM     43  H   UNL     1       1.966  -0.749  22.494  0.00  0.00    +0.157 HD
ENDROOT
BRANCH  28  29
ATOM     29  C   UNL     1       4.356  -0.042  22.370  0.00  0.00    +0.075 C 
ATOM     31  C   UNL     1       5.742   0.432  22.814  0.00  0.00    +0.013 C 
ATOM     32  C   UNL     1       4.107  -1.519  22.684  0.00  0.00    +0.013 C 
ATOM     33  C   UNL     1       6.096   0.023  24.243  0.00  0.00    +0.001 C 
ATOM     34  C   UNL     1       4.465  -1.894  24.120  0.00  0.00    +0.001 C 
ATOM     35  C   UNL     1       5.885  -1.469  24.476  0.00  0.00    +0.000 C 
ENDBRANCH  28  29
BRANCH  16   2
ATOM      2  O   UNL     1      -6.787   2.758  26.742  0.00  0.00    -0.391 OA
ATOM     40  H   UNL     1      -7.049   3.678  26.912  0.00  0.00    +0.210 HD
ENDBRANCH  16   2
BRANCH  13  21
ATOM     21  C   UNL     1      -5.923   1.673  24.266  0.00  0.00    +0.165 C 
BRANCH  21   3
ATOM      3  O   UNL     1      -7.253   1.565  24.719  0.00  0.00    -0.394 OA
ATOM     41  H   UNL     1      -7.231   1.593  25.691  0.00  0.00    +0.209 HD
ENDBRANCH  21   3
ENDBRANCH  13  21
BRANCH  14  24
ATOM     24  C   UNL     1      -0.573   4.415  24.552  0.00  0.00    +0.106 C 
BRANCH  24  25
ATOM      4  O   UNL     1      -0.904   3.716  22.259  0.00  0.00    -0.276 OA
ATOM      8  N   UNL     1       0.501   5.509  22.720  0.00  0.00    -0.314 N 
ATOM     25  C   UNL     1      -0.367   4.481  23.056  0.00  0.00    +0.214 C 
ATOM     42  H   UNL     1       0.887   6.094  23.455  0.00  0.00    +0.149 HD
BRANCH   8  27
ATOM     27  C   UNL     1       0.884   5.806  21.358  0.00  0.00    +0.119 C 
BRANCH  27  30
ATOM     30  C   UNL     1       2.373   6.101  21.255  0.00  0.00    +0.103 C 
BRANCH  30  10
ATOM      6  O   UNL     1       4.471   5.210  17.731  0.00  0.00    -0.377 OA
ATOM     10  N   UNL     1       2.961   5.362  20.139  0.00  0.00    -0.297 NA
ATOM     36  C   UNL     1       2.415   5.833  18.858  0.00  0.00    +0.112 C 
ATOM     37  C   UNL     1       4.424   5.492  20.142  0.00  0.00    +0.112 C 
ATOM     38  C   UNL     1       3.051   5.057  17.709  0.00  0.00    +0.175 C 
ATOM     39  C   UNL     1       5.014   4.726  18.961  0.00  0.00    +0.175 C 
ENDBRANCH  30  10
ENDBRANCH  27  30
ENDBRANCH   8  27
ENDBRANCH  24  25
ENDBRANCH  14  24
TORSDOF 9
ENDMDL
MODEL 6
REMARK VINA RESULT:      11.8      1.412      2.632
REMARK  Name = 11882964
REMARK  11 active torsions:
REMARK  status: ('A' for Active; 'I' for Inactive)
REMARK    1  A    between atoms: O_2  and  C_16
REMARK    2  A    between atoms: O_3  and  C_21
REMARK    3  A    between atoms: N_8  and  C_27
REMARK    4  A    between atoms: N_10  and  C_30
REMARK    5  A    between atoms: C_11  and  C_19
REMARK    6  A    between atoms: C_13  and  C_21
REMARK    7  A    between atoms: C_13  and  C_22
REMARK    8  A    between atoms: C_14  and  C_24
REMARK    9  A    between atoms: C_24  and  C_25
REMARK   10  A    between atoms: C_27  and  C_30
REMARK   11  A    between atoms: C_28  and  C_29
REMARK                            x       y       z     vdW  Elec       q    Type
REMARK                         _______ _______ _______ _____ _____    ______ ____
ROOT
ATOM      1  S   UNL     1       0.929   2.953  23.247  0.00  0.00    -0.057 S 
ATOM      5  O   UNL     1       2.237  -1.475  23.924  0.00  0.00    -0.275 OA
ATOM      7  N   UNL     1       0.262   0.708  24.344  0.00  0.00    -0.229 NA
ATOM      9  N   UNL     1       2.353   0.754  23.147  0.00  0.00    -0.264 N 
ATOM     11  C   UNL     1      -2.740   2.528  25.939  0.00  0.00    -0.019 C 
ATOM     12  C   UNL     1      -2.869   3.548  24.722  0.00  0.00    +0.011 C 
ATOM     13  C   UNL     1      -3.936   4.701  24.865  0.00  0.00    +0.021 C 
ATOM     14  C   UNL     1      -1.959   1.235  25.418  0.00  0.00    +0.054 C 
ATOM     15  C   UNL     1      -4.155   2.093  26.399  0.00  0.00    +0.010 C 
ATOM     16  C   UNL     1      -5.275   4.100  25.376  0.00  0.00    +0.123 C 
ATOM     17  C   UNL     1      -1.472   4.041  24.243  0.00  0.00    +0.049 C 
ATOM     18  C   UNL     1      -5.112   3.253  26.633  0.00  0.00    +0.032 C 
ATOM     19  C   UNL     1      -1.988   3.131  27.150  0.00  0.00    +0.012 C 
ATOM     20  C   UNL     1      -0.735   1.623  24.628  0.00  0.00    +0.058 A 
ATOM     22  C   UNL     1      -4.210   5.315  23.462  0.00  0.00    +0.016 C 
ATOM     23  C   UNL     1      -0.546   2.881  24.094  0.00  0.00    +0.015 A 
ATOM     26  C   UNL     1       1.193   1.300  23.629  0.00  0.00    +0.165 A 
ATOM     28  C   UNL     1       2.797  -0.567  23.318  0.00  0.00    +0.222 C 
ATOM     43  H   UNL     1       2.931   1.394  22.608  0.00  0.00    +0.157 HD
ENDROOT
BRANCH  28  29
ATOM     29  C   UNL     1       4.118  -0.802  22.643  0.00  0.00    +0.075 C 
ATOM     31  C   UNL     1       4.776   0.522  22.248  0.00  0.00    +0.013 C 
ATOM     32  C   UNL     1       5.016  -1.668  23.529  0.00  0.00    +0.013 C 
ATOM     33  C   UNL     1       5.403   1.266  23.427  0.00  0.00    +0.001 C 
ATOM     34  C   UNL     1       5.623  -0.897  24.700  0.00  0.00    +0.001 C 
ATOM     35  C   UNL     1       6.334   0.367  24.234  0.00  0.00    +0.000 C 
ENDBRANCH  28  29
BRANCH  16   2
ATOM      2  O   UNL     1      -6.222   5.134  25.640  0.00  0.00    -0.391 OA
ATOM     40  H   UNL     1      -5.765   5.833  26.137  0.00  0.00    +0.210 HD
ENDBRANCH  16   2
BRANCH  13  21
ATOM     21  C   UNL     1      -3.488   5.882  25.753  0.00  0.00    +0.165 C 
BRANCH  21   3
ATOM      3  O   UNL     1      -2.153   6.192  25.420  0.00  0.00    -0.394 OA
ATOM     41  H   UNL     1      -1.688   6.396  26.249  0.00  0.00    +0.209 HD
ENDBRANCH  21   3
ENDBRANCH  13  21
BRANCH  14  24
ATOM     24  C   UNL     1      -1.621   0.211  26.510  0.00  0.00    +0.106 C 
BRANCH  24  25
ATOM      4  O   UNL     1      -0.716  -1.894  25.733  0.00  0.00    -0.276 OA
ATOM      8  N   UNL     1      -3.019  -1.619  25.874  0.00  0.00    -0.314 N 
ATOM     25  C   UNL     1      -1.700  -1.209  25.999  0.00  0.00    +0.214 C 
ATOM     42  H   UNL     1      -3.765  -0.978  26.130  0.00  0.00    +0.149 HD
BRANCH   8  27
ATOM     27  C   UNL     1      -3.397  -2.932  25.405  0.00  0.00    +0.119 C 
BRANCH  27  30
ATOM     30  C   UNL     1      -3.698  -2.919  23.914  0.00  0.00    +0.103 C 
BRANCH  30  10
ATOM      6  O   UNL     1      -4.308   1.231  23.764  0.00  0.00    -0.377 OA
ATOM     10  N   UNL     1      -4.178  -1.601  23.504  0.00  0.00    -0.297 NA
ATOM     36  C   UNL     1      -4.937  -0.962  24.588  0.00  0.00    +0.112 C 
ATOM     37  C   UNL     1      -3.058  -0.741  23.098  0.00  0.00    +0.112 C 
ATOM     38  C   UNL     1      -5.418   0.416  24.142  0.00  0.00    +0.175 C 
ATOM     39  C   UNL     1      -3.582   0.633  22.688  0.00  0.00    +0.175 C 
ENDBRANCH  30  10
ENDBRANCH  27  30
ENDBRANCH   8  27
ENDBRANCH  24  25
ENDBRANCH  14  24
TORSDOF 9
ENDMDL
