MODEL 1
REMARK VINA RESULT:       2.2      0.000      0.000
REMARK  Name = 51137522
REMARK  7 active torsions:
REMARK  status: ('A' for Active; 'I' for Inactive)
REMARK    1  A    between atoms: N_3  and  C_11
REMARK    2  A    between atoms: N_6  and  C_23
REMARK    3  A    between atoms: N_6  and  C_26
REMARK    4  A    between atoms: N_6  and  C_27
REMARK    5  A    between atoms: C_7  and  C_12
REMARK    6  A    between atoms: C_11  and  C_13
REMARK    7  A    between atoms: C_14  and  C_17
REMARK                            x       y       z     vdW  Elec       q    Type
REMARK                         _______ _______ _______ _____ _____    ______ ____
ROOT
ATOM      2  O   UNL     1      -2.655   0.348  24.242  0.00  0.00    -0.420 OA
ATOM      4  N   UNL     1      -3.592  -1.626  24.716  0.00  0.00    -0.112 NA
ATOM      5  N   UNL     1      -2.246  -1.836  24.489  0.00  0.00    -0.107 NA
ATOM     12  C   UNL     1      -3.786  -0.337  24.561  0.00  0.00    +0.222 A 
ATOM     14  C   UNL     1      -1.738  -0.657  24.215  0.00  0.00    +0.248 A 
ENDROOT
BRANCH  14  17
ATOM     17  C   UNL     1      -0.393  -0.273  23.900  0.00  0.00    +0.039 A 
ATOM     21  C   UNL     1       0.491  -1.206  23.357  0.00  0.00    +0.015 A 
ATOM     22  C   UNL     1       0.031   1.034  24.137  0.00  0.00    +0.015 A 
ATOM     23  C   UNL     1       2.224   0.476  23.287  0.00  0.00    +0.029 A 
ATOM     24  C   UNL     1       1.798  -0.832  23.050  0.00  0.00    +0.024 A 
ATOM     25  C   UNL     1       1.339   1.409  23.830  0.00  0.00    +0.024 A 
BRANCH  23   6
ATOM      6  N   UNL     1       3.546   0.854  22.978  0.00  0.00    -0.336 N 
ATOM     26  C   UNL     1       3.814   2.120  22.323  0.00  0.00    +0.129 C 
ATOM     27  C   UNL     1       4.656  -0.015  23.316  0.00  0.00    +0.129 C 
ENDBRANCH  23   6
ENDBRANCH  14  17
BRANCH  12   7
ATOM      3  N   UNL     1      -5.880   2.590  25.248  0.00  0.00    -0.297 NA
ATOM      7  C   UNL     1      -5.060   0.466  24.686  0.00  0.00    +0.092 C 
ATOM      8  C   UNL     1      -5.727   0.411  26.072  0.00  0.00    +0.029 C 
ATOM      9  C   UNL     1      -4.853   1.963  24.415  0.00  0.00    +0.097 C 
ATOM     10  C   UNL     1      -5.833   1.863  26.517  0.00  0.00    +0.085 C 
BRANCH   3  11
ATOM     11  C   UNL     1      -5.660   4.019  25.419  0.00  0.00    +0.119 C 
BRANCH  11  13
ATOM      1 CL   UNL     1       0.127   5.494  24.694  0.00  0.00    -0.084 Cl
ATOM     13  C   UNL     1      -4.211   4.389  25.237  0.00  0.00    -0.033 A 
ATOM     15  C   UNL     1      -3.262   3.968  26.170  0.00  0.00    +0.006 A 
ATOM     16  C   UNL     1      -3.819   5.152  24.138  0.00  0.00    +0.006 A 
ATOM     18  C   UNL     1      -1.921   4.312  26.002  0.00  0.00    +0.020 A 
ATOM     19  C   UNL     1      -2.477   5.495  23.970  0.00  0.00    +0.020 A 
ATOM     20  C   UNL     1      -1.528   5.075  24.902  0.00  0.00    +0.041 A 
ENDBRANCH  11  13
ENDBRANCH   3  11
ENDBRANCH  12   7
TORSDOF 5
ENDMDL
