MODEL 1
REMARK VINA RESULT:      -2.6      0.000      0.000
REMARK  Name = 28962883
REMARK  10 active torsions:
REMARK  status: ('A' for Active; 'I' for Inactive)
REMARK    1  A    between atoms: O_1  and  C_9
REMARK    2  A    between atoms: N_4  and  C_13
REMARK    3  A    between atoms: N_5  and  C_21
REMARK    4  A    between atoms: C_6  and  C_16
REMARK    5  A    between atoms: C_8  and  C_18
REMARK    6  A    between atoms: C_11  and  C_17
REMARK    7  A    between atoms: C_17  and  C_19
REMARK    8  A    between atoms: C_17  and  C_20
REMARK    9  A    between atoms: C_22  and  C_25
REMARK   10  A    between atoms: C_25  and  C_26
REMARK                            x       y       z     vdW  Elec       q    Type
REMARK                         _______ _______ _______ _____ _____    ______ ____
ROOT
ATOM      6  C   UNL     1      -2.169  -0.782  25.354  0.00  0.00    -0.027 C 
ATOM      7  C   UNL     1      -2.351   0.271  24.211  0.00  0.00    +0.028 C 
ATOM      8  C   UNL     1      -0.960   0.823  23.733  0.00  0.00    +0.012 C 
ATOM      9  C   UNL     1      -3.400   1.352  24.602  0.00  0.00    +0.122 C 
ATOM     10  C   UNL     1      -3.545  -1.387  25.722  0.00  0.00    +0.007 C 
ATOM     11  C   UNL     1      -4.741   0.738  25.069  0.00  0.00    +0.029 C 
ATOM     12  C   UNL     1      -1.271  -1.932  24.841  0.00  0.00    +0.009 C 
ATOM     13  C   UNL     1      -0.039  -0.349  23.291  0.00  0.00    +0.076 C 
ATOM     14  C   UNL     1      -4.563  -0.336  26.143  0.00  0.00    +0.007 C 
ATOM     15  C   UNL     1       0.084  -1.454  24.339  0.00  0.00    +0.023 C 
ATOM     16  C   UNL     1      -1.536  -0.171  26.630  0.00  0.00    +0.011 C 
ATOM     18  C   UNL     1      -1.063   1.846  22.589  0.00  0.00    +0.010 C 
ENDROOT
BRANCH  13   4
ATOM      3  O   UNL     1       1.320  -0.695  20.777  0.00  0.00    -0.275 OA
ATOM      4  N   UNL     1       1.291   0.113  22.954  0.00  0.00    -0.312 N 
ATOM     22  C   UNL     1       1.861  -0.104  21.709  0.00  0.00    +0.218 C 
ATOM     32  H   UNL     1       1.837   0.556  23.688  0.00  0.00    +0.149 HD
BRANCH  22  25
ATOM     25  C   UNL     1       3.254   0.489  21.628  0.00  0.00    +0.130 C 
BRANCH  25  26
ATOM     26  C   UNL     1       4.165   0.029  22.736  0.00  0.00    -0.039 A 
ATOM     27  C   UNL     1       5.061   0.924  23.320  0.00  0.00    +0.004 A 
ATOM     28  C   UNL     1       4.112  -1.293  23.178  0.00  0.00    +0.004 A 
ATOM     29  C   UNL     1       5.904   0.498  24.346  0.00  0.00    +0.000 A 
ATOM     30  C   UNL     1       4.954  -1.719  24.204  0.00  0.00    +0.000 A 
ATOM     31  C   UNL     1       5.850  -0.824  24.788  0.00  0.00    +0.000 A 
ENDBRANCH  25  26
ENDBRANCH  22  25
ENDBRANCH  13   4
BRANCH   9   1
ATOM      1  O   UNL     1      -3.697   2.162  23.465  0.00  0.00    -0.391 OA
ATOM     33  H   UNL     1      -3.608   3.094  23.726  0.00  0.00    +0.210 HD
ENDBRANCH   9   1
BRANCH  11  17
ATOM     17  C   UNL     1      -5.713   1.810  25.573  0.00  0.00    +0.077 C 
ATOM     19  C   UNL     1      -6.935   1.881  24.664  0.00  0.00    +0.017 C 
BRANCH  17  20
ATOM      2  O   UNL     1      -5.553   4.218  25.359  0.00  0.00    -0.276 OA
ATOM      5  N   UNL     1      -3.693   3.044  26.094  0.00  0.00    -0.312 N 
ATOM     20  C   UNL     1      -5.004   3.159  25.656  0.00  0.00    +0.216 C 
ATOM     34  H   UNL     1      -3.311   2.128  26.316  0.00  0.00    +0.149 HD
BRANCH   5  21
ATOM     21  C   UNL     1      -2.818   4.183  26.250  0.00  0.00    +0.073 C 
ATOM     23  C   UNL     1      -2.323   4.951  25.060  0.00  0.00    +0.024 C 
ATOM     24  C   UNL     1      -1.371   4.111  25.860  0.00  0.00    +0.024 C 
ENDBRANCH   5  21
ENDBRANCH  17  20
ENDBRANCH  11  17
TORSDOF 7
ENDMDL
