MODEL 1
REMARK VINA RESULT:      -0.4      0.000      0.000
REMARK  Name = 38030644
REMARK  11 active torsions:
REMARK  status: ('A' for Active; 'I' for Inactive)
REMARK    1  A    between atoms: O_1  and  C_21
REMARK    2  A    between atoms: N_3  and  C_11
REMARK    3  A    between atoms: C_6  and  C_10
REMARK    4  A    between atoms: C_7  and  C_11
REMARK    5  A    between atoms: C_9  and  C_14
REMARK    6  A    between atoms: C_10  and  C_17
REMARK    7  A    between atoms: C_10  and  C_18
REMARK    8  A    between atoms: C_13  and  C_22
REMARK    9  A    between atoms: C_14  and  C_23
REMARK   10  A    between atoms: C_24  and  C_25
REMARK   11  A    between atoms: C_30  and  C_31
REMARK                            x       y       z     vdW  Elec       q    Type
REMARK                         _______ _______ _______ _____ _____    ______ ____
ROOT
ATOM      6  C   UNL     1      -3.133   2.984  23.521  0.00  0.00    +0.000 C 
ATOM      7  C   UNL     1      -2.057   2.606  24.568  0.00  0.00    +0.029 C 
ATOM      8  C   UNL     1      -3.540   4.457  23.677  0.00  0.00    +0.012 C 
ATOM      9  C   UNL     1      -4.097   4.761  25.081  0.00  0.00    +0.024 C 
ATOM     12  C   UNL     1      -2.306   3.228  25.923  0.00  0.00    -0.023 C 
ATOM     13  C   UNL     1      -3.222   4.181  26.173  0.00  0.00    -0.073 C 
ATOM     22  C   UNL     1      -3.391   4.753  27.553  0.00  0.00    +0.039 C 
ENDROOT
BRANCH   6  10
ATOM     10  C   UNL     1      -2.647   2.731  22.090  0.00  0.00    -0.013 C 
ATOM     17  C   UNL     1      -2.431   1.239  21.857  0.00  0.00    +0.007 C 
ATOM     18  C   UNL     1      -3.643   3.296  21.082  0.00  0.00    +0.007 C 
ENDBRANCH   6  10
BRANCH   7  11
ATOM     11  C   UNL     1      -1.941   1.085  24.719  0.00  0.00    +0.092 C 
BRANCH  11   3
ATOM      3  N   UNL     1      -0.647   0.717  25.288  0.00  0.00    -0.302 NA
ATOM     15  C   UNL     1      -0.273  -0.667  24.967  0.00  0.00    +0.087 C 
ATOM     16  C   UNL     1       0.415   1.659  24.909  0.00  0.00    +0.087 C 
ATOM     19  C   UNL     1       0.161  -0.876  23.515  0.00  0.00    +0.046 C 
ATOM     20  C   UNL     1       0.873   1.531  23.455  0.00  0.00    +0.046 C 
ATOM     21  C   UNL     1       1.272   0.094  23.125  0.00  0.00    +0.117 C 
BRANCH  21   1
ATOM      1  O   UNL     1       1.528  -0.030  21.732  0.00  0.00    -0.392 OA
ATOM     32  H   UNL     1       1.690  -0.971  21.546  0.00  0.00    +0.210 HD
ENDBRANCH  21   1
ENDBRANCH  11   3
ENDBRANCH   7  11
BRANCH   9  14
ATOM     14  C   UNL     1      -5.543   4.270  25.219  0.00  0.00    +0.105 C 
BRANCH  14  23
ATOM      2  O   UNL     1      -4.871   1.934  25.012  0.00  0.00    -0.420 OA
ATOM      4  N   UNL     1      -6.248   2.341  26.726  0.00  0.00    -0.112 NA
ATOM      5  N   UNL     1      -5.952   0.991  26.728  0.00  0.00    -0.107 NA
ATOM     23  C   UNL     1      -5.596   2.851  25.708  0.00  0.00    +0.218 A 
ATOM     24  C   UNL     1      -5.145   0.798  25.712  0.00  0.00    +0.248 A 
BRANCH  24  25
ATOM     25  C   UNL     1      -4.521  -0.401  25.233  0.00  0.00    +0.038 A 
ATOM     26  C   UNL     1      -3.750  -1.179  26.096  0.00  0.00    +0.013 A 
ATOM     27  C   UNL     1      -4.685  -0.790  23.903  0.00  0.00    +0.013 A 
ATOM     28  C   UNL     1      -3.144  -2.346  25.630  0.00  0.00    +0.004 A 
ATOM     29  C   UNL     1      -4.079  -1.956  23.436  0.00  0.00    +0.004 A 
ATOM     30  C   UNL     1      -3.308  -2.734  24.300  0.00  0.00    -0.050 A 
ATOM     31  C   UNL     1      -2.659  -3.980  23.802  0.00  0.00    +0.044 C 
ENDBRANCH  24  25
ENDBRANCH  14  23
ENDBRANCH   9  14
TORSDOF 7
ENDMDL
MODEL 2
REMARK VINA RESULT:       0.8      2.070      4.936
REMARK  Name = 38030644
REMARK  11 active torsions:
REMARK  status: ('A' for Active; 'I' for Inactive)
REMARK    1  A    between atoms: O_1  and  C_21
REMARK    2  A    between atoms: N_3  and  C_11
REMARK    3  A    between atoms: C_6  and  C_10
REMARK    4  A    between atoms: C_7  and  C_11
REMARK    5  A    between atoms: C_9  and  C_14
REMARK    6  A    between atoms: C_10  and  C_17
REMARK    7  A    between atoms: C_10  and  C_18
REMARK    8  A    between atoms: C_13  and  C_22
REMARK    9  A    between atoms: C_14  and  C_23
REMARK   10  A    between atoms: C_24  and  C_25
REMARK   11  A    between atoms: C_30  and  C_31
REMARK                            x       y       z     vdW  Elec       q    Type
REMARK                         _______ _______ _______ _____ _____    ______ ____
ROOT
ATOM      6  C   UNL     1      -3.954   1.778  23.754  0.00  0.00    +0.000 C 
ATOM      7  C   UNL     1      -4.903   2.914  24.210  0.00  0.00    +0.029 C 
ATOM      8  C   UNL     1      -4.633   0.411  23.923  0.00  0.00    +0.012 C 
ATOM      9  C   UNL     1      -5.049   0.144  25.382  0.00  0.00    +0.024 C 
ATOM     12  C   UNL     1      -5.696   2.561  25.447  0.00  0.00    -0.023 C 
ATOM     13  C   UNL     1      -5.762   1.333  25.992  0.00  0.00    -0.073 C 
ATOM     22  C   UNL     1      -6.590   1.071  27.219  0.00  0.00    +0.039 C 
ENDROOT
BRANCH   6  10
ATOM     10  C   UNL     1      -3.508   1.958  22.300  0.00  0.00    -0.013 C 
ATOM     17  C   UNL     1      -3.792   3.381  21.828  0.00  0.00    +0.007 C 
ATOM     18  C   UNL     1      -2.028   1.625  22.152  0.00  0.00    +0.007 C 
ENDBRANCH   6  10
BRANCH   7  11
ATOM     11  C   UNL     1      -4.132   4.216  24.452  0.00  0.00    +0.092 C 
BRANCH  11   3
ATOM      3  N   UNL     1      -3.279   4.101  25.633  0.00  0.00    -0.302 NA
ATOM     15  C   UNL     1      -2.288   3.026  25.499  0.00  0.00    +0.087 C 
ATOM     16  C   UNL     1      -2.639   5.377  25.982  0.00  0.00    +0.087 C 
ATOM     19  C   UNL     1      -1.139   3.350  24.542  0.00  0.00    +0.046 C 
ATOM     20  C   UNL     1      -1.503   5.784  25.041  0.00  0.00    +0.046 C 
ATOM     21  C   UNL     1      -0.467   4.669  24.911  0.00  0.00    +0.117 C 
BRANCH  21   1
ATOM      1  O   UNL     1       0.481   5.003  23.905  0.00  0.00    -0.392 OA
ATOM     32  H   UNL     1       0.112   4.723  23.050  0.00  0.00    +0.210 HD
ENDBRANCH  21   1
ENDBRANCH  11   3
ENDBRANCH   7  11
BRANCH   9  14
ATOM     14  C   UNL     1      -3.843  -0.268  26.233  0.00  0.00    +0.105 C 
BRANCH  14  23
ATOM      2  O   UNL     1      -1.698  -0.059  25.089  0.00  0.00    -0.420 OA
ATOM      4  N   UNL     1      -2.654  -2.070  24.881  0.00  0.00    -0.112 NA
ATOM      5  N   UNL     1      -1.458  -2.092  24.189  0.00  0.00    -0.107 NA
ATOM     23  C   UNL     1      -2.754  -0.864  25.389  0.00  0.00    +0.218 A 
ATOM     24  C   UNL     1      -0.933  -0.899  24.338  0.00  0.00    +0.248 A 
BRANCH  24  25
ATOM     25  C   UNL     1       0.296  -0.353  23.841  0.00  0.00    +0.038 A 
ATOM     26  C   UNL     1       1.056  -1.073  22.919  0.00  0.00    +0.013 A 
ATOM     27  C   UNL     1       0.732   0.898  24.279  0.00  0.00    +0.013 A 
ATOM     28  C   UNL     1       2.251  -0.541  22.435  0.00  0.00    +0.004 A 
ATOM     29  C   UNL     1       1.927   1.429  23.796  0.00  0.00    +0.004 A 
ATOM     30  C   UNL     1       2.687   0.710  22.873  0.00  0.00    -0.050 A 
ATOM     31  C   UNL     1       3.965   1.276  22.356  0.00  0.00    +0.044 C 
ENDBRANCH  24  25
ENDBRANCH  14  23
ENDBRANCH   9  14
TORSDOF 7
ENDMDL
MODEL 3
REMARK VINA RESULT:       1.7      2.566      6.314
REMARK  Name = 38030644
REMARK  11 active torsions:
REMARK  status: ('A' for Active; 'I' for Inactive)
REMARK    1  A    between atoms: O_1  and  C_21
REMARK    2  A    between atoms: N_3  and  C_11
REMARK    3  A    between atoms: C_6  and  C_10
REMARK    4  A    between atoms: C_7  and  C_11
REMARK    5  A    between atoms: C_9  and  C_14
REMARK    6  A    between atoms: C_10  and  C_17
REMARK    7  A    between atoms: C_10  and  C_18
REMARK    8  A    between atoms: C_13  and  C_22
REMARK    9  A    between atoms: C_14  and  C_23
REMARK   10  A    between atoms: C_24  and  C_25
REMARK   11  A    between atoms: C_30  and  C_31
REMARK                            x       y       z     vdW  Elec       q    Type
REMARK                         _______ _______ _______ _____ _____    ______ ____
ROOT
ATOM      6  C   UNL     1      -3.279   1.474  23.491  0.00  0.00    +0.000 C 
ATOM      7  C   UNL     1      -4.547   1.597  24.372  0.00  0.00    +0.029 C 
ATOM      8  C   UNL     1      -2.975  -0.001  23.189  0.00  0.00    +0.012 C 
ATOM      9  C   UNL     1      -2.759  -0.824  24.473  0.00  0.00    +0.024 C 
ATOM     12  C   UNL     1      -4.631   0.528  25.438  0.00  0.00    -0.023 C 
ATOM     13  C   UNL     1      -3.833  -0.552  25.506  0.00  0.00    -0.073 C 
ATOM     22  C   UNL     1      -4.000  -1.574  26.597  0.00  0.00    +0.039 C 
ENDROOT
BRANCH   6  10
ATOM     10  C   UNL     1      -3.422   2.252  22.178  0.00  0.00    -0.013 C 
ATOM     17  C   UNL     1      -3.805   3.702  22.458  0.00  0.00    +0.007 C 
ATOM     18  C   UNL     1      -2.129   2.180  21.374  0.00  0.00    +0.007 C 
ENDBRANCH   6  10
BRANCH   7  11
ATOM     11  C   UNL     1      -4.633   2.979  25.029  0.00  0.00    +0.092 C 
BRANCH  11   3
ATOM      3  N   UNL     1      -3.716   3.073  26.162  0.00  0.00    -0.302 NA
ATOM     15  C   UNL     1      -2.418   2.448  25.878  0.00  0.00    +0.087 C 
ATOM     16  C   UNL     1      -3.551   4.456  26.630  0.00  0.00    +0.087 C 
ATOM     19  C   UNL     1      -1.530   3.252  24.928  0.00  0.00    +0.046 C 
ATOM     20  C   UNL     1      -2.704   5.332  25.705  0.00  0.00    +0.046 C 
ATOM     21  C   UNL     1      -1.349   4.686  25.419  0.00  0.00    +0.117 C 
BRANCH  21   1
ATOM      1  O   UNL     1      -0.655   5.432  24.428  0.00  0.00    -0.392 OA
ATOM     32  H   UNL     1      -0.165   6.139  24.882  0.00  0.00    +0.210 HD
ENDBRANCH  21   1
ENDBRANCH  11   3
ENDBRANCH   7  11
BRANCH   9  14
ATOM     14  C   UNL     1      -1.363  -0.580  25.057  0.00  0.00    +0.105 C 
BRANCH  14  23
ATOM      2  O   UNL     1       0.976  -0.445  24.374  0.00  0.00    -0.420 OA
ATOM      4  N   UNL     1      -0.477  -0.430  22.673  0.00  0.00    -0.112 NA
ATOM      5  N   UNL     1       0.798  -0.348  22.146  0.00  0.00    -0.107 NA
ATOM     23  C   UNL     1      -0.325  -0.484  23.975  0.00  0.00    +0.218 A 
ATOM     24  C   UNL     1       1.614  -0.361  23.174  0.00  0.00    +0.248 A 
BRANCH  24  25
ATOM     25  C   UNL     1       3.046  -0.299  23.227  0.00  0.00    +0.038 A 
ATOM     26  C   UNL     1       3.714   0.823  22.738  0.00  0.00    +0.013 A 
ATOM     27  C   UNL     1       3.770  -1.361  23.768  0.00  0.00    +0.013 A 
ATOM     28  C   UNL     1       5.107   0.883  22.791  0.00  0.00    +0.004 A 
ATOM     29  C   UNL     1       5.163  -1.303  23.820  0.00  0.00    +0.004 A 
ATOM     30  C   UNL     1       5.831  -0.180  23.331  0.00  0.00    -0.050 A 
ATOM     31  C   UNL     1       7.320  -0.116  23.386  0.00  0.00    +0.044 C 
ENDBRANCH  24  25
ENDBRANCH  14  23
ENDBRANCH   9  14
TORSDOF 7
ENDMDL
MODEL 4
REMARK VINA RESULT:       2.2      1.526      2.045
REMARK  Name = 38030644
REMARK  11 active torsions:
REMARK  status: ('A' for Active; 'I' for Inactive)
REMARK    1  A    between atoms: O_1  and  C_21
REMARK    2  A    between atoms: N_3  and  C_11
REMARK    3  A    between atoms: C_6  and  C_10
REMARK    4  A    between atoms: C_7  and  C_11
REMARK    5  A    between atoms: C_9  and  C_14
REMARK    6  A    between atoms: C_10  and  C_17
REMARK    7  A    between atoms: C_10  and  C_18
REMARK    8  A    between atoms: C_13  and  C_22
REMARK    9  A    between atoms: C_14  and  C_23
REMARK   10  A    between atoms: C_24  and  C_25
REMARK   11  A    between atoms: C_30  and  C_31
REMARK                            x       y       z     vdW  Elec       q    Type
REMARK                         _______ _______ _______ _____ _____    ______ ____
ROOT
ATOM      6  C   UNL     1      -2.987   3.105  23.307  0.00  0.00    +0.000 C 
ATOM      7  C   UNL     1      -1.476   2.848  23.086  0.00  0.00    +0.029 C 
ATOM      8  C   UNL     1      -3.238   4.587  23.625  0.00  0.00    +0.012 C 
ATOM      9  C   UNL     1      -2.475   5.050  24.880  0.00  0.00    +0.024 C 
ATOM     12  C   UNL     1      -0.599   3.622  24.043  0.00  0.00    -0.023 C 
ATOM     13  C   UNL     1      -1.030   4.599  24.861  0.00  0.00    -0.073 C 
ATOM     22  C   UNL     1      -0.080   5.325  25.771  0.00  0.00    +0.039 C 
ENDROOT
BRANCH   6  10
ATOM     10  C   UNL     1      -3.819   2.689  22.090  0.00  0.00    -0.013 C 
ATOM     17  C   UNL     1      -4.467   3.910  21.445  0.00  0.00    +0.007 C 
ATOM     18  C   UNL     1      -2.952   1.941  21.083  0.00  0.00    +0.007 C 
ENDBRANCH   6  10
BRANCH   7  11
ATOM     11  C   UNL     1      -1.148   1.354  23.188  0.00  0.00    +0.092 C 
BRANCH  11   3
ATOM      3  N   UNL     1       0.056   1.140  23.987  0.00  0.00    -0.302 NA
ATOM     15  C   UNL     1      -0.252   0.928  25.408  0.00  0.00    +0.087 C 
ATOM     16  C   UNL     1       0.891   0.056  23.454  0.00  0.00    +0.087 C 
ATOM     19  C   UNL     1      -0.857  -0.442  25.719  0.00  0.00    +0.046 C 
ATOM     20  C   UNL     1       0.326  -1.345  23.696  0.00  0.00    +0.046 C 
ATOM     21  C   UNL     1       0.017  -1.569  25.175  0.00  0.00    +0.117 C 
BRANCH  21   1
ATOM      1  O   UNL     1      -0.663  -2.806  25.346  0.00  0.00    -0.392 OA
ATOM     32  H   UNL     1      -0.201  -3.471  24.808  0.00  0.00    +0.210 HD
ENDBRANCH  21   1
ENDBRANCH  11   3
ENDBRANCH   7  11
BRANCH   9  14
ATOM     14  C   UNL     1      -3.179   4.581  26.159  0.00  0.00    +0.105 C 
BRANCH  14  23
ATOM      2  O   UNL     1      -3.499   2.229  25.594  0.00  0.00    -0.420 OA
ATOM      4  N   UNL     1      -5.402   3.366  25.889  0.00  0.00    -0.112 NA
ATOM      5  N   UNL     1      -5.729   2.060  25.576  0.00  0.00    -0.107 NA
ATOM     23  C   UNL     1      -4.091   3.419  25.888  0.00  0.00    +0.218 A 
ATOM     24  C   UNL     1      -4.588   1.432  25.413  0.00  0.00    +0.248 A 
BRANCH  24  25
ATOM     25  C   UNL     1      -4.317   0.064  25.079  0.00  0.00    +0.038 A 
ATOM     26  C   UNL     1      -3.871  -0.818  26.063  0.00  0.00    +0.013 A 
ATOM     27  C   UNL     1      -4.501  -0.384  23.771  0.00  0.00    +0.013 A 
ATOM     28  C   UNL     1      -3.608  -2.149  25.738  0.00  0.00    +0.004 A 
ATOM     29  C   UNL     1      -4.237  -1.714  23.445  0.00  0.00    +0.004 A 
ATOM     30  C   UNL     1      -3.791  -2.597  24.429  0.00  0.00    -0.050 A 
ATOM     31  C   UNL     1      -3.509  -4.019  24.082  0.00  0.00    +0.044 C 
ENDBRANCH  24  25
ENDBRANCH  14  23
ENDBRANCH   9  14
TORSDOF 7
ENDMDL
MODEL 5
REMARK VINA RESULT:       3.3      1.420      1.837
REMARK  Name = 38030644
REMARK  11 active torsions:
REMARK  status: ('A' for Active; 'I' for Inactive)
REMARK    1  A    between atoms: O_1  and  C_21
REMARK    2  A    between atoms: N_3  and  C_11
REMARK    3  A    between atoms: C_6  and  C_10
REMARK    4  A    between atoms: C_7  and  C_11
REMARK    5  A    between atoms: C_9  and  C_14
REMARK    6  A    between atoms: C_10  and  C_17
REMARK    7  A    between atoms: C_10  and  C_18
REMARK    8  A    between atoms: C_13  and  C_22
REMARK    9  A    between atoms: C_14  and  C_23
REMARK   10  A    between atoms: C_24  and  C_25
REMARK   11  A    between atoms: C_30  and  C_31
REMARK                            x       y       z     vdW  Elec       q    Type
REMARK                         _______ _______ _______ _____ _____    ______ ____
ROOT
ATOM      6  C   UNL     1      -3.568   3.375  23.048  0.00  0.00    +0.000 C 
ATOM      7  C   UNL     1      -2.381   2.860  23.898  0.00  0.00    +0.029 C 
ATOM      8  C   UNL     1      -3.988   4.780  23.507  0.00  0.00    +0.012 C 
ATOM      9  C   UNL     1      -4.402   4.807  24.990  0.00  0.00    +0.024 C 
ATOM     12  C   UNL     1      -2.501   3.222  25.361  0.00  0.00    -0.023 C 
ATOM     13  C   UNL     1      -3.406   4.079  25.868  0.00  0.00    -0.073 C 
ATOM     22  C   UNL     1      -3.442   4.390  27.338  0.00  0.00    +0.039 C 
ENDROOT
BRANCH   6  10
ATOM     10  C   UNL     1      -3.230   3.399  21.553  0.00  0.00    -0.013 C 
ATOM     17  C   UNL     1      -2.724   2.033  21.101  0.00  0.00    +0.007 C 
ATOM     18  C   UNL     1      -4.446   3.823  20.739  0.00  0.00    +0.007 C 
ENDBRANCH   6  10
BRANCH   7  11
ATOM     11  C   UNL     1      -2.218   1.342  23.760  0.00  0.00    +0.092 C 
BRANCH  11   3
ATOM      3  N   UNL     1      -0.806   0.970  23.765  0.00  0.00    -0.302 NA
ATOM     15  C   UNL     1       0.077   2.141  23.839  0.00  0.00    +0.087 C 
ATOM     16  C   UNL     1      -0.492  -0.003  24.820  0.00  0.00    +0.087 C 
ATOM     19  C   UNL     1       0.116   2.809  25.214  0.00  0.00    +0.046 C 
ATOM     20  C   UNL     1      -0.473   0.589  26.230  0.00  0.00    +0.046 C 
ATOM     21  C   UNL     1       0.453   1.801  26.310  0.00  0.00    +0.117 C 
BRANCH  21   1
ATOM      1  O   UNL     1       0.320   2.432  27.577  0.00  0.00    -0.392 OA
ATOM     32  H   UNL     1      -0.323   1.917  28.094  0.00  0.00    +0.210 HD
ENDBRANCH  21   1
ENDBRANCH  11   3
ENDBRANCH   7  11
BRANCH   9  14
ATOM     14  C   UNL     1      -5.815   4.243  25.179  0.00  0.00    +0.105 C 
BRANCH  14  23
ATOM      2  O   UNL     1      -5.017   1.945  25.001  0.00  0.00    -0.420 OA
ATOM      4  N   UNL     1      -6.378   2.308  26.737  0.00  0.00    -0.112 NA
ATOM      5  N   UNL     1      -6.007   0.977  26.758  0.00  0.00    -0.107 NA
ATOM     23  C   UNL     1      -5.778   2.833  25.696  0.00  0.00    +0.218 A 
ATOM     24  C   UNL     1      -5.212   0.809  25.727  0.00  0.00    +0.248 A 
BRANCH  24  25
ATOM     25  C   UNL     1      -4.531  -0.362  25.256  0.00  0.00    +0.038 A 
ATOM     26  C   UNL     1      -3.704  -1.082  26.118  0.00  0.00    +0.013 A 
ATOM     27  C   UNL     1      -4.697  -0.782  23.937  0.00  0.00    +0.013 A 
ATOM     28  C   UNL     1      -3.043  -2.221  25.660  0.00  0.00    +0.004 A 
ATOM     29  C   UNL     1      -4.036  -1.921  23.478  0.00  0.00    +0.004 A 
ATOM     30  C   UNL     1      -3.208  -2.641  24.340  0.00  0.00    -0.050 A 
ATOM     31  C   UNL     1      -2.501  -3.859  23.851  0.00  0.00    +0.044 C 
ENDBRANCH  24  25
ENDBRANCH  14  23
ENDBRANCH   9  14
TORSDOF 7
ENDMDL
