MODEL 1
REMARK VINA RESULT:       3.5      0.000      0.000
REMARK  Name = 26743822
REMARK  8 active torsions:
REMARK  status: ('A' for Active; 'I' for Inactive)
REMARK    1  A    between atoms: S_1  and  C_22
REMARK    2  A    between atoms: S_1  and  C_26
REMARK    3  A    between atoms: O_3  and  C_12
REMARK    4  A    between atoms: N_7  and  C_14
REMARK    5  A    between atoms: C_10  and  C_15
REMARK    6  A    between atoms: C_14  and  C_16
REMARK    7  A    between atoms: C_19  and  C_23
REMARK    8  A    between atoms: C_29  and  C_30
REMARK                            x       y       z     vdW  Elec       q    Type
REMARK                         _______ _______ _______ _____ _____    ______ ____
ROOT
ATOM      7  N   UNL     1      -5.369   2.414  25.499  0.00  0.00    -0.285 NA
ATOM     10  C   UNL     1      -4.529   3.037  24.455  0.00  0.00    +0.149 C 
ATOM     11  C   UNL     1      -4.753   4.551  24.623  0.00  0.00    +0.061 C 
ATOM     12  C   UNL     1      -5.768   4.678  25.752  0.00  0.00    +0.130 C 
ATOM     13  C   UNL     1      -6.475   3.336  25.746  0.00  0.00    +0.116 C 
ENDROOT
BRANCH  10  15
ATOM      4  O   UNL     1      -2.476   2.869  25.770  0.00  0.00    -0.336 OA
ATOM      8  N   UNL     1      -2.282   2.112  23.670  0.00  0.00    -0.190 NA
ATOM      9  N   UNL     1      -1.151   2.433  25.633  0.00  0.00    -0.056 NA
ATOM     15  C   UNL     1      -3.071   2.644  24.570  0.00  0.00    +0.245 A 
ATOM     19  C   UNL     1      -1.115   2.001  24.370  0.00  0.00    +0.202 A 
BRANCH  19  23
ATOM      2  F   UNL     1       1.010  -1.050  21.311  0.00  0.00    -0.205 F 
ATOM     23  C   UNL     1       0.069   1.454  23.775  0.00  0.00    +0.025 A 
ATOM     24  C   UNL     1      -0.034   0.448  22.814  0.00  0.00    +0.050 A 
ATOM     25  C   UNL     1       1.324   1.928  24.157  0.00  0.00    +0.012 A 
ATOM     27  C   UNL     1       1.119  -0.083  22.234  0.00  0.00    +0.127 A 
ATOM     28  C   UNL     1       2.477   1.396  23.577  0.00  0.00    +0.007 A 
ATOM     29  C   UNL     1       2.374   0.391  22.616  0.00  0.00    -0.015 A 
ATOM     30  C   UNL     1       3.608  -0.175  21.998  0.00  0.00    +0.047 C 
ENDBRANCH  19  23
ENDBRANCH  10  15
BRANCH  12   3
ATOM      3  O   UNL     1      -6.662   5.745  25.506  0.00  0.00    -0.390 OA
ATOM     31  H   UNL     1      -7.508   5.358  25.225  0.00  0.00    +0.210 HD
ENDBRANCH  12   3
BRANCH   7  14
ATOM     14  C   UNL     1      -5.836   1.081  25.140  0.00  0.00    +0.120 C 
BRANCH  14  16
ATOM     16  C   UNL     1      -4.699   0.102  25.019  0.00  0.00    -0.033 A 
ATOM     17  C   UNL     1      -3.829  -0.092  26.093  0.00  0.00    +0.007 A 
ATOM     18  C   UNL     1      -4.513  -0.610  23.834  0.00  0.00    +0.007 A 
ATOM     20  C   UNL     1      -2.774  -0.999  25.981  0.00  0.00    +0.027 A 
ATOM     21  C   UNL     1      -3.459  -1.516  23.722  0.00  0.00    +0.027 A 
ATOM     22  C   UNL     1      -2.589  -1.710  24.795  0.00  0.00    +0.088 A 
BRANCH  22   1
ATOM      1  S   UNL     1      -1.269  -2.844  24.655  0.00  0.00    -0.006 S 
ATOM      5  O   UNL     1      -1.492  -3.945  25.581  0.00  0.00    -0.170 OA
ATOM      6  O   UNL     1      -1.063  -3.120  23.240  0.00  0.00    -0.170 OA
ATOM     26  C   UNL     1       0.148  -1.948  25.249  0.00  0.00    +0.200 C 
ENDBRANCH  22   1
ENDBRANCH  14  16
ENDBRANCH   7  14
TORSDOF 6
ENDMDL
MODEL 2
REMARK VINA RESULT:       5.2      2.927      5.484
REMARK  Name = 26743822
REMARK  8 active torsions:
REMARK  status: ('A' for Active; 'I' for Inactive)
REMARK    1  A    between atoms: S_1  and  C_22
REMARK    2  A    between atoms: S_1  and  C_26
REMARK    3  A    between atoms: O_3  and  C_12
REMARK    4  A    between atoms: N_7  and  C_14
REMARK    5  A    between atoms: C_10  and  C_15
REMARK    6  A    between atoms: C_14  and  C_16
REMARK    7  A    between atoms: C_19  and  C_23
REMARK    8  A    between atoms: C_29  and  C_30
REMARK                            x       y       z     vdW  Elec       q    Type
REMARK                         _______ _______ _______ _____ _____    ______ ____
ROOT
ATOM      7  N   UNL     1      -3.448  -0.869  24.524  0.00  0.00    -0.285 NA
ATOM     10  C   UNL     1      -2.230  -1.695  24.649  0.00  0.00    +0.149 C 
ATOM     11  C   UNL     1      -2.567  -3.006  23.914  0.00  0.00    +0.061 C 
ATOM     12  C   UNL     1      -4.009  -2.840  23.451  0.00  0.00    +0.130 C 
ATOM     13  C   UNL     1      -4.569  -1.799  24.402  0.00  0.00    +0.116 C 
ENDROOT
BRANCH  10  15
ATOM      4  O   UNL     1      -1.220   0.046  23.263  0.00  0.00    -0.336 OA
ATOM      8  N   UNL     1       0.264  -1.285  24.285  0.00  0.00    -0.190 NA
ATOM      9  N   UNL     1       0.047   0.507  22.879  0.00  0.00    -0.056 NA
ATOM     15  C   UNL     1      -1.001  -1.009  24.091  0.00  0.00    +0.245 A 
ATOM     19  C   UNL     1       0.868  -0.328  23.522  0.00  0.00    +0.202 A 
BRANCH  19  23
ATOM      2  F   UNL     1       5.243  -2.246  24.118  0.00  0.00    -0.205 F 
ATOM     23  C   UNL     1       2.296  -0.233  23.424  0.00  0.00    +0.025 A 
ATOM     24  C   UNL     1       3.094  -1.304  23.826  0.00  0.00    +0.050 A 
ATOM     25  C   UNL     1       2.885   0.928  22.926  0.00  0.00    +0.012 A 
ATOM     27  C   UNL     1       4.484  -1.212  23.729  0.00  0.00    +0.127 A 
ATOM     28  C   UNL     1       4.274   1.020  22.829  0.00  0.00    +0.007 A 
ATOM     29  C   UNL     1       5.073  -0.050  23.230  0.00  0.00    -0.015 A 
ATOM     30  C   UNL     1       6.558   0.051  23.126  0.00  0.00    +0.047 C 
ENDBRANCH  19  23
ENDBRANCH  10  15
BRANCH  12   3
ATOM      3  O   UNL     1      -4.709  -4.065  23.542  0.00  0.00    -0.390 OA
ATOM     31  H   UNL     1      -4.940  -4.337  22.638  0.00  0.00    +0.210 HD
ENDBRANCH  12   3
BRANCH   7  14
ATOM     14  C   UNL     1      -3.626   0.063  25.630  0.00  0.00    +0.120 C 
BRANCH  14  16
ATOM     16  C   UNL     1      -2.935   1.376  25.374  0.00  0.00    -0.033 A 
ATOM     17  C   UNL     1      -3.596   2.387  24.677  0.00  0.00    +0.007 A 
ATOM     18  C   UNL     1      -1.634   1.581  25.833  0.00  0.00    +0.007 A 
ATOM     20  C   UNL     1      -2.956   3.604  24.439  0.00  0.00    +0.027 A 
ATOM     21  C   UNL     1      -0.994   2.797  25.595  0.00  0.00    +0.027 A 
ATOM     22  C   UNL     1      -1.654   3.808  24.898  0.00  0.00    +0.088 A 
BRANCH  22   1
ATOM      1  S   UNL     1      -0.853   5.330  24.599  0.00  0.00    -0.006 S 
ATOM      5  O   UNL     1      -1.854   6.386  24.537  0.00  0.00    -0.170 OA
ATOM      6  O   UNL     1       0.258   5.443  25.534  0.00  0.00    -0.170 OA
ATOM     26  C   UNL     1      -0.177   5.161  22.963  0.00  0.00    +0.200 C 
ENDBRANCH  22   1
ENDBRANCH  14  16
ENDBRANCH   7  14
TORSDOF 6
ENDMDL
MODEL 3
REMARK VINA RESULT:       5.2      2.875      5.466
REMARK  Name = 26743822
REMARK  8 active torsions:
REMARK  status: ('A' for Active; 'I' for Inactive)
REMARK    1  A    between atoms: S_1  and  C_22
REMARK    2  A    between atoms: S_1  and  C_26
REMARK    3  A    between atoms: O_3  and  C_12
REMARK    4  A    between atoms: N_7  and  C_14
REMARK    5  A    between atoms: C_10  and  C_15
REMARK    6  A    between atoms: C_14  and  C_16
REMARK    7  A    between atoms: C_19  and  C_23
REMARK    8  A    between atoms: C_29  and  C_30
REMARK                            x       y       z     vdW  Elec       q    Type
REMARK                         _______ _______ _______ _____ _____    ______ ____
ROOT
ATOM      7  N   UNL     1      -3.065  -1.509  23.633  0.00  0.00    -0.285 NA
ATOM     10  C   UNL     1      -2.043  -0.986  24.564  0.00  0.00    +0.149 C 
ATOM     11  C   UNL     1      -1.883  -2.087  25.630  0.00  0.00    +0.061 C 
ATOM     12  C   UNL     1      -2.887  -3.164  25.239  0.00  0.00    +0.130 C 
ATOM     13  C   UNL     1      -3.911  -2.411  24.411  0.00  0.00    +0.116 C 
ENDROOT
BRANCH  10  15
ATOM      4  O   UNL     1      -0.837  -0.170  22.601  0.00  0.00    -0.336 OA
ATOM      8  N   UNL     1       0.487  -0.755  24.311  0.00  0.00    -0.190 NA
ATOM      9  N   UNL     1       0.477   0.063  22.174  0.00  0.00    -0.056 NA
ATOM     15  C   UNL     1      -0.740  -0.650  23.869  0.00  0.00    +0.245 A 
ATOM     19  C   UNL     1       1.199  -0.305  23.237  0.00  0.00    +0.202 A 
BRANCH  19  23
ATOM      2  F   UNL     1       5.474  -2.298  24.201  0.00  0.00    -0.205 F 
ATOM     23  C   UNL     1       2.631  -0.236  23.258  0.00  0.00    +0.025 A 
ATOM     24  C   UNL     1       3.374  -1.319  23.728  0.00  0.00    +0.050 A 
ATOM     25  C   UNL     1       3.281   0.912  22.806  0.00  0.00    +0.012 A 
ATOM     27  C   UNL     1       4.768  -1.253  23.747  0.00  0.00    +0.127 A 
ATOM     28  C   UNL     1       4.675   0.979  22.825  0.00  0.00    +0.007 A 
ATOM     29  C   UNL     1       5.418  -0.104  23.295  0.00  0.00    -0.015 A 
ATOM     30  C   UNL     1       6.908  -0.030  23.314  0.00  0.00    +0.047 C 
ENDBRANCH  19  23
ENDBRANCH  10  15
BRANCH  12   3
ATOM      3  O   UNL     1      -3.468  -3.750  26.388  0.00  0.00    -0.390 OA
ATOM     31  H   UNL     1      -3.598  -3.042  27.042  0.00  0.00    +0.210 HD
ENDBRANCH  12   3
BRANCH   7  14
ATOM     14  C   UNL     1      -3.837  -0.459  22.981  0.00  0.00    +0.120 C 
BRANCH  14  16
ATOM     16  C   UNL     1      -3.495   0.905  23.518  0.00  0.00    -0.033 A 
ATOM     17  C   UNL     1      -3.932   1.284  24.788  0.00  0.00    +0.007 A 
ATOM     18  C   UNL     1      -2.742   1.791  22.747  0.00  0.00    +0.007 A 
ATOM     20  C   UNL     1      -3.615   2.548  25.286  0.00  0.00    +0.027 A 
ATOM     21  C   UNL     1      -2.426   3.055  23.245  0.00  0.00    +0.027 A 
ATOM     22  C   UNL     1      -2.863   3.434  24.514  0.00  0.00    +0.088 A 
BRANCH  22   1
ATOM      1  S   UNL     1      -2.468   5.016  25.137  0.00  0.00    -0.006 S 
ATOM      5  O   UNL     1      -2.951   6.025  24.204  0.00  0.00    -0.170 OA
ATOM      6  O   UNL     1      -2.883   5.065  26.532  0.00  0.00    -0.170 OA
ATOM     26  C   UNL     1      -0.691   5.078  25.093  0.00  0.00    +0.200 C 
ENDBRANCH  22   1
ENDBRANCH  14  16
ENDBRANCH   7  14
TORSDOF 6
ENDMDL
MODEL 4
REMARK VINA RESULT:       5.5      2.171      2.720
REMARK  Name = 26743822
REMARK  8 active torsions:
REMARK  status: ('A' for Active; 'I' for Inactive)
REMARK    1  A    between atoms: S_1  and  C_22
REMARK    2  A    between atoms: S_1  and  C_26
REMARK    3  A    between atoms: O_3  and  C_12
REMARK    4  A    between atoms: N_7  and  C_14
REMARK    5  A    between atoms: C_10  and  C_15
REMARK    6  A    between atoms: C_14  and  C_16
REMARK    7  A    between atoms: C_19  and  C_23
REMARK    8  A    between atoms: C_29  and  C_30
REMARK                            x       y       z     vdW  Elec       q    Type
REMARK                         _______ _______ _______ _____ _____    ______ ____
ROOT
ATOM      7  N   UNL     1      -2.883   3.663  25.293  0.00  0.00    -0.285 NA
ATOM     10  C   UNL     1      -2.263   3.800  23.959  0.00  0.00    +0.149 C 
ATOM     11  C   UNL     1      -1.478   5.124  24.024  0.00  0.00    +0.061 C 
ATOM     12  C   UNL     1      -1.756   5.679  25.416  0.00  0.00    +0.130 C 
ATOM     13  C   UNL     1      -3.064   5.019  25.807  0.00  0.00    +0.116 C 
ENDROOT
BRANCH  10  15
ATOM      4  O   UNL     1      -1.966   1.644  22.847  0.00  0.00    -0.336 OA
ATOM      8  N   UNL     1      -0.138   2.386  23.909  0.00  0.00    -0.190 NA
ATOM      9  N   UNL     1      -0.977   0.672  22.647  0.00  0.00    -0.056 NA
ATOM     15  C   UNL     1      -1.388   2.618  23.598  0.00  0.00    +0.245 A 
ATOM     19  C   UNL     1       0.070   1.181  23.302  0.00  0.00    +0.202 A 
BRANCH  19  23
ATOM      2  F   UNL     1       4.872   1.261  22.968  0.00  0.00    -0.205 F 
ATOM     23  C   UNL     1       1.337   0.512  23.371  0.00  0.00    +0.025 A 
ATOM     24  C   UNL     1       2.514   1.222  23.131  0.00  0.00    +0.050 A 
ATOM     25  C   UNL     1       1.392  -0.847  23.678  0.00  0.00    +0.012 A 
ATOM     27  C   UNL     1       3.747   0.571  23.200  0.00  0.00    +0.127 A 
ATOM     28  C   UNL     1       2.625  -1.498  23.747  0.00  0.00    +0.007 A 
ATOM     29  C   UNL     1       3.802  -0.788  23.508  0.00  0.00    -0.015 A 
ATOM     30  C   UNL     1       5.118  -1.487  23.581  0.00  0.00    +0.047 C 
ENDBRANCH  19  23
ENDBRANCH  10  15
BRANCH  12   3
ATOM      3  O   UNL     1      -1.868   7.088  25.382  0.00  0.00    -0.390 OA
ATOM     31  H   UNL     1      -2.446   7.353  26.116  0.00  0.00    +0.210 HD
ENDBRANCH  12   3
BRANCH   7  14
ATOM     14  C   UNL     1      -4.132   2.913  25.271  0.00  0.00    +0.120 C 
BRANCH  14  16
ATOM     16  C   UNL     1      -3.895   1.434  25.115  0.00  0.00    -0.033 A 
ATOM     17  C   UNL     1      -2.809   0.831  25.750  0.00  0.00    +0.007 A 
ATOM     18  C   UNL     1      -4.760   0.667  24.334  0.00  0.00    +0.007 A 
ATOM     20  C   UNL     1      -2.589  -0.539  25.605  0.00  0.00    +0.027 A 
ATOM     21  C   UNL     1      -4.540  -0.702  24.188  0.00  0.00    +0.027 A 
ATOM     22  C   UNL     1      -3.455  -1.305  24.823  0.00  0.00    +0.088 A 
BRANCH  22   1
ATOM      1  S   UNL     1      -3.179  -3.020  24.641  0.00  0.00    -0.006 S 
ATOM      5  O   UNL     1      -3.154  -3.637  25.960  0.00  0.00    -0.170 OA
ATOM      6  O   UNL     1      -4.100  -3.517  23.628  0.00  0.00    -0.170 OA
ATOM     26  C   UNL     1      -1.530  -3.135  23.984  0.00  0.00    +0.200 C 
ENDBRANCH  22   1
ENDBRANCH  14  16
ENDBRANCH   7  14
TORSDOF 6
ENDMDL
MODEL 5
REMARK VINA RESULT:       5.5      2.463      3.545
REMARK  Name = 26743822
REMARK  8 active torsions:
REMARK  status: ('A' for Active; 'I' for Inactive)
REMARK    1  A    between atoms: S_1  and  C_22
REMARK    2  A    between atoms: S_1  and  C_26
REMARK    3  A    between atoms: O_3  and  C_12
REMARK    4  A    between atoms: N_7  and  C_14
REMARK    5  A    between atoms: C_10  and  C_15
REMARK    6  A    between atoms: C_14  and  C_16
REMARK    7  A    between atoms: C_19  and  C_23
REMARK    8  A    between atoms: C_29  and  C_30
REMARK                            x       y       z     vdW  Elec       q    Type
REMARK                         _______ _______ _______ _____ _____    ______ ____
ROOT
ATOM      7  N   UNL     1      -1.130   3.471  25.605  0.00  0.00    -0.285 NA
ATOM     10  C   UNL     1      -1.353   2.985  24.228  0.00  0.00    +0.149 C 
ATOM     11  C   UNL     1      -1.385   4.258  23.362  0.00  0.00    +0.061 C 
ATOM     12  C   UNL     1      -1.218   5.410  24.346  0.00  0.00    +0.130 C 
ATOM     13  C   UNL     1      -1.687   4.821  25.663  0.00  0.00    +0.116 C 
ENDROOT
BRANCH  10  15
ATOM      4  O   UNL     1      -0.726   0.940  23.046  0.00  0.00    -0.336 OA
ATOM      8  N   UNL     1       0.996   2.009  24.000  0.00  0.00    -0.190 NA
ATOM      9  N   UNL     1       0.415   0.179  22.756  0.00  0.00    -0.056 NA
ATOM     15  C   UNL     1      -0.295   1.998  23.780  0.00  0.00    +0.245 A 
ATOM     19  C   UNL     1       1.388   0.874  23.351  0.00  0.00    +0.202 A 
BRANCH  19  23
ATOM      2  F   UNL     1       4.769  -2.491  24.000  0.00  0.00    -0.205 F 
ATOM     23  C   UNL     1       2.761   0.462  23.317  0.00  0.00    +0.025 A 
ATOM     24  C   UNL     1       3.108  -0.838  23.682  0.00  0.00    +0.050 A 
ATOM     25  C   UNL     1       3.749   1.362  22.919  0.00  0.00    +0.012 A 
ATOM     27  C   UNL     1       4.445  -1.239  23.648  0.00  0.00    +0.127 A 
ATOM     28  C   UNL     1       5.086   0.962  22.884  0.00  0.00    +0.007 A 
ATOM     29  C   UNL     1       5.433  -0.339  23.249  0.00  0.00    -0.015 A 
ATOM     30  C   UNL     1       6.862  -0.764  23.211  0.00  0.00    +0.047 C 
ENDBRANCH  19  23
ENDBRANCH  10  15
BRANCH  12   3
ATOM      3  O   UNL     1      -2.003   6.520  23.957  0.00  0.00    -0.390 OA
ATOM     31  H   UNL     1      -1.451   7.314  24.049  0.00  0.00    +0.210 HD
ENDBRANCH  12   3
BRANCH   7  14
ATOM     14  C   UNL     1      -1.701   2.598  26.622  0.00  0.00    +0.120 C 
BRANCH  14  16
ATOM     16  C   UNL     1      -2.053   1.244  26.065  0.00  0.00    -0.033 A 
ATOM     17  C   UNL     1      -3.275   1.053  25.418  0.00  0.00    +0.007 A 
ATOM     18  C   UNL     1      -1.160   0.181  26.196  0.00  0.00    +0.007 A 
ATOM     20  C   UNL     1      -3.601  -0.202  24.902  0.00  0.00    +0.027 A 
ATOM     21  C   UNL     1      -1.486  -1.073  25.680  0.00  0.00    +0.027 A 
ATOM     22  C   UNL     1      -2.707  -1.265  25.034  0.00  0.00    +0.088 A 
BRANCH  22   1
ATOM      1  S   UNL     1      -3.116  -2.834  24.389  0.00  0.00    -0.006 S 
ATOM      5  O   UNL     1      -2.029  -3.292  23.535  0.00  0.00    -0.170 OA
ATOM      6  O   UNL     1      -3.568  -3.669  25.493  0.00  0.00    -0.170 OA
ATOM     26  C   UNL     1      -4.511  -2.527  23.329  0.00  0.00    +0.200 C 
ENDBRANCH  22   1
ENDBRANCH  14  16
ENDBRANCH   7  14
TORSDOF 6
ENDMDL
MODEL 6
REMARK VINA RESULT:       6.6      2.137      4.390
REMARK  Name = 26743822
REMARK  8 active torsions:
REMARK  status: ('A' for Active; 'I' for Inactive)
REMARK    1  A    between atoms: S_1  and  C_22
REMARK    2  A    between atoms: S_1  and  C_26
REMARK    3  A    between atoms: O_3  and  C_12
REMARK    4  A    between atoms: N_7  and  C_14
REMARK    5  A    between atoms: C_10  and  C_15
REMARK    6  A    between atoms: C_14  and  C_16
REMARK    7  A    between atoms: C_19  and  C_23
REMARK    8  A    between atoms: C_29  and  C_30
REMARK                            x       y       z     vdW  Elec       q    Type
REMARK                         _______ _______ _______ _____ _____    ______ ____
ROOT
ATOM      7  N   UNL     1      -3.918   4.173  25.367  0.00  0.00    -0.285 NA
ATOM     10  C   UNL     1      -4.931   3.308  26.007  0.00  0.00    +0.149 C 
ATOM     11  C   UNL     1      -6.271   4.026  25.763  0.00  0.00    +0.061 C 
ATOM     12  C   UNL     1      -5.905   5.305  25.021  0.00  0.00    +0.130 C 
ATOM     13  C   UNL     1      -4.454   5.532  25.399  0.00  0.00    +0.116 C 
ENDROOT
BRANCH  10  15
ATOM      4  O   UNL     1      -6.116   1.377  25.090  0.00  0.00    -0.336 OA
ATOM      8  N   UNL     1      -3.905   1.079  25.299  0.00  0.00    -0.190 NA
ATOM      9  N   UNL     1      -5.852   0.080  24.631  0.00  0.00    -0.056 NA
ATOM     15  C   UNL     1      -4.916   1.894  25.464  0.00  0.00    +0.245 A 
ATOM     19  C   UNL     1      -4.529  -0.021  24.784  0.00  0.00    +0.202 A 
BRANCH  19  23
ATOM      2  F   UNL     1      -0.562  -2.734  25.071  0.00  0.00    -0.205 F 
ATOM     23  C   UNL     1      -3.799  -1.205  24.435  0.00  0.00    +0.025 A 
ATOM     24  C   UNL     1      -2.510  -1.401  24.930  0.00  0.00    +0.050 A 
ATOM     25  C   UNL     1      -4.379  -2.161  23.602  0.00  0.00    +0.012 A 
ATOM     27  C   UNL     1      -1.801  -2.554  24.591  0.00  0.00    +0.127 A 
ATOM     28  C   UNL     1      -3.670  -3.315  23.263  0.00  0.00    +0.007 A 
ATOM     29  C   UNL     1      -2.381  -3.511  23.758  0.00  0.00    -0.015 A 
ATOM     30  C   UNL     1      -1.625  -4.744  23.394  0.00  0.00    +0.047 C 
ENDBRANCH  19  23
ENDBRANCH  10  15
BRANCH  12   3
ATOM      3  O   UNL     1      -6.729   6.378  25.432  0.00  0.00    -0.390 OA
ATOM     31  H   UNL     1      -7.549   6.332  24.913  0.00  0.00    +0.210 HD
ENDBRANCH  12   3
BRANCH   7  14
ATOM     14  C   UNL     1      -2.607   4.084  25.997  0.00  0.00    +0.120 C 
BRANCH  14  16
ATOM     16  C   UNL     1      -1.714   3.095  25.296  0.00  0.00    -0.033 A 
ATOM     17  C   UNL     1      -1.937   2.783  23.955  0.00  0.00    +0.007 A 
ATOM     18  C   UNL     1      -0.665   2.489  25.988  0.00  0.00    +0.007 A 
ATOM     20  C   UNL     1      -1.110   1.866  23.306  0.00  0.00    +0.027 A 
ATOM     21  C   UNL     1       0.162   1.573  25.339  0.00  0.00    +0.027 A 
ATOM     22  C   UNL     1      -0.060   1.260  23.999  0.00  0.00    +0.088 A 
BRANCH  22   1
ATOM      1  S   UNL     1       0.974   0.112  23.186  0.00  0.00    -0.006 S 
ATOM      5  O   UNL     1       1.206  -1.022  24.070  0.00  0.00    -0.170 OA
ATOM      6  O   UNL     1       0.434  -0.111  21.852  0.00  0.00    -0.170 OA
ATOM     26  C   UNL     1       2.527   0.961  23.013  0.00  0.00    +0.200 C 
ENDBRANCH  22   1
ENDBRANCH  14  16
ENDBRANCH   7  14
TORSDOF 6
ENDMDL
