MODEL 1
REMARK VINA RESULT:      14.3      0.000      0.000
REMARK  Name = 11941667
REMARK  6 active torsions:
REMARK  status: ('A' for Active; 'I' for Inactive)
REMARK    1  A    between atoms: O_4  and  C_31
REMARK    2  A    between atoms: O_4  and  C_32
REMARK    3  A    between atoms: N_5  and  C_12
REMARK    4  A    between atoms: N_6  and  C_13
REMARK    5  A    between atoms: N_9  and  C_26
REMARK    6  A    between atoms: C_16  and  C_22
REMARK                            x       y       z     vdW  Elec       q    Type
REMARK                         _______ _______ _______ _____ _____    ______ ____
ROOT
ATOM      1  O   UNL     1      -6.675   2.948  24.405  0.00  0.00    -0.370 OA
ATOM      2  O   UNL     1      -5.565   2.353  27.260  0.00  0.00    -0.370 OA
ATOM     10  C   UNL     1      -5.048   3.086  26.136  0.00  0.00    +0.171 C 
ATOM     11  C   UNL     1      -5.464   2.339  24.883  0.00  0.00    +0.171 C 
ATOM     12  C   UNL     1      -5.742   4.422  26.017  0.00  0.00    +0.130 C 
ATOM     13  C   UNL     1      -5.738   0.934  25.366  0.00  0.00    +0.131 C 
ATOM     14  C   UNL     1      -6.993   4.080  25.229  0.00  0.00    +0.185 C 
ATOM     15  C   UNL     1      -6.218   1.166  26.787  0.00  0.00    +0.185 C 
ENDROOT
BRANCH  12   5
ATOM      5  N   UNL     1      -4.916   5.344  25.268  0.00  0.00    -0.306 N 
ATOM      7  N   UNL     1      -3.012   4.059  25.607  0.00  0.00    -0.219 NA
ATOM      8  N   UNL     1      -2.928   6.110  24.344  0.00  0.00    -0.223 NA
ATOM     21  C   UNL     1      -3.559   5.163  25.064  0.00  0.00    +0.216 A 
ATOM     22  C   UNL     1      -1.688   3.914  25.389  0.00  0.00    +0.049 A 
ATOM     24  C   UNL     1      -0.928   4.811  24.667  0.00  0.00    +0.043 A 
ATOM     25  C   UNL     1      -1.607   5.901  24.164  0.00  0.00    +0.116 A 
ATOM     38  H   UNL     1      -5.344   6.145  24.818  0.00  0.00    +0.149 HD
BRANCH  22  16
ATOM     16  C   UNL     1      -1.031   2.687  25.980  0.00  0.00    +0.038 C 
ATOM     17  C   UNL     1      -0.649   2.819  27.469  0.00  0.00    +0.010 C 
ATOM     18  C   UNL     1       0.271   2.307  25.251  0.00  0.00    +0.010 C 
ATOM     19  C   UNL     1       0.866   2.671  27.525  0.00  0.00    +0.001 C 
ATOM     20  C   UNL     1       1.183   1.771  26.343  0.00  0.00    +0.001 C 
ENDBRANCH  22  16
ENDBRANCH  12   5
BRANCH  13   6
ATOM      3  O   UNL     1      -3.416   1.365  23.743  0.00  0.00    -0.252 OA
ATOM      6  N   UNL     1      -4.539   0.131  25.344  0.00  0.00    -0.292 N 
ATOM      9  N   UNL     1      -2.433  -0.533  24.712  0.00  0.00    -0.269 N 
ATOM     23  C   UNL     1      -3.444   0.412  24.518  0.00  0.00    +0.304 C 
ATOM     39  H   UNL     1      -4.459  -0.635  26.005  0.00  0.00    +0.151 HD
ATOM     40  H   UNL     1      -2.617  -1.264  25.394  0.00  0.00    +0.156 HD
BRANCH   9  26
ATOM     26  C   UNL     1      -1.173  -0.601  24.072  0.00  0.00    +0.035 A 
ATOM     27  C   UNL     1      -0.958   0.093  22.882  0.00  0.00    +0.027 A 
ATOM     28  C   UNL     1      -0.146  -1.362  24.632  0.00  0.00    +0.027 A 
ATOM     29  C   UNL     1       0.284   0.025  22.250  0.00  0.00    +0.048 A 
ATOM     30  C   UNL     1       1.095  -1.430  24.000  0.00  0.00    +0.048 A 
ATOM     31  C   UNL     1       1.310  -0.736  22.809  0.00  0.00    +0.129 A 
BRANCH  31   4
ATOM      4  O   UNL     1       2.521  -0.804  22.191  0.00  0.00    -0.456 OA
BRANCH   4  32
ATOM     32  C   UNL     1       3.638  -0.438  22.924  0.00  0.00    +0.128 A 
ATOM     33  C   UNL     1       4.093   0.880  22.891  0.00  0.00    +0.046 A 
ATOM     34  C   UNL     1       4.307  -1.388  23.697  0.00  0.00    +0.046 A 
ATOM     35  C   UNL     1       5.218   1.248  23.629  0.00  0.00    +0.004 A 
ATOM     36  C   UNL     1       5.432  -1.020  24.435  0.00  0.00    +0.004 A 
ATOM     37  C   UNL     1       5.888   0.299  24.401  0.00  0.00    +0.000 A 
ENDBRANCH   4  32
ENDBRANCH  31   4
ENDBRANCH   9  26
ENDBRANCH  13   6
TORSDOF 6
ENDMDL
MODEL 2
REMARK VINA RESULT:      14.3      1.424      1.839
REMARK  Name = 11941667
REMARK  6 active torsions:
REMARK  status: ('A' for Active; 'I' for Inactive)
REMARK    1  A    between atoms: O_4  and  C_31
REMARK    2  A    between atoms: O_4  and  C_32
REMARK    3  A    between atoms: N_5  and  C_12
REMARK    4  A    between atoms: N_6  and  C_13
REMARK    5  A    between atoms: N_9  and  C_26
REMARK    6  A    between atoms: C_16  and  C_22
REMARK                            x       y       z     vdW  Elec       q    Type
REMARK                         _______ _______ _______ _____ _____    ______ ____
ROOT
ATOM      1  O   UNL     1      -6.138   1.413  24.162  0.00  0.00    -0.370 OA
ATOM      2  O   UNL     1      -4.320   0.387  26.481  0.00  0.00    -0.370 OA
ATOM     10  C   UNL     1      -4.208   1.479  25.552  0.00  0.00    +0.171 C 
ATOM     11  C   UNL     1      -4.763   0.998  24.225  0.00  0.00    +0.171 C 
ATOM     12  C   UNL     1      -5.132   2.605  25.953  0.00  0.00    +0.130 C 
ATOM     13  C   UNL     1      -4.672  -0.508  24.312  0.00  0.00    +0.131 C 
ATOM     14  C   UNL     1      -6.451   2.194  25.325  0.00  0.00    +0.185 C 
ATOM     15  C   UNL     1      -4.848  -0.759  25.798  0.00  0.00    +0.185 C 
ENDROOT
BRANCH  12   5
ATOM      5  N   UNL     1      -4.672   3.851  25.380  0.00  0.00    -0.306 N 
ATOM      7  N   UNL     1      -2.445   3.305  25.748  0.00  0.00    -0.219 NA
ATOM      8  N   UNL     1      -3.067   5.393  24.718  0.00  0.00    -0.223 NA
ATOM     21  C   UNL     1      -3.336   4.198  25.277  0.00  0.00    +0.216 A 
ATOM     22  C   UNL     1      -1.152   3.676  25.632  0.00  0.00    +0.049 A 
ATOM     24  C   UNL     1      -0.745   4.872  25.077  0.00  0.00    +0.043 A 
ATOM     25  C   UNL     1      -1.755   5.699  24.633  0.00  0.00    +0.116 A 
ATOM     38  H   UNL     1      -5.345   4.495  24.980  0.00  0.00    +0.149 HD
BRANCH  22  16
ATOM     16  C   UNL     1      -0.116   2.703  26.148  0.00  0.00    +0.038 C 
ATOM     17  C   UNL     1      -0.574   1.859  27.355  0.00  0.00    +0.010 C 
ATOM     18  C   UNL     1       1.178   3.405  26.600  0.00  0.00    +0.010 C 
ATOM     19  C   UNL     1       0.367   2.221  28.498  0.00  0.00    +0.001 C 
ATOM     20  C   UNL     1       1.660   2.595  27.794  0.00  0.00    +0.001 C 
ENDBRANCH  22  16
ENDBRANCH  12   5
BRANCH  13   6
ATOM      3  O   UNL     1      -2.296   1.054  23.959  0.00  0.00    -0.252 OA
ATOM      6  N   UNL     1      -3.389  -0.980  23.849  0.00  0.00    -0.292 N 
ATOM      9  N   UNL     1      -1.177  -0.881  23.243  0.00  0.00    -0.269 N 
ATOM     23  C   UNL     1      -2.273  -0.149  23.705  0.00  0.00    +0.304 C 
ATOM     39  H   UNL     1      -3.272  -1.976  23.684  0.00  0.00    +0.151 HD
ATOM     40  H   UNL     1      -1.327  -1.873  23.079  0.00  0.00    +0.156 HD
BRANCH   9  26
ATOM     26  C   UNL     1       0.129  -0.410  22.969  0.00  0.00    +0.035 A 
ATOM     27  C   UNL     1       0.745   0.485  23.842  0.00  0.00    +0.027 A 
ATOM     28  C   UNL     1       0.801  -0.841  21.824  0.00  0.00    +0.027 A 
ATOM     29  C   UNL     1       2.032   0.950  23.572  0.00  0.00    +0.048 A 
ATOM     30  C   UNL     1       2.088  -0.377  21.554  0.00  0.00    +0.048 A 
ATOM     31  C   UNL     1       2.703   0.519  22.429  0.00  0.00    +0.129 A 
BRANCH  31   4
ATOM      4  O   UNL     1       3.958   0.974  22.163  0.00  0.00    -0.456 OA
BRANCH   4  32
ATOM     32  C   UNL     1       5.013   0.384  22.840  0.00  0.00    +0.128 A 
ATOM     33  C   UNL     1       6.052  -0.214  22.127  0.00  0.00    +0.046 A 
ATOM     34  C   UNL     1       5.036   0.388  24.235  0.00  0.00    +0.046 A 
ATOM     35  C   UNL     1       7.113  -0.809  22.809  0.00  0.00    +0.004 A 
ATOM     36  C   UNL     1       6.097  -0.207  24.917  0.00  0.00    +0.004 A 
ATOM     37  C   UNL     1       7.136  -0.805  24.204  0.00  0.00    +0.000 A 
ENDBRANCH   4  32
ENDBRANCH  31   4
ENDBRANCH   9  26
ENDBRANCH  13   6
TORSDOF 6
ENDMDL
MODEL 3
REMARK VINA RESULT:      14.8      2.319      4.152
REMARK  Name = 11941667
REMARK  6 active torsions:
REMARK  status: ('A' for Active; 'I' for Inactive)
REMARK    1  A    between atoms: O_4  and  C_31
REMARK    2  A    between atoms: O_4  and  C_32
REMARK    3  A    between atoms: N_5  and  C_12
REMARK    4  A    between atoms: N_6  and  C_13
REMARK    5  A    between atoms: N_9  and  C_26
REMARK    6  A    between atoms: C_16  and  C_22
REMARK                            x       y       z     vdW  Elec       q    Type
REMARK                         _______ _______ _______ _____ _____    ______ ____
ROOT
ATOM      1  O   UNL     1      -4.373  -1.772  23.818  0.00  0.00    -0.370 OA
ATOM      2  O   UNL     1      -2.139  -0.966  25.842  0.00  0.00    -0.370 OA
ATOM     10  C   UNL     1      -2.979  -0.212  24.953  0.00  0.00    +0.171 C 
ATOM     11  C   UNL     1      -3.147  -1.033  23.688  0.00  0.00    +0.171 C 
ATOM     12  C   UNL     1      -4.377  -0.108  25.514  0.00  0.00    +0.130 C 
ATOM     13  C   UNL     1      -1.963  -1.973  23.701  0.00  0.00    +0.131 C 
ATOM     14  C   UNL     1      -5.023  -1.398  25.043  0.00  0.00    +0.185 C 
ATOM     15  C   UNL     1      -1.722  -2.172  25.186  0.00  0.00    +0.185 C 
ENDROOT
BRANCH  12   5
ATOM      5  N   UNL     1      -5.059   1.031  24.938  0.00  0.00    -0.306 N 
ATOM      7  N   UNL     1      -3.184   2.383  25.162  0.00  0.00    -0.219 NA
ATOM      8  N   UNL     1      -5.231   3.230  24.212  0.00  0.00    -0.223 NA
ATOM     21  C   UNL     1      -4.466   2.269  24.763  0.00  0.00    +0.216 A 
ATOM     22  C   UNL     1      -2.638   3.603  24.977  0.00  0.00    +0.049 A 
ATOM     24  C   UNL     1      -3.314   4.670  24.422  0.00  0.00    +0.043 A 
ATOM     25  C   UNL     1      -4.621   4.423  24.054  0.00  0.00    +0.116 A 
ATOM     38  H   UNL     1      -6.005   0.923  24.592  0.00  0.00    +0.149 HD
BRANCH  22  16
ATOM     16  C   UNL     1      -1.200   3.778  25.411  0.00  0.00    +0.038 C 
ATOM     17  C   UNL     1      -0.157   3.441  24.324  0.00  0.00    +0.010 C 
ATOM     18  C   UNL     1      -0.838   2.895  26.620  0.00  0.00    +0.010 C 
ATOM     19  C   UNL     1       0.659   2.279  24.877  0.00  0.00    +0.001 C 
ATOM     20  C   UNL     1       0.607   2.486  26.380  0.00  0.00    +0.001 C 
ENDBRANCH  22  16
ENDBRANCH  12   5
BRANCH  13   6
ATOM      3  O   UNL     1       0.603  -1.493  24.881  0.00  0.00    -0.252 OA
ATOM      6  N   UNL     1      -0.816  -1.377  23.059  0.00  0.00    -0.292 N 
ATOM      9  N   UNL     1       1.328  -0.584  22.842  0.00  0.00    -0.269 N 
ATOM     23  C   UNL     1       0.407  -1.177  23.709  0.00  0.00    +0.304 C 
ATOM     39  H   UNL     1      -0.878  -1.152  22.071  0.00  0.00    +0.151 HD
ATOM     40  H   UNL     1       1.004  -0.384  21.899  0.00  0.00    +0.156 HD
BRANCH   9  26
ATOM     26  C   UNL     1       2.668  -0.220  23.114  0.00  0.00    +0.035 A 
ATOM     27  C   UNL     1       3.517  -1.119  23.760  0.00  0.00    +0.027 A 
ATOM     28  C   UNL     1       3.140   1.037  22.737  0.00  0.00    +0.027 A 
ATOM     29  C   UNL     1       4.837  -0.761  24.029  0.00  0.00    +0.048 A 
ATOM     30  C   UNL     1       4.461   1.395  23.007  0.00  0.00    +0.048 A 
ATOM     31  C   UNL     1       5.310   0.495  23.653  0.00  0.00    +0.129 A 
BRANCH  31   4
ATOM      4  O   UNL     1       6.598   0.847  23.917  0.00  0.00    -0.456 OA
BRANCH   4  32
ATOM     32  C   UNL     1       7.603   0.090  23.337  0.00  0.00    +0.128 A 
ATOM     33  C   UNL     1       7.280  -1.048  22.598  0.00  0.00    +0.046 A 
ATOM     34  C   UNL     1       8.937   0.467  23.490  0.00  0.00    +0.046 A 
ATOM     35  C   UNL     1       8.292  -1.810  22.014  0.00  0.00    +0.004 A 
ATOM     36  C   UNL     1       9.949  -0.295  22.906  0.00  0.00    +0.004 A 
ATOM     37  C   UNL     1       9.627  -1.434  22.167  0.00  0.00    +0.000 A 
ENDBRANCH   4  32
ENDBRANCH  31   4
ENDBRANCH   9  26
ENDBRANCH  13   6
TORSDOF 6
ENDMDL
MODEL 4
REMARK VINA RESULT:      15.0      2.187      4.339
REMARK  Name = 11941667
REMARK  6 active torsions:
REMARK  status: ('A' for Active; 'I' for Inactive)
REMARK    1  A    between atoms: O_4  and  C_31
REMARK    2  A    between atoms: O_4  and  C_32
REMARK    3  A    between atoms: N_5  and  C_12
REMARK    4  A    between atoms: N_6  and  C_13
REMARK    5  A    between atoms: N_9  and  C_26
REMARK    6  A    between atoms: C_16  and  C_22
REMARK                            x       y       z     vdW  Elec       q    Type
REMARK                         _______ _______ _______ _____ _____    ______ ____
ROOT
ATOM      1  O   UNL     1      -3.329   3.451  26.736  0.00  0.00    -0.370 OA
ATOM      2  O   UNL     1      -3.013   5.128  24.124  0.00  0.00    -0.370 OA
ATOM     10  C   UNL     1      -3.635   3.864  24.413  0.00  0.00    +0.171 C 
ATOM     11  C   UNL     1      -2.770   3.163  25.444  0.00  0.00    +0.171 C 
ATOM     12  C   UNL     1      -4.953   4.078  25.119  0.00  0.00    +0.130 C 
ATOM     13  C   UNL     1      -1.417   3.821  25.298  0.00  0.00    +0.131 C 
ATOM     14  C   UNL     1      -4.534   4.213  26.572  0.00  0.00    +0.185 C 
ATOM     15  C   UNL     1      -1.785   5.228  24.861  0.00  0.00    +0.185 C 
ENDROOT
BRANCH  12   5
ATOM      5  N   UNL     1      -5.799   2.916  24.949  0.00  0.00    -0.306 N 
ATOM      7  N   UNL     1      -3.971   1.493  24.784  0.00  0.00    -0.219 NA
ATOM      8  N   UNL     1      -6.226   0.655  24.637  0.00  0.00    -0.223 NA
ATOM     21  C   UNL     1      -5.311   1.632  24.783  0.00  0.00    +0.216 A 
ATOM     22  C   UNL     1      -3.530   0.228  24.620  0.00  0.00    +0.049 A 
ATOM     24  C   UNL     1      -4.364  -0.859  24.462  0.00  0.00    +0.043 A 
ATOM     25  C   UNL     1      -5.715  -0.584  24.478  0.00  0.00    +0.116 A 
ATOM     38  H   UNL     1      -6.806   3.021  25.001  0.00  0.00    +0.149 HD
BRANCH  22  16
ATOM     16  C   UNL     1      -2.031   0.025  24.615  0.00  0.00    +0.038 C 
ATOM     17  C   UNL     1      -1.532  -1.040  23.617  0.00  0.00    +0.010 C 
ATOM     18  C   UNL     1      -1.492  -0.410  25.990  0.00  0.00    +0.010 C 
ATOM     19  C   UNL     1      -0.868  -2.122  24.461  0.00  0.00    +0.001 C 
ATOM     20  C   UNL     1      -0.353  -1.366  25.673  0.00  0.00    +0.001 C 
ENDBRANCH  22  16
ENDBRANCH  12   5
BRANCH  13   6
ATOM      3  O   UNL     1       0.916   2.223  25.756  0.00  0.00    -0.252 OA
ATOM      6  N   UNL     1      -0.617   3.155  24.298  0.00  0.00    -0.292 N 
ATOM      9  N   UNL     1       1.081   1.869  23.442  0.00  0.00    -0.269 N 
ATOM     23  C   UNL     1       0.513   2.389  24.607  0.00  0.00    +0.304 C 
ATOM     39  H   UNL     1      -0.926   3.189  23.332  0.00  0.00    +0.151 HD
ATOM     40  H   UNL     1       0.622   2.104  22.566  0.00  0.00    +0.156 HD
BRANCH   9  26
ATOM     26  C   UNL     1       2.228   1.048  23.327  0.00  0.00    +0.035 A 
ATOM     27  C   UNL     1       2.113  -0.334  23.466  0.00  0.00    +0.027 A 
ATOM     28  C   UNL     1       3.475   1.623  23.075  0.00  0.00    +0.027 A 
ATOM     29  C   UNL     1       3.244  -1.143  23.353  0.00  0.00    +0.048 A 
ATOM     30  C   UNL     1       4.605   0.814  22.962  0.00  0.00    +0.048 A 
ATOM     31  C   UNL     1       4.489  -0.570  23.101  0.00  0.00    +0.129 A 
BRANCH  31   4
ATOM      4  O   UNL     1       5.593  -1.358  22.993  0.00  0.00    -0.456 OA
BRANCH   4  32
ATOM     32  C   UNL     1       6.832  -0.744  23.076  0.00  0.00    +0.128 A 
ATOM     33  C   UNL     1       7.909  -1.243  22.343  0.00  0.00    +0.046 A 
ATOM     34  C   UNL     1       7.003   0.374  23.893  0.00  0.00    +0.046 A 
ATOM     35  C   UNL     1       9.156  -0.625  22.427  0.00  0.00    +0.004 A 
ATOM     36  C   UNL     1       8.250   0.992  23.977  0.00  0.00    +0.004 A 
ATOM     37  C   UNL     1       9.327   0.493  23.244  0.00  0.00    +0.000 A 
ENDBRANCH   4  32
ENDBRANCH  31   4
ENDBRANCH   9  26
ENDBRANCH  13   6
TORSDOF 6
ENDMDL
