MODEL 1
REMARK VINA RESULT:      -5.2      0.000      0.000
REMARK  Name = 45784265
REMARK  6 active torsions:
REMARK  status: ('A' for Active; 'I' for Inactive)
REMARK    1  A    between atoms: N_4  and  C_11
REMARK    2  A    between atoms: C_7  and  C_12
REMARK    3  A    between atoms: C_11  and  C_13
REMARK    4  A    between atoms: C_13  and  C_14
REMARK    5  A    between atoms: C_13  and  C_15
REMARK    6  A    between atoms: C_20  and  C_22
REMARK                            x       y       z     vdW  Elec       q    Type
REMARK                         _______ _______ _______ _____ _____    ______ ____
ROOT
ATOM      5  N   UNL     1      -1.872   0.134  24.214  0.00  0.00    -0.342 N 
ATOM      6  N   UNL     1      -0.620   1.970  24.157  0.00  0.00    -0.232 NA
ATOM     12  C   UNL     1      -0.634   0.668  23.984  0.00  0.00    +0.113 A 
ATOM     16  C   UNL     1      -2.713   1.162  24.558  0.00  0.00    +0.067 A 
ATOM     17  C   UNL     1      -1.908   2.297  24.516  0.00  0.00    +0.089 A 
ATOM     18  C   UNL     1      -4.067   1.194  24.894  0.00  0.00    +0.040 A 
ATOM     19  C   UNL     1      -2.471   3.546  24.822  0.00  0.00    +0.030 A 
ATOM     20  C   UNL     1      -4.610   2.447  25.196  0.00  0.00    +0.057 A 
ATOM     21  C   UNL     1      -3.829   3.604  25.162  0.00  0.00    +0.014 A 
ATOM     23  H   UNL     1      -2.127  -0.842  24.144  0.00  0.00    +0.167 HD
ENDROOT
BRANCH  12   7
ATOM      4  N   UNL     1       2.724  -0.121  22.749  0.00  0.00    -0.301 NA
ATOM      7  C   UNL     1       0.534  -0.203  23.581  0.00  0.00    +0.070 C 
ATOM      8  C   UNL     1       1.891   0.481  23.791  0.00  0.00    +0.095 C 
ATOM      9  C   UNL     1       0.539  -0.635  22.105  0.00  0.00    +0.028 C 
ATOM     10  C   UNL     1       1.875  -0.151  21.558  0.00  0.00    +0.085 C 
BRANCH   4  11
ATOM     11  C   UNL     1       3.960   0.616  22.531  0.00  0.00    +0.087 C 
BRANCH  11  13
ATOM     13  C   UNL     1       5.174  -0.064  23.186  0.00  0.00    -0.003 C 
ATOM     14  C   UNL     1       5.765   0.854  24.260  0.00  0.00    +0.008 C 
ATOM     15  C   UNL     1       4.825  -1.421  23.804  0.00  0.00    +0.008 C 
ENDBRANCH  11  13
ENDBRANCH   4  11
ENDBRANCH  12   7
BRANCH  20  22
ATOM      1  F   UNL     1      -6.491   3.838  25.618  0.00  0.00    -0.166 F 
ATOM      2  F   UNL     1      -6.886   1.915  24.684  0.00  0.00    -0.166 F 
ATOM      3  F   UNL     1      -6.346   2.008  26.783  0.00  0.00    -0.166 F 
ATOM     22  C   UNL     1      -6.055   2.547  25.563  0.00  0.00    +0.417 C 
ENDBRANCH  20  22
TORSDOF 4
ENDMDL
MODEL 2
REMARK VINA RESULT:      -4.6     18.041     19.831
REMARK  Name = 45784265
REMARK  6 active torsions:
REMARK  status: ('A' for Active; 'I' for Inactive)
REMARK    1  A    between atoms: N_4  and  C_11
REMARK    2  A    between atoms: C_7  and  C_12
REMARK    3  A    between atoms: C_11  and  C_13
REMARK    4  A    between atoms: C_13  and  C_14
REMARK    5  A    between atoms: C_13  and  C_15
REMARK    6  A    between atoms: C_20  and  C_22
REMARK                            x       y       z     vdW  Elec       q    Type
REMARK                         _______ _______ _______ _____ _____    ______ ____
ROOT
ATOM      5  N   UNL     1      16.793  -5.487  26.593  0.00  0.00    -0.342 N 
ATOM      6  N   UNL     1      17.359  -7.137  25.214  0.00  0.00    -0.232 NA
ATOM     12  C   UNL     1      17.098  -6.813  26.460  0.00  0.00    +0.113 A 
ATOM     16  C   UNL     1      16.862  -4.917  25.347  0.00  0.00    +0.067 A 
ATOM     17  C   UNL     1      17.217  -5.966  24.504  0.00  0.00    +0.089 A 
ATOM     18  C   UNL     1      16.651  -3.611  24.900  0.00  0.00    +0.040 A 
ATOM     19  C   UNL     1      17.374  -5.717  23.131  0.00  0.00    +0.030 A 
ATOM     20  C   UNL     1      16.813  -3.383  23.529  0.00  0.00    +0.057 A 
ATOM     21  C   UNL     1      17.168  -4.415  22.658  0.00  0.00    +0.014 A 
ATOM     23  H   UNL     1      16.558  -5.009  27.452  0.00  0.00    +0.167 HD
ENDROOT
BRANCH  12   7
ATOM      4  N   UNL     1      15.732  -8.706  29.285  0.00  0.00    -0.301 NA
ATOM      7  C   UNL     1      17.113  -7.738  27.656  0.00  0.00    +0.070 C 
ATOM      8  C   UNL     1      15.795  -8.503  27.837  0.00  0.00    +0.095 C 
ATOM      9  C   UNL     1      17.349  -7.043  29.007  0.00  0.00    +0.028 C 
ATOM     10  C   UNL     1      16.149  -7.427  29.863  0.00  0.00    +0.085 C 
BRANCH   4  11
ATOM     11  C   UNL     1      14.408  -9.111  29.733  0.00  0.00    +0.087 C 
BRANCH  11  13
ATOM     13  C   UNL     1      13.954  -8.350  30.990  0.00  0.00    -0.003 C 
ATOM     14  C   UNL     1      12.562  -7.755  30.760  0.00  0.00    +0.008 C 
ATOM     15  C   UNL     1      13.935  -9.237  32.238  0.00  0.00    +0.008 C 
ENDBRANCH  11  13
ENDBRANCH   4  11
ENDBRANCH  12   7
BRANCH  20  22
ATOM      1  F   UNL     1      16.846  -1.038  23.918  0.00  0.00    -0.166 F 
ATOM      2  F   UNL     1      17.403  -1.708  21.926  0.00  0.00    -0.166 F 
ATOM      3  F   UNL     1      15.327  -1.783  22.552  0.00  0.00    -0.166 F 
ATOM     22  C   UNL     1      16.601  -2.006  22.989  0.00  0.00    +0.417 C 
ENDBRANCH  20  22
TORSDOF 4
ENDMDL
MODEL 3
REMARK VINA RESULT:      -4.5     17.764     19.607
REMARK  Name = 45784265
REMARK  6 active torsions:
REMARK  status: ('A' for Active; 'I' for Inactive)
REMARK    1  A    between atoms: N_4  and  C_11
REMARK    2  A    between atoms: C_7  and  C_12
REMARK    3  A    between atoms: C_11  and  C_13
REMARK    4  A    between atoms: C_13  and  C_14
REMARK    5  A    between atoms: C_13  and  C_15
REMARK    6  A    between atoms: C_20  and  C_22
REMARK                            x       y       z     vdW  Elec       q    Type
REMARK                         _______ _______ _______ _____ _____    ______ ____
ROOT
ATOM      5  N   UNL     1      17.229  -3.519  27.394  0.00  0.00    -0.342 N 
ATOM      6  N   UNL     1      17.188  -5.622  26.673  0.00  0.00    -0.232 NA
ATOM     12  C   UNL     1      17.272  -4.844  27.728  0.00  0.00    +0.113 A 
ATOM     16  C   UNL     1      17.109  -3.437  26.029  0.00  0.00    +0.067 A 
ATOM     17  C   UNL     1      17.086  -4.761  25.602  0.00  0.00    +0.089 A 
ATOM     18  C   UNL     1      17.023  -2.349  25.159  0.00  0.00    +0.040 A 
ATOM     19  C   UNL     1      16.968  -5.037  24.230  0.00  0.00    +0.030 A 
ATOM     20  C   UNL     1      16.907  -2.643  23.796  0.00  0.00    +0.057 A 
ATOM     21  C   UNL     1      16.880  -3.961  23.337  0.00  0.00    +0.014 A 
ATOM     23  H   UNL     1      17.277  -2.737  28.033  0.00  0.00    +0.167 HD
ENDROOT
BRANCH  12   7
ATOM      4  N   UNL     1      16.192  -6.189  30.961  0.00  0.00    -0.301 NA
ATOM      7  C   UNL     1      17.403  -5.286  29.168  0.00  0.00    +0.070 C 
ATOM      8  C   UNL     1      16.436  -6.419  29.536  0.00  0.00    +0.095 C 
ATOM      9  C   UNL     1      17.130  -4.187  30.208  0.00  0.00    +0.028 C 
ATOM     10  C   UNL     1      16.014  -4.741  31.084  0.00  0.00    +0.085 C 
BRANCH   4  11
ATOM     11  C   UNL     1      15.043  -6.933  31.455  0.00  0.00    +0.087 C 
BRANCH  11  13
ATOM     13  C   UNL     1      13.961  -7.126  30.378  0.00  0.00    -0.003 C 
ATOM     14  C   UNL     1      13.517  -8.592  30.349  0.00  0.00    +0.008 C 
ATOM     15  C   UNL     1      12.745  -6.224  30.598  0.00  0.00    +0.008 C 
ENDBRANCH  11  13
ENDBRANCH   4  11
ENDBRANCH  12   7
BRANCH  20  22
ATOM      1  F   UNL     1      17.405  -1.818  21.622  0.00  0.00    -0.166 F 
ATOM      2  F   UNL     1      15.527  -1.172  22.508  0.00  0.00    -0.166 F 
ATOM      3  F   UNL     1      17.402  -0.368  23.243  0.00  0.00    -0.166 F 
ATOM     22  C   UNL     1      16.810  -1.521  22.814  0.00  0.00    +0.417 C 
ENDBRANCH  20  22
TORSDOF 4
ENDMDL
MODEL 4
REMARK VINA RESULT:      -4.0     17.682     19.625
REMARK  Name = 45784265
REMARK  6 active torsions:
REMARK  status: ('A' for Active; 'I' for Inactive)
REMARK    1  A    between atoms: N_4  and  C_11
REMARK    2  A    between atoms: C_7  and  C_12
REMARK    3  A    between atoms: C_11  and  C_13
REMARK    4  A    between atoms: C_13  and  C_14
REMARK    5  A    between atoms: C_13  and  C_15
REMARK    6  A    between atoms: C_20  and  C_22
REMARK                            x       y       z     vdW  Elec       q    Type
REMARK                         _______ _______ _______ _____ _____    ______ ____
ROOT
ATOM      5  N   UNL     1      16.596  -5.990  26.434  0.00  0.00    -0.342 N 
ATOM      6  N   UNL     1      17.202  -4.689  28.131  0.00  0.00    -0.232 NA
ATOM     12  C   UNL     1      16.867  -5.907  27.771  0.00  0.00    +0.113 A 
ATOM     16  C   UNL     1      16.768  -4.740  25.894  0.00  0.00    +0.067 A 
ATOM     17  C   UNL     1      17.146  -3.946  26.973  0.00  0.00    +0.089 A 
ATOM     18  C   UNL     1      16.628  -4.253  24.594  0.00  0.00    +0.040 A 
ATOM     19  C   UNL     1      17.405  -2.582  26.761  0.00  0.00    +0.030 A 
ATOM     20  C   UNL     1      16.890  -2.892  24.403  0.00  0.00    +0.057 A 
ATOM     21  C   UNL     1      17.272  -2.070  25.464  0.00  0.00    +0.014 A 
ATOM     23  H   UNL     1      16.317  -6.821  25.929  0.00  0.00    +0.167 HD
ENDROOT
BRANCH  12   7
ATOM      4  N   UNL     1      15.333  -8.242  30.142  0.00  0.00    -0.301 NA
ATOM      7  C   UNL     1      16.770  -7.120  28.669  0.00  0.00    +0.070 C 
ATOM      8  C   UNL     1      15.338  -7.653  28.801  0.00  0.00    +0.095 C 
ATOM      9  C   UNL     1      17.237  -6.891  30.116  0.00  0.00    +0.028 C 
ATOM     10  C   UNL     1      16.044  -7.277  30.981  0.00  0.00    +0.085 C 
BRANCH   4  11
ATOM     11  C   UNL     1      13.986  -8.510  30.625  0.00  0.00    +0.087 C 
BRANCH  11  13
ATOM     13  C   UNL     1      13.380  -7.310  31.371  0.00  0.00    -0.003 C 
ATOM     14  C   UNL     1      12.104  -6.850  30.660  0.00  0.00    +0.008 C 
ATOM     15  C   UNL     1      13.067  -7.626  32.836  0.00  0.00    +0.008 C 
ENDBRANCH  11  13
ENDBRANCH   4  11
ENDBRANCH  12   7
BRANCH  20  22
ATOM      1  F   UNL     1      17.402  -3.051  22.086  0.00  0.00    -0.166 F 
ATOM      2  F   UNL     1      15.466  -2.207  22.606  0.00  0.00    -0.166 F 
ATOM      3  F   UNL     1      17.272  -1.049  22.925  0.00  0.00    -0.166 F 
ATOM     22  C   UNL     1      16.758  -2.309  23.033  0.00  0.00    +0.417 C 
ENDBRANCH  20  22
TORSDOF 4
ENDMDL
MODEL 5
REMARK VINA RESULT:      -4.0     17.017     18.409
REMARK  Name = 45784265
REMARK  6 active torsions:
REMARK  status: ('A' for Active; 'I' for Inactive)
REMARK    1  A    between atoms: N_4  and  C_11
REMARK    2  A    between atoms: C_7  and  C_12
REMARK    3  A    between atoms: C_11  and  C_13
REMARK    4  A    between atoms: C_13  and  C_14
REMARK    5  A    between atoms: C_13  and  C_15
REMARK    6  A    between atoms: C_20  and  C_22
REMARK                            x       y       z     vdW  Elec       q    Type
REMARK                         _______ _______ _______ _____ _____    ______ ____
ROOT
ATOM      5  N   UNL     1      15.287  -6.597  28.063  0.00  0.00    -0.342 N 
ATOM      6  N   UNL     1      16.696  -5.238  29.115  0.00  0.00    -0.232 NA
ATOM     12  C   UNL     1      16.464  -5.904  28.007  0.00  0.00    +0.113 A 
ATOM     16  C   UNL     1      14.722  -6.363  29.291  0.00  0.00    +0.067 A 
ATOM     17  C   UNL     1      15.620  -5.512  29.929  0.00  0.00    +0.089 A 
ATOM     18  C   UNL     1      13.539  -6.810  29.880  0.00  0.00    +0.040 A 
ATOM     19  C   UNL     1      15.337  -5.070  31.232  0.00  0.00    +0.030 A 
ATOM     20  C   UNL     1      13.274  -6.359  31.178  0.00  0.00    +0.057 A 
ATOM     21  C   UNL     1      14.155  -5.505  31.844  0.00  0.00    +0.014 A 
ATOM     23  H   UNL     1      14.898  -7.180  27.333  0.00  0.00    +0.167 HD
ENDROOT
BRANCH  12   7
ATOM      4  N   UNL     1      17.405  -5.369  24.506  0.00  0.00    -0.301 NA
ATOM      7  C   UNL     1      17.342  -5.947  26.778  0.00  0.00    +0.070 C 
ATOM      8  C   UNL     1      17.073  -4.788  25.809  0.00  0.00    +0.095 C 
ATOM      9  C   UNL     1      17.192  -7.215  25.920  0.00  0.00    +0.028 C 
ATOM     10  C   UNL     1      16.822  -6.710  24.532  0.00  0.00    +0.085 C 
BRANCH   4  11
ATOM     11  C   UNL     1      16.906  -4.568  23.398  0.00  0.00    +0.087 C 
BRANCH  11  13
ATOM     13  C   UNL     1      16.279  -3.244  23.865  0.00  0.00    -0.003 C 
ATOM     14  C   UNL     1      17.292  -2.106  23.703  0.00  0.00    +0.008 C 
ATOM     15  C   UNL     1      14.995  -2.902  23.106  0.00  0.00    +0.008 C 
ENDBRANCH  11  13
ENDBRANCH   4  11
ENDBRANCH  12   7
BRANCH  20  22
ATOM      1  F   UNL     1      12.253  -7.767  32.800  0.00  0.00    -0.166 F 
ATOM      2  F   UNL     1      11.374  -5.798  32.520  0.00  0.00    -0.166 F 
ATOM      3  F   UNL     1      11.094  -7.332  31.012  0.00  0.00    -0.166 F 
ATOM     22  C   UNL     1      12.021  -6.803  31.863  0.00  0.00    +0.417 C 
ENDBRANCH  20  22
TORSDOF 4
ENDMDL
MODEL 6
REMARK VINA RESULT:      -4.0     17.977     19.623
REMARK  Name = 45784265
REMARK  6 active torsions:
REMARK  status: ('A' for Active; 'I' for Inactive)
REMARK    1  A    between atoms: N_4  and  C_11
REMARK    2  A    between atoms: C_7  and  C_12
REMARK    3  A    between atoms: C_11  and  C_13
REMARK    4  A    between atoms: C_13  and  C_14
REMARK    5  A    between atoms: C_13  and  C_15
REMARK    6  A    between atoms: C_20  and  C_22
REMARK                            x       y       z     vdW  Elec       q    Type
REMARK                         _______ _______ _______ _____ _____    ______ ____
ROOT
ATOM      5  N   UNL     1      17.204  -4.684  27.520  0.00  0.00    -0.342 N 
ATOM      6  N   UNL     1      17.278  -2.638  28.387  0.00  0.00    -0.232 NA
ATOM     12  C   UNL     1      17.297  -3.924  28.653  0.00  0.00    +0.113 A 
ATOM     16  C   UNL     1      17.119  -3.829  26.450  0.00  0.00    +0.067 A 
ATOM     17  C   UNL     1      17.167  -2.558  27.017  0.00  0.00    +0.089 A 
ATOM     18  C   UNL     1      17.007  -4.052  25.078  0.00  0.00    +0.040 A 
ATOM     19  C   UNL     1      17.103  -1.432  26.180  0.00  0.00    +0.030 A 
ATOM     20  C   UNL     1      16.943  -2.919  24.260  0.00  0.00    +0.057 A 
ATOM     21  C   UNL     1      16.990  -1.632  24.798  0.00  0.00    +0.014 A 
ATOM     23  H   UNL     1      17.198  -5.694  27.474  0.00  0.00    +0.167 HD
ENDROOT
BRANCH  12   7
ATOM      4  N   UNL     1      16.134  -5.544  31.728  0.00  0.00    -0.301 NA
ATOM      7  C   UNL     1      17.405  -4.563  30.019  0.00  0.00    +0.070 C 
ATOM      8  C   UNL     1      16.317  -5.613  30.277  0.00  0.00    +0.095 C 
ATOM      9  C   UNL     1      17.290  -3.584  31.201  0.00  0.00    +0.028 C 
ATOM     10  C   UNL     1      16.135  -4.114  32.040  0.00  0.00    +0.085 C 
BRANCH   4  11
ATOM     11  C   UNL     1      14.915  -6.207  32.166  0.00  0.00    +0.087 C 
BRANCH  11  13
ATOM     13  C   UNL     1      13.665  -5.676  31.443  0.00  0.00    -0.003 C 
ATOM     14  C   UNL     1      13.009  -6.807  30.646  0.00  0.00    +0.008 C 
ATOM     15  C   UNL     1      12.644  -5.065  32.407  0.00  0.00    +0.008 C 
ENDBRANCH  11  13
ENDBRANCH   4  11
ENDBRANCH  12   7
BRANCH  20  22
ATOM      1  F   UNL     1      15.524  -3.136  22.365  0.00  0.00    -0.166 F 
ATOM      2  F   UNL     1      17.405  -2.088  22.064  0.00  0.00    -0.166 F 
ATOM      3  F   UNL     1      17.396  -4.242  22.319  0.00  0.00    -0.166 F 
ATOM     22  C   UNL     1      16.823  -3.093  22.780  0.00  0.00    +0.417 C 
ENDBRANCH  20  22
TORSDOF 4
ENDMDL
MODEL 7
REMARK VINA RESULT:      -3.8     17.243     18.990
REMARK  Name = 45784265
REMARK  6 active torsions:
REMARK  status: ('A' for Active; 'I' for Inactive)
REMARK    1  A    between atoms: N_4  and  C_11
REMARK    2  A    between atoms: C_7  and  C_12
REMARK    3  A    between atoms: C_11  and  C_13
REMARK    4  A    between atoms: C_13  and  C_14
REMARK    5  A    between atoms: C_13  and  C_15
REMARK    6  A    between atoms: C_20  and  C_22
REMARK                            x       y       z     vdW  Elec       q    Type
REMARK                         _______ _______ _______ _____ _____    ______ ____
ROOT
ATOM      5  N   UNL     1      15.584  -6.244  27.977  0.00  0.00    -0.342 N 
ATOM      6  N   UNL     1      16.765  -8.120  27.817  0.00  0.00    -0.232 NA
ATOM     12  C   UNL     1      16.603  -6.904  27.348  0.00  0.00    +0.113 A 
ATOM     16  C   UNL     1      15.053  -7.093  28.916  0.00  0.00    +0.067 A 
ATOM     17  C   UNL     1      15.807  -8.257  28.796  0.00  0.00    +0.089 A 
ATOM     18  C   UNL     1      14.009  -6.945  29.830  0.00  0.00    +0.040 A 
ATOM     19  C   UNL     1      15.517  -9.348  29.631  0.00  0.00    +0.030 A 
ATOM     20  C   UNL     1      13.735  -8.043  30.652  0.00  0.00    +0.057 A 
ATOM     21  C   UNL     1      14.473  -9.224  30.557  0.00  0.00    +0.014 A 
ATOM     23  H   UNL     1      15.274  -5.300  27.788  0.00  0.00    +0.167 HD
ENDROOT
BRANCH  12   7
ATOM      4  N   UNL     1      17.405  -4.422  24.775  0.00  0.00    -0.301 NA
ATOM      7  C   UNL     1      17.405  -6.245  26.249  0.00  0.00    +0.070 C 
ATOM      8  C   UNL     1      17.206  -4.725  26.194  0.00  0.00    +0.095 C 
ATOM      9  C   UNL     1      17.077  -6.733  24.828  0.00  0.00    +0.028 C 
ATOM     10  C   UNL     1      16.687  -5.478  24.060  0.00  0.00    +0.085 C 
BRANCH   4  11
ATOM     11  C   UNL     1      16.934  -3.092  24.419  0.00  0.00    +0.087 C 
BRANCH  11  13
ATOM     13  C   UNL     1      16.618  -2.961  22.920  0.00  0.00    -0.003 C 
ATOM     14  C   UNL     1      15.117  -2.727  22.726  0.00  0.00    +0.008 C 
ATOM     15  C   UNL     1      17.405  -1.833  22.249  0.00  0.00    +0.008 C 
ENDBRANCH  11  13
ENDBRANCH   4  11
ENDBRANCH  12   7
BRANCH  20  22
ATOM      1  F   UNL     1      11.428  -7.653  31.075  0.00  0.00    -0.166 F 
ATOM      2  F   UNL     1      12.427  -9.099  32.355  0.00  0.00    -0.166 F 
ATOM      3  F   UNL     1      12.829  -6.982  32.596  0.00  0.00    -0.166 F 
ATOM     22  C   UNL     1      12.628  -7.947  31.652  0.00  0.00    +0.417 C 
ENDBRANCH  20  22
TORSDOF 4
ENDMDL
MODEL 8
REMARK VINA RESULT:      -3.2      0.911      1.858
REMARK  Name = 45784265
REMARK  6 active torsions:
REMARK  status: ('A' for Active; 'I' for Inactive)
REMARK    1  A    between atoms: N_4  and  C_11
REMARK    2  A    between atoms: C_7  and  C_12
REMARK    3  A    between atoms: C_11  and  C_13
REMARK    4  A    between atoms: C_13  and  C_14
REMARK    5  A    between atoms: C_13  and  C_15
REMARK    6  A    between atoms: C_20  and  C_22
REMARK                            x       y       z     vdW  Elec       q    Type
REMARK                         _______ _______ _______ _____ _____    ______ ____
ROOT
ATOM      5  N   UNL     1      -0.904   1.258  24.007  0.00  0.00    -0.342 N 
ATOM      6  N   UNL     1      -1.913  -0.720  24.087  0.00  0.00    -0.232 NA
ATOM     12  C   UNL     1      -0.790  -0.092  23.825  0.00  0.00    +0.113 A 
ATOM     16  C   UNL     1      -2.188   1.518  24.413  0.00  0.00    +0.067 A 
ATOM     17  C   UNL     1      -2.798   0.268  24.455  0.00  0.00    +0.089 A 
ATOM     18  C   UNL     1      -2.848   2.705  24.737  0.00  0.00    +0.040 A 
ATOM     19  C   UNL     1      -4.145   0.177  24.842  0.00  0.00    +0.030 A 
ATOM     20  C   UNL     1      -4.189   2.594  25.119  0.00  0.00    +0.057 A 
ATOM     21  C   UNL     1      -4.828   1.354  25.172  0.00  0.00    +0.014 A 
ATOM     23  H   UNL     1      -0.175   1.946  23.868  0.00  0.00    +0.167 HD
ENDROOT
BRANCH  12   7
ATOM      4  N   UNL     1       2.711  -0.202  22.751  0.00  0.00    -0.301 NA
ATOM      7  C   UNL     1       0.510  -0.716  23.373  0.00  0.00    +0.070 C 
ATOM      8  C   UNL     1       1.743   0.086  23.810  0.00  0.00    +0.095 C 
ATOM      9  C   UNL     1       0.661  -0.864  21.850  0.00  0.00    +0.028 C 
ATOM     10  C   UNL     1       1.945  -0.119  21.507  0.00  0.00    +0.085 C 
BRANCH   4  11
ATOM     11  C   UNL     1       3.841   0.716  22.767  0.00  0.00    +0.087 C 
BRANCH  11  13
ATOM     13  C   UNL     1       5.138   0.042  23.247  0.00  0.00    -0.003 C 
ATOM     14  C   UNL     1       5.794   0.897  24.335  0.00  0.00    +0.008 C 
ATOM     15  C   UNL     1       4.903  -1.374  23.777  0.00  0.00    +0.008 C 
ENDBRANCH  11  13
ENDBRANCH   4  11
ENDBRANCH  12   7
BRANCH  20  22
ATOM      1  F   UNL     1      -6.248   3.566  25.803  0.00  0.00    -0.166 F 
ATOM      2  F   UNL     1      -4.431   4.498  26.548  0.00  0.00    -0.166 F 
ATOM      3  F   UNL     1      -5.001   4.749  24.470  0.00  0.00    -0.166 F 
ATOM     22  C   UNL     1      -4.950   3.829  25.478  0.00  0.00    +0.417 C 
ENDBRANCH  20  22
TORSDOF 4
ENDMDL
MODEL 9
REMARK VINA RESULT:      -2.5     17.767     19.697
REMARK  Name = 45784265
REMARK  6 active torsions:
REMARK  status: ('A' for Active; 'I' for Inactive)
REMARK    1  A    between atoms: N_4  and  C_11
REMARK    2  A    between atoms: C_7  and  C_12
REMARK    3  A    between atoms: C_11  and  C_13
REMARK    4  A    between atoms: C_13  and  C_14
REMARK    5  A    between atoms: C_13  and  C_15
REMARK    6  A    between atoms: C_20  and  C_22
REMARK                            x       y       z     vdW  Elec       q    Type
REMARK                         _______ _______ _______ _____ _____    ______ ____
ROOT
ATOM      5  N   UNL     1      15.450  -6.545  27.342  0.00  0.00    -0.342 N 
ATOM      6  N   UNL     1      16.665  -8.183  26.459  0.00  0.00    -0.232 NA
ATOM     12  C   UNL     1      15.894  -7.832  27.463  0.00  0.00    +0.113 A 
ATOM     16  C   UNL     1      15.970  -6.030  26.181  0.00  0.00    +0.067 A 
ATOM     17  C   UNL     1      16.725  -7.072  25.649  0.00  0.00    +0.089 A 
ATOM     18  C   UNL     1      15.850  -4.781  25.571  0.00  0.00    +0.040 A 
ATOM     19  C   UNL     1      17.405  -6.874  24.436  0.00  0.00    +0.030 A 
ATOM     20  C   UNL     1      16.534  -4.602  24.365  0.00  0.00    +0.057 A 
ATOM     21  C   UNL     1      17.299  -5.628  23.805  0.00  0.00    +0.014 A 
ATOM     23  H   UNL     1      14.846  -6.055  27.989  0.00  0.00    +0.167 HD
ENDROOT
BRANCH  12   7
ATOM      4  N   UNL     1      14.757  -8.583  30.864  0.00  0.00    -0.301 NA
ATOM      7  C   UNL     1      15.500  -8.690  28.643  0.00  0.00    +0.070 C 
ATOM      8  C   UNL     1      14.454  -8.023  29.546  0.00  0.00    +0.095 C 
ATOM      9  C   UNL     1      16.656  -9.055  29.590  0.00  0.00    +0.028 C 
ATOM     10  C   UNL     1      16.217  -8.554  30.959  0.00  0.00    +0.085 C 
BRANCH   4  11
ATOM     11  C   UNL     1      14.116  -7.843  31.942  0.00  0.00    +0.087 C 
BRANCH  11  13
ATOM     13  C   UNL     1      12.972  -6.947  31.440  0.00  0.00    -0.003 C 
ATOM     14  C   UNL     1      11.760  -7.811  31.076  0.00  0.00    +0.008 C 
ATOM     15  C   UNL     1      12.559  -5.890  32.467  0.00  0.00    +0.008 C 
ENDBRANCH  11  13
ENDBRANCH   4  11
ENDBRANCH  12   7
BRANCH  20  22
ATOM      1  F   UNL     1      17.404  -3.139  22.704  0.00  0.00    -0.166 F 
ATOM      2  F   UNL     1      15.254  -3.088  23.026  0.00  0.00    -0.166 F 
ATOM      3  F   UNL     1      16.589  -2.214  24.495  0.00  0.00    -0.166 F 
ATOM     22  C   UNL     1      16.444  -3.286  23.662  0.00  0.00    +0.417 C 
ENDBRANCH  20  22
TORSDOF 4
ENDMDL
MODEL 10
REMARK VINA RESULT:      -1.2      4.916      8.228
REMARK  Name = 45784265
REMARK  6 active torsions:
REMARK  status: ('A' for Active; 'I' for Inactive)
REMARK    1  A    between atoms: N_4  and  C_11
REMARK    2  A    between atoms: C_7  and  C_12
REMARK    3  A    between atoms: C_11  and  C_13
REMARK    4  A    between atoms: C_13  and  C_14
REMARK    5  A    between atoms: C_13  and  C_15
REMARK    6  A    between atoms: C_20  and  C_22
REMARK                            x       y       z     vdW  Elec       q    Type
REMARK                         _______ _______ _______ _____ _____    ______ ____
ROOT
ATOM      5  N   UNL     1       0.202  -1.185  24.025  0.00  0.00    -0.342 N 
ATOM      6  N   UNL     1      -0.384   0.879  23.445  0.00  0.00    -0.232 NA
ATOM     12  C   UNL     1      -0.820  -0.299  23.828  0.00  0.00    +0.113 A 
ATOM     16  C   UNL     1       1.378  -0.533  23.751  0.00  0.00    +0.067 A 
ATOM     17  C   UNL     1       0.986   0.753  23.391  0.00  0.00    +0.089 A 
ATOM     18  C   UNL     1       2.710  -0.947  23.785  0.00  0.00    +0.040 A 
ATOM     19  C   UNL     1       1.967   1.696  23.044  0.00  0.00    +0.030 A 
ATOM     20  C   UNL     1       3.673   0.005  23.436  0.00  0.00    +0.057 A 
ATOM     21  C   UNL     1       3.311   1.304  23.071  0.00  0.00    +0.014 A 
ATOM     23  H   UNL     1       0.113  -2.148  24.319  0.00  0.00    +0.167 HD
ENDROOT
BRANCH  12   7
ATOM      4  N   UNL     1      -4.373   0.146  24.605  0.00  0.00    -0.301 NA
ATOM      7  C   UNL     1      -2.261  -0.703  24.044  0.00  0.00    +0.070 C 
ATOM      8  C   UNL     1      -3.253   0.416  23.701  0.00  0.00    +0.095 C 
ATOM      9  C   UNL     1      -2.609  -1.104  25.487  0.00  0.00    +0.028 C 
ATOM     10  C   UNL     1      -3.751  -0.180  25.889  0.00  0.00    +0.085 C 
BRANCH   4  11
ATOM     11  C   UNL     1      -5.291   1.272  24.704  0.00  0.00    +0.087 C 
BRANCH  11  13
ATOM     13  C   UNL     1      -4.573   2.586  25.055  0.00  0.00    -0.003 C 
ATOM     14  C   UNL     1      -4.021   3.231  23.781  0.00  0.00    +0.008 C 
ATOM     15  C   UNL     1      -5.486   3.578  25.780  0.00  0.00    +0.008 C 
ENDBRANCH  11  13
ENDBRANCH   4  11
ENDBRANCH  12   7
BRANCH  20  22
ATOM      1  F   UNL     1       5.811   0.248  24.448  0.00  0.00    -0.166 F 
ATOM      2  F   UNL     1       5.327  -1.712  23.641  0.00  0.00    -0.166 F 
ATOM      3  F   UNL     1       5.776  -0.070  22.297  0.00  0.00    -0.166 F 
ATOM     22  C   UNL     1       5.118  -0.377  23.453  0.00  0.00    +0.417 C 
ENDBRANCH  20  22
TORSDOF 4
ENDMDL
