MODEL 1
REMARK VINA RESULT:       1.1      0.000      0.000
REMARK  Name = 45360646
REMARK  8 active torsions:
REMARK  status: ('A' for Active; 'I' for Inactive)
REMARK    1  A    between atoms: O_3  and  C_32
REMARK    2  A    between atoms: O_3  and  C_33
REMARK    3  A    between atoms: N_6  and  C_9
REMARK    4  A    between atoms: N_6  and  C_17
REMARK    5  A    between atoms: C_10  and  C_14
REMARK    6  A    between atoms: C_14  and  C_16
REMARK    7  A    between atoms: C_16  and  C_18
REMARK    8  A    between atoms: C_17  and  C_19
REMARK                            x       y       z     vdW  Elec       q    Type
REMARK                         _______ _______ _______ _____ _____    ______ ____
ROOT
ATOM      1  O   UNL     1      -0.096   5.703  25.000  0.00  0.00    -0.274 OA
ATOM      4  N   UNL     1      -2.579   3.030  25.086  0.00  0.00    -0.286 NA
ATOM      5  N   UNL     1      -2.319   5.767  24.528  0.00  0.00    -0.313 N 
ATOM      8  C   UNL     1      -1.313   3.682  25.442  0.00  0.00    +0.145 C 
ATOM      9  C   UNL     1      -1.007   1.697  24.078  0.00  0.00    +0.070 C 
ATOM     10  C   UNL     1      -3.751   3.891  25.198  0.00  0.00    +0.075 C 
ATOM     11  C   UNL     1      -0.231   2.794  24.807  0.00  0.00    +0.048 C 
ATOM     12  C   UNL     1      -2.365   2.333  23.820  0.00  0.00    +0.104 C 
ATOM     13  C   UNL     1      -3.599   5.128  24.326  0.00  0.00    +0.123 C 
ATOM     15  C   UNL     1      -1.184   5.121  24.952  0.00  0.00    +0.230 C 
ATOM     34  H   UNL     1      -2.224   6.732  24.224  0.00  0.00    +0.149 HD
ENDROOT
BRANCH   9   6
ATOM      6  N   UNL     1      -0.343   1.236  22.868  0.00  0.00    -0.308 NA
ATOM     35  H   UNL     1      -1.027   1.185  22.113  0.00  0.00    +0.123 HD
BRANCH   6  17
ATOM     17  C   UNL     1       0.245  -0.083  23.064  0.00  0.00    +0.116 C 
BRANCH  17  19
ATOM     19  C   UNL     1       1.749  -0.028  23.090  0.00  0.00    -0.033 A 
ATOM     24  C   UNL     1       2.410   1.158  22.767  0.00  0.00    +0.008 A 
ATOM     25  C   UNL     1       2.483  -1.164  23.435  0.00  0.00    +0.008 A 
ATOM     28  C   UNL     1       3.803   1.208  22.792  0.00  0.00    +0.046 A 
ATOM     29  C   UNL     1       3.876  -1.112  23.459  0.00  0.00    +0.046 A 
ATOM     32  C   UNL     1       4.536   0.073  23.137  0.00  0.00    +0.120 A 
BRANCH  32   3
ATOM      3  O   UNL     1       5.896   0.122  23.161  0.00  0.00    -0.495 OA
ATOM     33  C   UNL     1       6.560  -0.722  24.100  0.00  0.00    +0.277 C 
ENDBRANCH  32   3
ENDBRANCH  17  19
ENDBRANCH   6  17
ENDBRANCH   9   6
BRANCH  10  14
ATOM     14  C   UNL     1      -5.058   3.159  24.889  0.00  0.00    +0.029 C 
BRANCH  14  16
ATOM     16  C   UNL     1      -5.293   1.975  25.816  0.00  0.00    +0.098 C 
BRANCH  16  18
ATOM      2  O   UNL     1      -6.186   0.349  24.340  0.00  0.00    -0.275 OA
ATOM      7  N   UNL     1      -4.075  -0.064  25.245  0.00  0.00    -0.271 N 
ATOM     18  C   UNL     1      -5.237   0.671  25.056  0.00  0.00    +0.220 C 
ATOM     20  C   UNL     1      -2.936   0.325  26.105  0.00  0.00    +0.118 C 
ATOM     21  C   UNL     1      -3.778  -1.309  24.652  0.00  0.00    +0.039 A 
ATOM     22  C   UNL     1      -1.877  -0.778  26.005  0.00  0.00    +0.056 C 
ATOM     23  C   UNL     1      -2.520  -1.750  25.070  0.00  0.00    -0.024 A 
ATOM     26  C   UNL     1      -4.538  -2.071  23.777  0.00  0.00    +0.024 A 
ATOM     27  C   UNL     1      -1.993  -2.953  24.627  0.00  0.00    +0.005 A 
ATOM     30  C   UNL     1      -4.014  -3.287  23.326  0.00  0.00    +0.002 A 
ATOM     31  C   UNL     1      -2.752  -3.725  23.747  0.00  0.00    +0.000 A 
ENDBRANCH  16  18
ENDBRANCH  14  16
ENDBRANCH  10  14
TORSDOF 7
ENDMDL
MODEL 2
REMARK VINA RESULT:       2.0      1.498      2.137
REMARK  Name = 45360646
REMARK  8 active torsions:
REMARK  status: ('A' for Active; 'I' for Inactive)
REMARK    1  A    between atoms: O_3  and  C_32
REMARK    2  A    between atoms: O_3  and  C_33
REMARK    3  A    between atoms: N_6  and  C_9
REMARK    4  A    between atoms: N_6  and  C_17
REMARK    5  A    between atoms: C_10  and  C_14
REMARK    6  A    between atoms: C_14  and  C_16
REMARK    7  A    between atoms: C_16  and  C_18
REMARK    8  A    between atoms: C_17  and  C_19
REMARK                            x       y       z     vdW  Elec       q    Type
REMARK                         _______ _______ _______ _____ _____    ______ ____
ROOT
ATOM      1  O   UNL     1       1.005   2.873  26.863  0.00  0.00    -0.274 OA
ATOM      4  N   UNL     1      -1.887   2.368  24.694  0.00  0.00    -0.286 NA
ATOM      5  N   UNL     1      -0.465   4.390  26.021  0.00  0.00    -0.313 N 
ATOM      8  C   UNL     1      -0.862   1.959  25.663  0.00  0.00    +0.145 C 
ATOM      9  C   UNL     1      -0.581   0.916  23.488  0.00  0.00    +0.070 C 
ATOM     10  C   UNL     1      -2.570   3.611  25.031  0.00  0.00    +0.075 C 
ATOM     11  C   UNL     1       0.015   0.957  24.895  0.00  0.00    +0.048 C 
ATOM     12  C   UNL     1      -1.293   2.256  23.364  0.00  0.00    +0.104 C 
ATOM     13  C   UNL     1      -1.576   4.754  25.172  0.00  0.00    +0.123 C 
ATOM     15  C   UNL     1      -0.018   3.105  26.211  0.00  0.00    +0.230 C 
ATOM     34  H   UNL     1       0.095   5.143  26.409  0.00  0.00    +0.149 HD
ENDROOT
BRANCH   9   6
ATOM      6  N   UNL     1       0.415   0.690  22.453  0.00  0.00    -0.308 NA
ATOM     35  H   UNL     1      -0.049   0.671  21.544  0.00  0.00    +0.123 HD
BRANCH   6  17
ATOM     17  C   UNL     1       1.106  -0.576  22.658  0.00  0.00    +0.116 C 
BRANCH  17  19
ATOM     19  C   UNL     1       2.568  -0.375  22.954  0.00  0.00    -0.033 A 
ATOM     24  C   UNL     1       3.295  -1.379  23.595  0.00  0.00    +0.008 A 
ATOM     25  C   UNL     1       3.196   0.816  22.588  0.00  0.00    +0.008 A 
ATOM     28  C   UNL     1       4.650  -1.192  23.867  0.00  0.00    +0.046 A 
ATOM     29  C   UNL     1       4.551   1.001  22.861  0.00  0.00    +0.046 A 
ATOM     32  C   UNL     1       5.278  -0.002  23.502  0.00  0.00    +0.120 A 
BRANCH  32   3
ATOM      3  O   UNL     1       6.600   0.180  23.767  0.00  0.00    -0.495 OA
ATOM     33  C   UNL     1       7.531  -0.520  22.943  0.00  0.00    +0.277 C 
ENDBRANCH  32   3
ENDBRANCH  17  19
ENDBRANCH   6  17
ENDBRANCH   9   6
BRANCH  10  14
ATOM     14  C   UNL     1      -3.678   3.968  24.039  0.00  0.00    +0.029 C 
BRANCH  14  16
ATOM     16  C   UNL     1      -4.953   3.174  24.282  0.00  0.00    +0.098 C 
BRANCH  16  18
ATOM      2  O   UNL     1      -4.885   2.027  26.355  0.00  0.00    -0.275 OA
ATOM      7  N   UNL     1      -4.217   0.852  24.453  0.00  0.00    -0.271 N 
ATOM     18  C   UNL     1      -4.683   1.962  25.141  0.00  0.00    +0.220 C 
ATOM     20  C   UNL     1      -3.975   0.776  22.996  0.00  0.00    +0.118 C 
ATOM     21  C   UNL     1      -3.891  -0.398  25.021  0.00  0.00    +0.039 A 
ATOM     22  C   UNL     1      -3.473  -0.636  22.678  0.00  0.00    +0.056 C 
ATOM     23  C   UNL     1      -3.457  -1.277  24.027  0.00  0.00    -0.024 A 
ATOM     26  C   UNL     1      -3.951  -0.805  26.346  0.00  0.00    +0.024 A 
ATOM     27  C   UNL     1      -3.077  -2.576  24.328  0.00  0.00    +0.005 A 
ATOM     30  C   UNL     1      -3.569  -2.113  26.659  0.00  0.00    +0.002 A 
ATOM     31  C   UNL     1      -3.135  -2.992  25.658  0.00  0.00    +0.000 A 
ENDBRANCH  16  18
ENDBRANCH  14  16
ENDBRANCH  10  14
TORSDOF 7
ENDMDL
MODEL 3
REMARK VINA RESULT:       2.8      1.788      6.696
REMARK  Name = 45360646
REMARK  8 active torsions:
REMARK  status: ('A' for Active; 'I' for Inactive)
REMARK    1  A    between atoms: O_3  and  C_32
REMARK    2  A    between atoms: O_3  and  C_33
REMARK    3  A    between atoms: N_6  and  C_9
REMARK    4  A    between atoms: N_6  and  C_17
REMARK    5  A    between atoms: C_10  and  C_14
REMARK    6  A    between atoms: C_14  and  C_16
REMARK    7  A    between atoms: C_16  and  C_18
REMARK    8  A    between atoms: C_17  and  C_19
REMARK                            x       y       z     vdW  Elec       q    Type
REMARK                         _______ _______ _______ _____ _____    ______ ____
ROOT
ATOM      1  O   UNL     1      -1.733   6.068  25.302  0.00  0.00    -0.274 OA
ATOM      4  N   UNL     1      -2.270   2.704  23.991  0.00  0.00    -0.286 NA
ATOM      5  N   UNL     1      -0.426   4.215  25.470  0.00  0.00    -0.313 N 
ATOM      8  C   UNL     1      -2.467   4.158  24.047  0.00  0.00    +0.145 C 
ATOM      9  C   UNL     1      -4.447   2.907  24.687  0.00  0.00    +0.070 C 
ATOM     10  C   UNL     1      -0.873   2.286  24.023  0.00  0.00    +0.075 C 
ATOM     11  C   UNL     1      -3.931   4.331  24.480  0.00  0.00    +0.048 C 
ATOM     12  C   UNL     1      -3.182   2.107  24.963  0.00  0.00    +0.104 C 
ATOM     13  C   UNL     1      -0.181   2.804  25.274  0.00  0.00    +0.123 C 
ATOM     15  C   UNL     1      -1.531   4.886  25.006  0.00  0.00    +0.230 C 
ATOM     34  H   UNL     1       0.201   4.717  26.092  0.00  0.00    +0.149 HD
ENDROOT
BRANCH   9   6
ATOM      6  N   UNL     1      -5.440   2.808  25.745  0.00  0.00    -0.308 NA
ATOM     35  H   UNL     1      -4.970   2.878  26.649  0.00  0.00    +0.123 HD
BRANCH   6  17
ATOM     17  C   UNL     1      -6.151   1.538  25.679  0.00  0.00    +0.116 C 
BRANCH  17  19
ATOM     19  C   UNL     1      -5.225   0.392  25.368  0.00  0.00    -0.033 A 
ATOM     24  C   UNL     1      -5.223  -0.177  24.094  0.00  0.00    +0.008 A 
ATOM     25  C   UNL     1      -4.371  -0.101  26.354  0.00  0.00    +0.008 A 
ATOM     28  C   UNL     1      -4.364  -1.238  23.806  0.00  0.00    +0.046 A 
ATOM     29  C   UNL     1      -3.513  -1.162  26.065  0.00  0.00    +0.046 A 
ATOM     32  C   UNL     1      -3.510  -1.731  24.792  0.00  0.00    +0.120 A 
BRANCH  32   3
ATOM      3  O   UNL     1      -2.672  -2.766  24.511  0.00  0.00    -0.495 OA
ATOM     33  C   UNL     1      -1.305  -2.616  24.888  0.00  0.00    +0.277 C 
ENDBRANCH  32   3
ENDBRANCH  17  19
ENDBRANCH   6  17
ENDBRANCH   9   6
BRANCH  10  14
ATOM     14  C   UNL     1      -0.705   0.771  23.891  0.00  0.00    +0.029 C 
BRANCH  14  16
ATOM     16  C   UNL     1       0.152   0.384  22.694  0.00  0.00    +0.098 C 
BRANCH  16  18
ATOM      2  O   UNL     1       1.158  -1.604  23.504  0.00  0.00    -0.275 OA
ATOM      7  N   UNL     1       2.563   0.200  23.040  0.00  0.00    -0.271 N 
ATOM     18  C   UNL     1       1.339  -0.447  23.122  0.00  0.00    +0.220 C 
ATOM     20  C   UNL     1       2.778   1.590  22.581  0.00  0.00    +0.118 C 
ATOM     21  C   UNL     1       3.816  -0.353  23.378  0.00  0.00    +0.039 A 
ATOM     22  C   UNL     1       4.281   1.877  22.648  0.00  0.00    +0.056 C 
ATOM     23  C   UNL     1       4.827   0.587  23.167  0.00  0.00    -0.024 A 
ATOM     26  C   UNL     1       4.119  -1.619  23.857  0.00  0.00    +0.024 A 
ATOM     27  C   UNL     1       6.156   0.288  23.424  0.00  0.00    +0.005 A 
ATOM     30  C   UNL     1       5.457  -1.929  24.121  0.00  0.00    +0.002 A 
ATOM     31  C   UNL     1       6.468  -0.984  23.907  0.00  0.00    +0.000 A 
ENDBRANCH  16  18
ENDBRANCH  14  16
ENDBRANCH  10  14
TORSDOF 7
ENDMDL
MODEL 4
REMARK VINA RESULT:       3.1      2.329      4.263
REMARK  Name = 45360646
REMARK  8 active torsions:
REMARK  status: ('A' for Active; 'I' for Inactive)
REMARK    1  A    between atoms: O_3  and  C_32
REMARK    2  A    between atoms: O_3  and  C_33
REMARK    3  A    between atoms: N_6  and  C_9
REMARK    4  A    between atoms: N_6  and  C_17
REMARK    5  A    between atoms: C_10  and  C_14
REMARK    6  A    between atoms: C_14  and  C_16
REMARK    7  A    between atoms: C_16  and  C_18
REMARK    8  A    between atoms: C_17  and  C_19
REMARK                            x       y       z     vdW  Elec       q    Type
REMARK                         _______ _______ _______ _____ _____    ______ ____
ROOT
ATOM      1  O   UNL     1      -0.891  -1.010  26.458  0.00  0.00    -0.274 OA
ATOM      4  N   UNL     1      -0.865   2.028  24.434  0.00  0.00    -0.286 NA
ATOM      5  N   UNL     1      -0.156   1.079  26.977  0.00  0.00    -0.313 N 
ATOM      8  C   UNL     1      -1.323   0.686  24.815  0.00  0.00    +0.145 C 
ATOM      9  C   UNL     1      -0.144   0.720  22.692  0.00  0.00    +0.070 C 
ATOM     10  C   UNL     1      -0.778   2.970  25.545  0.00  0.00    +0.075 C 
ATOM     11  C   UNL     1      -0.884  -0.215  23.649  0.00  0.00    +0.048 C 
ATOM     12  C   UNL     1       0.316   1.858  23.592  0.00  0.00    +0.104 C 
ATOM     13  C   UNL     1       0.153   2.446  26.627  0.00  0.00    +0.123 C 
ATOM     15  C   UNL     1      -0.755   0.174  26.135  0.00  0.00    +0.230 C 
ATOM     34  H   UNL     1       0.200   0.730  27.863  0.00  0.00    +0.149 HD
ENDROOT
BRANCH   9   6
ATOM      6  N   UNL     1       0.943   0.066  21.981  0.00  0.00    -0.308 NA
ATOM     35  H   UNL     1       0.568  -0.395  21.152  0.00  0.00    +0.123 HD
BRANCH   6  17
ATOM     17  C   UNL     1       1.594  -0.930  22.823  0.00  0.00    +0.116 C 
BRANCH  17  19
ATOM     19  C   UNL     1       3.037  -0.589  23.081  0.00  0.00    -0.033 A 
ATOM     24  C   UNL     1       3.870  -1.512  23.714  0.00  0.00    +0.008 A 
ATOM     25  C   UNL     1       3.541   0.651  22.690  0.00  0.00    +0.008 A 
ATOM     28  C   UNL     1       5.207  -1.195  23.953  0.00  0.00    +0.046 A 
ATOM     29  C   UNL     1       4.879   0.967  22.929  0.00  0.00    +0.046 A 
ATOM     32  C   UNL     1       5.711   0.044  23.561  0.00  0.00    +0.120 A 
BRANCH  32   3
ATOM      3  O   UNL     1       7.016   0.353  23.794  0.00  0.00    -0.495 OA
ATOM     33  C   UNL     1       7.997  -0.380  23.063  0.00  0.00    +0.277 C 
ENDBRANCH  32   3
ENDBRANCH  17  19
ENDBRANCH   6  17
ENDBRANCH   9   6
BRANCH  10  14
ATOM     14  C   UNL     1      -0.367   4.375  25.100  0.00  0.00    +0.029 C 
BRANCH  14  16
ATOM     16  C   UNL     1      -1.531   5.354  25.119  0.00  0.00    +0.098 C 
BRANCH  16  18
ATOM      2  O   UNL     1      -3.084   5.041  26.883  0.00  0.00    -0.275 OA
ATOM      7  N   UNL     1      -3.425   3.825  24.920  0.00  0.00    -0.271 N 
ATOM     18  C   UNL     1      -2.758   4.727  25.737  0.00  0.00    +0.220 C 
ATOM     20  C   UNL     1      -3.033   3.450  23.544  0.00  0.00    +0.118 C 
ATOM     21  C   UNL     1      -4.592   3.108  25.259  0.00  0.00    +0.039 A 
ATOM     22  C   UNL     1      -4.056   2.434  23.027  0.00  0.00    +0.056 C 
ATOM     23  C   UNL     1      -4.981   2.296  24.192  0.00  0.00    -0.024 A 
ATOM     26  C   UNL     1      -5.324   3.125  26.437  0.00  0.00    +0.024 A 
ATOM     27  C   UNL     1      -6.105   1.487  24.273  0.00  0.00    +0.005 A 
ATOM     30  C   UNL     1      -6.459   2.311  26.527  0.00  0.00    +0.002 A 
ATOM     31  C   UNL     1      -6.846   1.499  25.454  0.00  0.00    +0.000 A 
ENDBRANCH  16  18
ENDBRANCH  14  16
ENDBRANCH  10  14
TORSDOF 7
ENDMDL
MODEL 5
REMARK VINA RESULT:       4.5      2.123      7.512
REMARK  Name = 45360646
REMARK  8 active torsions:
REMARK  status: ('A' for Active; 'I' for Inactive)
REMARK    1  A    between atoms: O_3  and  C_32
REMARK    2  A    between atoms: O_3  and  C_33
REMARK    3  A    between atoms: N_6  and  C_9
REMARK    4  A    between atoms: N_6  and  C_17
REMARK    5  A    between atoms: C_10  and  C_14
REMARK    6  A    between atoms: C_14  and  C_16
REMARK    7  A    between atoms: C_16  and  C_18
REMARK    8  A    between atoms: C_17  and  C_19
REMARK                            x       y       z     vdW  Elec       q    Type
REMARK                         _______ _______ _______ _____ _____    ______ ____
ROOT
ATOM      1  O   UNL     1      -3.678  -3.481  25.438  0.00  0.00    -0.274 OA
ATOM      4  N   UNL     1      -2.471  -0.040  25.273  0.00  0.00    -0.286 NA
ATOM      5  N   UNL     1      -2.134  -2.545  24.055  0.00  0.00    -0.313 N 
ATOM      8  C   UNL     1      -3.095  -1.203  25.918  0.00  0.00    +0.145 C 
ATOM      9  C   UNL     1      -4.657   0.613  25.522  0.00  0.00    +0.070 C 
ATOM     10  C   UNL     1      -1.217  -0.334  24.589  0.00  0.00    +0.075 C 
ATOM     11  C   UNL     1      -4.558  -0.786  26.130  0.00  0.00    +0.048 C 
ATOM     12  C   UNL     1      -3.516   0.644  24.515  0.00  0.00    +0.104 C 
ATOM     13  C   UNL     1      -1.416  -1.407  23.530  0.00  0.00    +0.123 C 
ATOM     15  C   UNL     1      -3.014  -2.493  25.109  0.00  0.00    +0.230 C 
ATOM     34  H   UNL     1      -2.074  -3.417  23.537  0.00  0.00    +0.149 HD
ENDROOT
BRANCH   9   6
ATOM      6  N   UNL     1      -5.958   0.890  24.933  0.00  0.00    -0.308 NA
ATOM     35  H   UNL     1      -5.974   0.529  23.979  0.00  0.00    +0.123 HD
BRANCH   6  17
ATOM     17  C   UNL     1      -6.226   2.322  24.903  0.00  0.00    +0.116 C 
BRANCH  17  19
ATOM     19  C   UNL     1      -4.958   3.131  24.966  0.00  0.00    -0.033 A 
ATOM     24  C   UNL     1      -4.308   3.502  23.789  0.00  0.00    +0.008 A 
ATOM     25  C   UNL     1      -4.432   3.508  26.202  0.00  0.00    +0.008 A 
ATOM     28  C   UNL     1      -3.133   4.252  23.848  0.00  0.00    +0.046 A 
ATOM     29  C   UNL     1      -3.257   4.257  26.260  0.00  0.00    +0.046 A 
ATOM     32  C   UNL     1      -2.608   4.629  25.083  0.00  0.00    +0.120 A 
BRANCH  32   3
ATOM      3  O   UNL     1      -1.462   5.361  25.140  0.00  0.00    -0.495 OA
ATOM     33  C   UNL     1      -0.253   4.707  24.760  0.00  0.00    +0.277 C 
ENDBRANCH  32   3
ENDBRANCH  17  19
ENDBRANCH   6  17
ENDBRANCH   9   6
BRANCH  10  14
ATOM     14  C   UNL     1      -0.562   0.913  23.991  0.00  0.00    +0.029 C 
BRANCH  14  16
ATOM     16  C   UNL     1       0.317   0.588  22.792  0.00  0.00    +0.098 C 
BRANCH  16  18
ATOM      2  O   UNL     1       1.265  -1.439  23.573  0.00  0.00    -0.275 OA
ATOM      7  N   UNL     1       2.726   0.315  23.087  0.00  0.00    -0.271 N 
ATOM     18  C   UNL     1       1.481  -0.287  23.192  0.00  0.00    +0.220 C 
ATOM     20  C   UNL     1       2.982   1.698  22.629  0.00  0.00    +0.118 C 
ATOM     21  C   UNL     1       3.965  -0.285  23.398  0.00  0.00    +0.039 A 
ATOM     22  C   UNL     1       4.496   1.929  22.667  0.00  0.00    +0.056 C 
ATOM     23  C   UNL     1       5.005   0.618  23.169  0.00  0.00    -0.024 A 
ATOM     26  C   UNL     1       4.230  -1.564  23.866  0.00  0.00    +0.024 A 
ATOM     27  C   UNL     1       6.327   0.269  23.399  0.00  0.00    +0.005 A 
ATOM     30  C   UNL     1       5.561  -1.924  24.101  0.00  0.00    +0.002 A 
ATOM     31  C   UNL     1       6.602  -1.015  23.870  0.00  0.00    +0.000 A 
ENDBRANCH  16  18
ENDBRANCH  14  16
ENDBRANCH  10  14
TORSDOF 7
ENDMDL
MODEL 6
REMARK VINA RESULT:       4.7      1.758      4.971
REMARK  Name = 45360646
REMARK  8 active torsions:
REMARK  status: ('A' for Active; 'I' for Inactive)
REMARK    1  A    between atoms: O_3  and  C_32
REMARK    2  A    between atoms: O_3  and  C_33
REMARK    3  A    between atoms: N_6  and  C_9
REMARK    4  A    between atoms: N_6  and  C_17
REMARK    5  A    between atoms: C_10  and  C_14
REMARK    6  A    between atoms: C_14  and  C_16
REMARK    7  A    between atoms: C_16  and  C_18
REMARK    8  A    between atoms: C_17  and  C_19
REMARK                            x       y       z     vdW  Elec       q    Type
REMARK                         _______ _______ _______ _____ _____    ______ ____
ROOT
ATOM      1  O   UNL     1      -1.467  -3.629  25.736  0.00  0.00    -0.274 OA
ATOM      4  N   UNL     1      -3.026  -0.946  23.815  0.00  0.00    -0.286 NA
ATOM      5  N   UNL     1      -3.118  -2.183  26.331  0.00  0.00    -0.313 N 
ATOM      8  C   UNL     1      -2.277  -2.197  23.989  0.00  0.00    +0.145 C 
ATOM      9  C   UNL     1      -0.917  -0.391  23.101  0.00  0.00    +0.070 C 
ATOM     10  C   UNL     1      -4.252  -0.867  24.601  0.00  0.00    +0.075 C 
ATOM     11  C   UNL     1      -0.861  -1.869  23.488  0.00  0.00    +0.048 C 
ATOM     12  C   UNL     1      -2.069   0.151  23.935  0.00  0.00    +0.104 C 
ATOM     13  C   UNL     1      -3.958  -1.034  26.083  0.00  0.00    +0.123 C 
ATOM     15  C   UNL     1      -2.234  -2.714  25.424  0.00  0.00    +0.230 C 
ATOM     34  H   UNL     1      -3.094  -2.551  27.278  0.00  0.00    +0.149 HD
ENDROOT
BRANCH   9   6
ATOM      6  N   UNL     1       0.340   0.305  23.325  0.00  0.00    -0.308 NA
ATOM     35  H   UNL     1       0.161   1.309  23.363  0.00  0.00    +0.123 HD
BRANCH   6  17
ATOM     17  C   UNL     1       1.288   0.033  22.252  0.00  0.00    +0.116 C 
BRANCH  17  19
ATOM     19  C   UNL     1       2.698  -0.084  22.765  0.00  0.00    -0.033 A 
ATOM     24  C   UNL     1       3.582   0.986  22.629  0.00  0.00    +0.008 A 
ATOM     25  C   UNL     1       3.121  -1.265  23.376  0.00  0.00    +0.008 A 
ATOM     28  C   UNL     1       4.888   0.877  23.106  0.00  0.00    +0.046 A 
ATOM     29  C   UNL     1       4.427  -1.374  23.853  0.00  0.00    +0.046 A 
ATOM     32  C   UNL     1       5.311  -0.303  23.717  0.00  0.00    +0.120 A 
BRANCH  32   3
ATOM      3  O   UNL     1       6.585  -0.410  24.183  0.00  0.00    -0.495 OA
ATOM     33  C   UNL     1       7.639  -0.237  23.237  0.00  0.00    +0.277 C 
ENDBRANCH  32   3
ENDBRANCH  17  19
ENDBRANCH   6  17
ENDBRANCH   9   6
BRANCH  10  14
ATOM     14  C   UNL     1      -5.042   0.417  24.340  0.00  0.00    +0.029 C 
BRANCH  14  16
ATOM     16  C   UNL     1      -5.090   1.327  25.558  0.00  0.00    +0.098 C 
BRANCH  16  18
ATOM      2  O   UNL     1      -5.335   3.587  24.884  0.00  0.00    -0.275 OA
ATOM      7  N   UNL     1      -3.178   2.835  25.362  0.00  0.00    -0.271 N 
ATOM     18  C   UNL     1      -4.553   2.701  25.232  0.00  0.00    +0.220 C 
ATOM     20  C   UNL     1      -2.241   1.769  25.780  0.00  0.00    +0.118 C 
ATOM     21  C   UNL     1      -2.434   4.008  25.118  0.00  0.00    +0.039 A 
ATOM     22  C   UNL     1      -0.830   2.366  25.790  0.00  0.00    +0.056 C 
ATOM     23  C   UNL     1      -1.078   3.772  25.353  0.00  0.00    -0.024 A 
ATOM     26  C   UNL     1      -2.872   5.258  24.705  0.00  0.00    +0.024 A 
ATOM     27  C   UNL     1      -0.132   4.772  25.185  0.00  0.00    +0.005 A 
ATOM     30  C   UNL     1      -1.925   6.272  24.532  0.00  0.00    +0.002 A 
ATOM     31  C   UNL     1      -0.565   6.031  24.770  0.00  0.00    +0.000 A 
ENDBRANCH  16  18
ENDBRANCH  14  16
ENDBRANCH  10  14
TORSDOF 7
ENDMDL
MODEL 7
REMARK VINA RESULT:       4.8      2.514      5.724
REMARK  Name = 45360646
REMARK  8 active torsions:
REMARK  status: ('A' for Active; 'I' for Inactive)
REMARK    1  A    between atoms: O_3  and  C_32
REMARK    2  A    between atoms: O_3  and  C_33
REMARK    3  A    between atoms: N_6  and  C_9
REMARK    4  A    between atoms: N_6  and  C_17
REMARK    5  A    between atoms: C_10  and  C_14
REMARK    6  A    between atoms: C_14  and  C_16
REMARK    7  A    between atoms: C_16  and  C_18
REMARK    8  A    between atoms: C_17  and  C_19
REMARK                            x       y       z     vdW  Elec       q    Type
REMARK                         _______ _______ _______ _____ _____    ______ ____
ROOT
ATOM      1  O   UNL     1      -0.344  -0.753  27.693  0.00  0.00    -0.274 OA
ATOM      4  N   UNL     1      -1.525  -2.315  24.612  0.00  0.00    -0.286 NA
ATOM      5  N   UNL     1      -2.468  -1.098  26.958  0.00  0.00    -0.313 N 
ATOM      8  C   UNL     1      -0.553  -2.042  25.679  0.00  0.00    +0.145 C 
ATOM      9  C   UNL     1       0.123  -1.145  23.526  0.00  0.00    +0.070 C 
ATOM     10  C   UNL     1      -2.865  -2.636  25.090  0.00  0.00    +0.075 C 
ATOM     11  C   UNL     1       0.585  -1.284  24.977  0.00  0.00    +0.048 C 
ATOM     12  C   UNL     1      -1.393  -1.248  23.624  0.00  0.00    +0.104 C 
ATOM     13  C   UNL     1      -3.418  -1.512  25.951  0.00  0.00    +0.123 C 
ATOM     15  C   UNL     1      -1.105  -1.227  26.844  0.00  0.00    +0.230 C 
ATOM     34  H   UNL     1      -2.824  -0.570  27.750  0.00  0.00    +0.149 HD
ENDROOT
BRANCH   9   6
ATOM      6  N   UNL     1       0.582   0.083  22.896  0.00  0.00    -0.308 NA
ATOM     35  H   UNL     1       1.190  -0.153  22.112  0.00  0.00    +0.123 HD
BRANCH   6  17
ATOM     17  C   UNL     1       1.325   0.910  23.839  0.00  0.00    +0.116 C 
BRANCH  17  19
ATOM     19  C   UNL     1       0.494   2.052  24.360  0.00  0.00    -0.033 A 
ATOM     24  C   UNL     1      -0.184   1.925  25.573  0.00  0.00    +0.008 A 
ATOM     25  C   UNL     1       0.401   3.236  23.629  0.00  0.00    +0.008 A 
ATOM     28  C   UNL     1      -0.953   2.984  26.054  0.00  0.00    +0.046 A 
ATOM     29  C   UNL     1      -0.368   4.294  24.112  0.00  0.00    +0.046 A 
ATOM     32  C   UNL     1      -1.046   4.168  25.324  0.00  0.00    +0.120 A 
BRANCH  32   3
ATOM      3  O   UNL     1      -1.796   5.202  25.795  0.00  0.00    -0.495 OA
ATOM     33  C   UNL     1      -1.850   6.382  24.995  0.00  0.00    +0.277 C 
ENDBRANCH  32   3
ENDBRANCH  17  19
ENDBRANCH   6  17
ENDBRANCH   9   6
BRANCH  10  14
ATOM     14  C   UNL     1      -3.831  -2.984  23.956  0.00  0.00    +0.029 C 
BRANCH  14  16
ATOM     16  C   UNL     1      -4.173  -1.778  23.093  0.00  0.00    +0.098 C 
BRANCH  16  18
ATOM      2  O   UNL     1      -5.747  -0.984  24.677  0.00  0.00    -0.275 OA
ATOM      7  N   UNL     1      -4.306   0.580  23.716  0.00  0.00    -0.271 N 
ATOM     18  C   UNL     1      -4.826  -0.692  23.912  0.00  0.00    +0.220 C 
ATOM     20  C   UNL     1      -3.200   0.929  22.797  0.00  0.00    +0.118 C 
ATOM     21  C   UNL     1      -4.738   1.759  24.357  0.00  0.00    +0.039 A 
ATOM     22  C   UNL     1      -2.956   2.437  22.911  0.00  0.00    +0.056 C 
ATOM     23  C   UNL     1      -3.984   2.848  23.915  0.00  0.00    -0.024 A 
ATOM     26  C   UNL     1      -5.745   1.933  25.295  0.00  0.00    +0.024 A 
ATOM     27  C   UNL     1      -4.213   4.128  24.396  0.00  0.00    +0.005 A 
ATOM     30  C   UNL     1      -5.984   3.221  25.785  0.00  0.00    +0.002 A 
ATOM     31  C   UNL     1      -5.224   4.310  25.340  0.00  0.00    +0.000 A 
ENDBRANCH  16  18
ENDBRANCH  14  16
ENDBRANCH  10  14
TORSDOF 7
ENDMDL
MODEL 8
REMARK VINA RESULT:       5.0      1.933      4.776
REMARK  Name = 45360646
REMARK  8 active torsions:
REMARK  status: ('A' for Active; 'I' for Inactive)
REMARK    1  A    between atoms: O_3  and  C_32
REMARK    2  A    between atoms: O_3  and  C_33
REMARK    3  A    between atoms: N_6  and  C_9
REMARK    4  A    between atoms: N_6  and  C_17
REMARK    5  A    between atoms: C_10  and  C_14
REMARK    6  A    between atoms: C_14  and  C_16
REMARK    7  A    between atoms: C_16  and  C_18
REMARK    8  A    between atoms: C_17  and  C_19
REMARK                            x       y       z     vdW  Elec       q    Type
REMARK                         _______ _______ _______ _____ _____    ______ ____
ROOT
ATOM      1  O   UNL     1      -0.745  -1.391  27.889  0.00  0.00    -0.274 OA
ATOM      4  N   UNL     1      -2.060  -1.772  24.506  0.00  0.00    -0.286 NA
ATOM      5  N   UNL     1      -2.824  -0.954  27.079  0.00  0.00    -0.313 N 
ATOM      8  C   UNL     1      -1.133  -2.043  25.612  0.00  0.00    +0.145 C 
ATOM      9  C   UNL     1      -0.086  -0.868  23.763  0.00  0.00    +0.070 C 
ATOM     10  C   UNL     1      -3.469  -1.822  24.878  0.00  0.00    +0.075 C 
ATOM     11  C   UNL     1       0.213  -1.478  25.133  0.00  0.00    +0.048 C 
ATOM     12  C   UNL     1      -1.579  -0.574  23.823  0.00  0.00    +0.104 C 
ATOM     13  C   UNL     1      -3.771  -0.834  25.994  0.00  0.00    +0.123 C 
ATOM     15  C   UNL     1      -1.538  -1.418  26.943  0.00  0.00    +0.230 C 
ATOM     34  H   UNL     1      -3.087  -0.558  27.977  0.00  0.00    +0.149 HD
ENDROOT
BRANCH   9   6
ATOM      6  N   UNL     1       0.725   0.303  23.470  0.00  0.00    -0.308 NA
ATOM     35  H   UNL     1       0.111   1.077  23.215  0.00  0.00    +0.123 HD
BRANCH   6  17
ATOM     17  C   UNL     1       1.641   0.043  22.367  0.00  0.00    +0.116 C 
BRANCH  17  19
ATOM     19  C   UNL     1       3.067  -0.068  22.837  0.00  0.00    -0.033 A 
ATOM     24  C   UNL     1       3.526  -1.259  23.400  0.00  0.00    +0.008 A 
ATOM     25  C   UNL     1       3.929   1.021  22.711  0.00  0.00    +0.008 A 
ATOM     28  C   UNL     1       4.847  -1.361  23.835  0.00  0.00    +0.046 A 
ATOM     29  C   UNL     1       5.250   0.919  23.146  0.00  0.00    +0.046 A 
ATOM     32  C   UNL     1       5.709  -0.272  23.709  0.00  0.00    +0.120 A 
BRANCH  32   3
ATOM      3  O   UNL     1       6.998  -0.372  24.132  0.00  0.00    -0.495 OA
ATOM     33  C   UNL     1       8.015  -0.342  23.132  0.00  0.00    +0.277 C 
ENDBRANCH  32   3
ENDBRANCH  17  19
ENDBRANCH   6  17
ENDBRANCH   9   6
BRANCH  10  14
ATOM     14  C   UNL     1      -4.405  -1.606  23.687  0.00  0.00    +0.029 C 
BRANCH  14  16
ATOM     16  C   UNL     1      -4.946  -0.186  23.623  0.00  0.00    +0.098 C 
BRANCH  16  18
ATOM      2  O   UNL     1      -2.938   0.659  22.689  0.00  0.00    -0.275 OA
ATOM      7  N   UNL     1      -3.901   1.866  24.439  0.00  0.00    -0.271 N 
ATOM     18  C   UNL     1      -3.823   0.820  23.531  0.00  0.00    +0.220 C 
ATOM     20  C   UNL     1      -4.965   2.057  25.449  0.00  0.00    +0.118 C 
ATOM     21  C   UNL     1      -2.982   2.930  24.557  0.00  0.00    +0.039 A 
ATOM     22  C   UNL     1      -4.650   3.342  26.221  0.00  0.00    +0.056 C 
ATOM     23  C   UNL     1      -3.382   3.796  25.576  0.00  0.00    -0.024 A 
ATOM     26  C   UNL     1      -1.826   3.178  23.832  0.00  0.00    +0.024 A 
ATOM     27  C   UNL     1      -2.644   4.927  25.893  0.00  0.00    +0.005 A 
ATOM     30  C   UNL     1      -1.075   4.316  24.146  0.00  0.00    +0.002 A 
ATOM     31  C   UNL     1      -1.481   5.184  25.168  0.00  0.00    +0.000 A 
ENDBRANCH  16  18
ENDBRANCH  14  16
ENDBRANCH  10  14
TORSDOF 7
ENDMDL
