MODEL 1
REMARK VINA RESULT:       3.3      0.000      0.000
REMARK  Name = 23757127
REMARK  14 active torsions:
REMARK  status: ('A' for Active; 'I' for Inactive)
REMARK    1  A    between atoms: O_1  and  C_15
REMARK    2  A    between atoms: O_1  and  C_24
REMARK    3  A    between atoms: O_2  and  C_16
REMARK    4  A    between atoms: O_3  and  C_20
REMARK    5  A    between atoms: O_6  and  C_36
REMARK    6  A    between atoms: O_6  and  C_38
REMARK    7  A    between atoms: N_7  and  C_25
REMARK    8  A    between atoms: N_8  and  C_26
REMARK    9  A    between atoms: C_9  and  C_19
REMARK   10  A    between atoms: C_11  and  C_20
REMARK   11  A    between atoms: C_11  and  C_21
REMARK   12  A    between atoms: C_12  and  C_22
REMARK   13  A    between atoms: C_22  and  C_23
REMARK   14  A    between atoms: C_25  and  C_27
REMARK                            x       y       z     vdW  Elec       q    Type
REMARK                         _______ _______ _______ _____ _____    ______ ____
ROOT
ATOM      9  C   UNL     1      -2.990   1.695  24.834  0.00  0.00    -0.023 C 
ATOM     10  C   UNL     1      -4.062   0.649  24.360  0.00  0.00    +0.007 C 
ATOM     11  C   UNL     1      -3.599  -0.865  24.374  0.00  0.00    +0.031 C 
ATOM     12  C   UNL     1      -3.569   3.148  24.577  0.00  0.00    +0.032 C 
ATOM     13  C   UNL     1      -1.687   1.517  23.988  0.00  0.00    +0.011 C 
ATOM     14  C   UNL     1      -5.434   0.885  25.027  0.00  0.00    +0.007 C 
ATOM     15  C   UNL     1      -2.083  -1.003  24.021  0.00  0.00    +0.186 C 
ATOM     16  C   UNL     1      -4.982   3.380  25.164  0.00  0.00    +0.119 C 
ATOM     17  C   UNL     1      -1.572   0.192  23.227  0.00  0.00    +0.046 C 
ATOM     18  C   UNL     1      -5.959   2.290  24.740  0.00  0.00    +0.032 C 
ATOM     19  C   UNL     1      -2.626   1.522  26.329  0.00  0.00    +0.012 C 
ATOM     21  C   UNL     1      -4.388  -1.601  23.251  0.00  0.00    +0.017 C 
ENDROOT
BRANCH  16   2
ATOM      2  O   UNL     1      -4.974   3.446  26.586  0.00  0.00    -0.391 OA
ATOM     39  H   UNL     1      -5.895   3.386  26.891  0.00  0.00    +0.210 HD
ENDBRANCH  16   2
BRANCH  15   1
ATOM      1  O   UNL     1      -1.249  -1.148  25.168  0.00  0.00    -0.446 OA
BRANCH   1  24
ATOM      5  O   UNL     1       0.610  -2.473  25.300  0.00  0.00    -0.226 OA
ATOM      8  N   UNL     1       0.635  -0.400  24.214  0.00  0.00    -0.251 N 
ATOM     24  C   UNL     1       0.070  -1.440  24.926  0.00  0.00    +0.405 C 
ATOM     42  H   UNL     1       0.020   0.379  23.991  0.00  0.00    +0.158 HD
BRANCH   8  26
ATOM     26  C   UNL     1       1.967  -0.282  23.754  0.00  0.00    +0.037 A 
ATOM     28  C   UNL     1       2.841  -1.344  23.924  0.00  0.00    +0.027 A 
ATOM     29  C   UNL     1       2.373   0.892  23.142  0.00  0.00    +0.027 A 
ATOM     32  C   UNL     1       4.155  -1.228  23.471  0.00  0.00    +0.047 A 
ATOM     33  C   UNL     1       3.686   1.009  22.688  0.00  0.00    +0.047 A 
ATOM     36  C   UNL     1       4.577  -0.052  22.852  0.00  0.00    +0.120 A 
BRANCH  36   6
ATOM      6  O   UNL     1       5.859   0.062  22.411  0.00  0.00    -0.495 OA
ATOM     38  C   UNL     1       6.894  -0.340  23.309  0.00  0.00    +0.277 C 
ENDBRANCH  36   6
ENDBRANCH   8  26
ENDBRANCH   1  24
ENDBRANCH  15   1
BRANCH  11  20
ATOM     20  C   UNL     1      -3.944  -1.598  25.688  0.00  0.00    +0.166 C 
BRANCH  20   3
ATOM      3  O   UNL     1      -3.508  -2.934  25.567  0.00  0.00    -0.394 OA
ATOM     40  H   UNL     1      -3.278  -3.081  24.634  0.00  0.00    +0.209 HD
ENDBRANCH  20   3
ENDBRANCH  11  20
BRANCH  12  22
ATOM     22  C   UNL     1      -2.624   4.288  24.994  0.00  0.00    +0.102 C 
BRANCH  22  23
ATOM      4  O   UNL     1      -0.539   4.085  23.782  0.00  0.00    -0.276 OA
ATOM      7  N   UNL     1      -0.667   3.341  25.979  0.00  0.00    -0.311 N 
ATOM     23  C   UNL     1      -1.172   3.909  24.819  0.00  0.00    +0.214 C 
ATOM     41  H   UNL     1      -1.280   3.209  26.779  0.00  0.00    +0.149 HD
BRANCH   7  25
ATOM     25  C   UNL     1       0.697   2.879  26.104  0.00  0.00    +0.139 C 
BRANCH  25  27
ATOM     27  C   UNL     1       1.117   2.751  27.540  0.00  0.00    -0.030 A 
ATOM     30  C   UNL     1       0.168   2.456  28.511  0.00  0.00    +0.005 A 
ATOM     31  C   UNL     1       2.453   2.928  27.884  0.00  0.00    +0.005 A 
ATOM     34  C   UNL     1       0.558   2.336  29.845  0.00  0.00    +0.000 A 
ATOM     35  C   UNL     1       2.843   2.808  29.218  0.00  0.00    +0.000 A 
ATOM     37  C   UNL     1       1.896   2.513  30.198  0.00  0.00    +0.000 A 
ENDBRANCH  25  27
ENDBRANCH   7  25
ENDBRANCH  22  23
ENDBRANCH  12  22
TORSDOF 11
ENDMDL
MODEL 2
REMARK VINA RESULT:       4.0      2.088      4.897
REMARK  Name = 23757127
REMARK  14 active torsions:
REMARK  status: ('A' for Active; 'I' for Inactive)
REMARK    1  A    between atoms: O_1  and  C_15
REMARK    2  A    between atoms: O_1  and  C_24
REMARK    3  A    between atoms: O_2  and  C_16
REMARK    4  A    between atoms: O_3  and  C_20
REMARK    5  A    between atoms: O_6  and  C_36
REMARK    6  A    between atoms: O_6  and  C_38
REMARK    7  A    between atoms: N_7  and  C_25
REMARK    8  A    between atoms: N_8  and  C_26
REMARK    9  A    between atoms: C_9  and  C_19
REMARK   10  A    between atoms: C_11  and  C_20
REMARK   11  A    between atoms: C_11  and  C_21
REMARK   12  A    between atoms: C_12  and  C_22
REMARK   13  A    between atoms: C_22  and  C_23
REMARK   14  A    between atoms: C_25  and  C_27
REMARK                            x       y       z     vdW  Elec       q    Type
REMARK                         _______ _______ _______ _____ _____    ______ ____
ROOT
ATOM      9  C   UNL     1      -2.887   2.536  24.793  0.00  0.00    -0.023 C 
ATOM     10  C   UNL     1      -1.705   3.310  25.479  0.00  0.00    +0.007 C 
ATOM     11  C   UNL     1      -0.248   2.824  25.093  0.00  0.00    +0.031 C 
ATOM     12  C   UNL     1      -4.246   3.038  25.438  0.00  0.00    +0.032 C 
ATOM     13  C   UNL     1      -2.732   1.006  25.077  0.00  0.00    +0.011 C 
ATOM     14  C   UNL     1      -1.890   4.841  25.394  0.00  0.00    +0.007 C 
ATOM     15  C   UNL     1      -0.207   1.280  24.849  0.00  0.00    +0.186 C 
ATOM     16  C   UNL     1      -4.415   4.576  25.441  0.00  0.00    +0.119 C 
ATOM     17  C   UNL     1      -1.348   0.561  25.557  0.00  0.00    +0.046 C 
ATOM     18  C   UNL     1      -3.203   5.280  26.039  0.00  0.00    +0.032 C 
ATOM     19  C   UNL     1      -2.913   2.746  23.260  0.00  0.00    +0.012 C 
ATOM     21  C   UNL     1       0.674   3.108  26.315  0.00  0.00    +0.017 C 
ENDROOT
BRANCH  16   2
ATOM      2  O   UNL     1      -4.638   5.100  24.136  0.00  0.00    -0.391 OA
ATOM     39  H   UNL     1      -3.781   5.391  23.782  0.00  0.00    +0.210 HD
ENDBRANCH  16   2
BRANCH  15   1
ATOM      1  O   UNL     1      -0.264   0.927  23.469  0.00  0.00    -0.446 OA
BRANCH   1  24
ATOM      5  O   UNL     1       0.759  -0.550  22.054  0.00  0.00    -0.226 OA
ATOM      8  N   UNL     1       1.953   0.665  23.659  0.00  0.00    -0.251 N 
ATOM     24  C   UNL     1       0.827   0.261  22.968  0.00  0.00    +0.405 C 
ATOM     42  H   UNL     1       1.807   1.356  24.391  0.00  0.00    +0.158 HD
BRANCH   8  26
ATOM     26  C   UNL     1       3.288   0.236  23.474  0.00  0.00    +0.037 A 
ATOM     28  C   UNL     1       3.642  -1.055  23.832  0.00  0.00    +0.027 A 
ATOM     29  C   UNL     1       4.215   1.115  22.940  0.00  0.00    +0.027 A 
ATOM     32  C   UNL     1       4.959  -1.477  23.651  0.00  0.00    +0.047 A 
ATOM     33  C   UNL     1       5.532   0.693  22.758  0.00  0.00    +0.047 A 
ATOM     36  C   UNL     1       5.903  -0.604  23.113  0.00  0.00    +0.120 A 
BRANCH  36   6
ATOM      6  O   UNL     1       7.188  -1.016  22.937  0.00  0.00    -0.495 OA
ATOM     38  C   UNL     1       8.217  -0.057  23.183  0.00  0.00    +0.277 C 
ENDBRANCH  36   6
ENDBRANCH   8  26
ENDBRANCH   1  24
ENDBRANCH  15   1
BRANCH  11  20
ATOM     20  C   UNL     1       0.363   3.601  23.908  0.00  0.00    +0.166 C 
BRANCH  20   3
ATOM      3  O   UNL     1      -0.180   4.904  23.917  0.00  0.00    -0.394 OA
ATOM     40  H   UNL     1      -1.063   4.852  23.515  0.00  0.00    +0.209 HD
ENDBRANCH  20   3
ENDBRANCH  11  20
BRANCH  12  22
ATOM     22  C   UNL     1      -5.504   2.363  24.864  0.00  0.00    +0.102 C 
BRANCH  22  23
ATOM      4  O   UNL     1      -5.884   0.482  26.337  0.00  0.00    -0.276 OA
ATOM      7  N   UNL     1      -5.237   0.105  24.137  0.00  0.00    -0.311 N 
ATOM     23  C   UNL     1      -5.573   0.898  25.225  0.00  0.00    +0.214 C 
ATOM     41  H   UNL     1      -4.963   0.545  23.263  0.00  0.00    +0.149 HD
BRANCH   7  25
ATOM     25  C   UNL     1      -5.214  -1.339  24.190  0.00  0.00    +0.139 C 
BRANCH  25  27
ATOM     27  C   UNL     1      -3.843  -1.868  24.500  0.00  0.00    -0.030 A 
ATOM     30  C   UNL     1      -2.918  -2.025  23.474  0.00  0.00    +0.005 A 
ATOM     31  C   UNL     1      -3.513  -2.196  25.810  0.00  0.00    +0.005 A 
ATOM     34  C   UNL     1      -1.645  -2.516  23.763  0.00  0.00    +0.000 A 
ATOM     35  C   UNL     1      -2.240  -2.687  26.098  0.00  0.00    +0.000 A 
ATOM     37  C   UNL     1      -1.306  -2.848  25.074  0.00  0.00    +0.000 A 
ENDBRANCH  25  27
ENDBRANCH   7  25
ENDBRANCH  22  23
ENDBRANCH  12  22
TORSDOF 11
ENDMDL
MODEL 3
REMARK VINA RESULT:       5.0      2.574      6.509
REMARK  Name = 23757127
REMARK  14 active torsions:
REMARK  status: ('A' for Active; 'I' for Inactive)
REMARK    1  A    between atoms: O_1  and  C_15
REMARK    2  A    between atoms: O_1  and  C_24
REMARK    3  A    between atoms: O_2  and  C_16
REMARK    4  A    between atoms: O_3  and  C_20
REMARK    5  A    between atoms: O_6  and  C_36
REMARK    6  A    between atoms: O_6  and  C_38
REMARK    7  A    between atoms: N_7  and  C_25
REMARK    8  A    between atoms: N_8  and  C_26
REMARK    9  A    between atoms: C_9  and  C_19
REMARK   10  A    between atoms: C_11  and  C_20
REMARK   11  A    between atoms: C_11  and  C_21
REMARK   12  A    between atoms: C_12  and  C_22
REMARK   13  A    between atoms: C_22  and  C_23
REMARK   14  A    between atoms: C_25  and  C_27
REMARK                            x       y       z     vdW  Elec       q    Type
REMARK                         _______ _______ _______ _____ _____    ______ ____
ROOT
ATOM      9  C   UNL     1      -2.050   2.541  24.457  0.00  0.00    -0.023 C 
ATOM     10  C   UNL     1      -2.083   4.110  24.405  0.00  0.00    +0.007 C 
ATOM     11  C   UNL     1      -3.466   4.782  24.784  0.00  0.00    +0.031 C 
ATOM     12  C   UNL     1      -0.657   2.056  23.875  0.00  0.00    +0.032 C 
ATOM     13  C   UNL     1      -3.195   1.972  23.557  0.00  0.00    +0.011 C 
ATOM     14  C   UNL     1      -0.871   4.738  25.126  0.00  0.00    +0.007 C 
ATOM     15  C   UNL     1      -4.674   3.904  24.321  0.00  0.00    +0.186 C 
ATOM     16  C   UNL     1       0.571   2.737  24.525  0.00  0.00    +0.119 C 
ATOM     17  C   UNL     1      -4.294   2.970  23.180  0.00  0.00    +0.046 C 
ATOM     18  C   UNL     1       0.447   4.256  24.524  0.00  0.00    +0.032 C 
ATOM     19  C   UNL     1      -2.247   1.999  25.893  0.00  0.00    +0.012 C 
ATOM     21  C   UNL     1      -3.561   6.122  23.998  0.00  0.00    +0.017 C 
ENDROOT
BRANCH  16   2
ATOM      2  O   UNL     1       0.785   2.306  25.865  0.00  0.00    -0.391 OA
ATOM     39  H   UNL     1       1.351   1.517  25.837  0.00  0.00    +0.210 HD
ENDBRANCH  16   2
BRANCH  15   1
ATOM      1  O   UNL     1      -5.224   3.107  25.367  0.00  0.00    -0.446 OA
BRANCH   1  24
ATOM      5  O   UNL     1      -6.599   1.393  24.732  0.00  0.00    -0.226 OA
ATOM      8  N   UNL     1      -4.323   1.065  25.171  0.00  0.00    -0.251 N 
ATOM     24  C   UNL     1      -5.489   1.797  25.056  0.00  0.00    +0.405 C 
ATOM     42  H   UNL     1      -3.494   1.583  25.453  0.00  0.00    +0.158 HD
BRANCH   8  26
ATOM     26  C   UNL     1      -4.137  -0.319  24.945  0.00  0.00    +0.037 A 
ATOM     28  C   UNL     1      -4.590  -0.880  23.762  0.00  0.00    +0.027 A 
ATOM     29  C   UNL     1      -3.507  -1.085  25.911  0.00  0.00    +0.027 A 
ATOM     32  C   UNL     1      -4.408  -2.244  23.540  0.00  0.00    +0.047 A 
ATOM     33  C   UNL     1      -3.323  -2.450  25.688  0.00  0.00    +0.047 A 
ATOM     36  C   UNL     1      -3.773  -3.029  24.501  0.00  0.00    +0.120 A 
BRANCH  36   6
ATOM      6  O   UNL     1      -3.596  -4.361  24.285  0.00  0.00    -0.495 OA
ATOM     38  C   UNL     1      -3.029  -4.746  23.033  0.00  0.00    +0.277 C 
ENDBRANCH  36   6
ENDBRANCH   8  26
ENDBRANCH   1  24
ENDBRANCH  15   1
BRANCH  11  20
ATOM     20  C   UNL     1      -3.577   5.155  26.277  0.00  0.00    +0.166 C 
BRANCH  20   3
ATOM      3  O   UNL     1      -3.376   3.981  27.034  0.00  0.00    -0.394 OA
ATOM     40  H   UNL     1      -2.574   4.113  27.566  0.00  0.00    +0.209 HD
ENDBRANCH  20   3
ENDBRANCH  11  20
BRANCH  12  22
ATOM     22  C   UNL     1      -0.475   0.528  23.860  0.00  0.00    +0.102 C 
BRANCH  22  23
ATOM      4  O   UNL     1       0.438  -0.811  22.063  0.00  0.00    -0.276 OA
ATOM      7  N   UNL     1       1.737   0.859  23.025  0.00  0.00    -0.311 N 
ATOM     23  C   UNL     1       0.588   0.096  22.876  0.00  0.00    +0.214 C 
ATOM     41  H   UNL     1       1.775   1.569  23.751  0.00  0.00    +0.149 HD
BRANCH   7  25
ATOM     25  C   UNL     1       2.921   0.668  22.219  0.00  0.00    +0.139 C 
BRANCH  25  27
ATOM     27  C   UNL     1       4.048   0.067  23.010  0.00  0.00    -0.030 A 
ATOM     30  C   UNL     1       5.142   0.853  23.354  0.00  0.00    +0.005 A 
ATOM     31  C   UNL     1       3.986  -1.269  23.389  0.00  0.00    +0.005 A 
ATOM     34  C   UNL     1       6.188   0.295  24.088  0.00  0.00    +0.000 A 
ATOM     35  C   UNL     1       5.032  -1.827  24.123  0.00  0.00    +0.000 A 
ATOM     37  C   UNL     1       6.134  -1.045  24.472  0.00  0.00    +0.000 A 
ENDBRANCH  25  27
ENDBRANCH   7  25
ENDBRANCH  22  23
ENDBRANCH  12  22
TORSDOF 11
ENDMDL
MODEL 4
REMARK VINA RESULT:       5.5      1.656      2.270
REMARK  Name = 23757127
REMARK  14 active torsions:
REMARK  status: ('A' for Active; 'I' for Inactive)
REMARK    1  A    between atoms: O_1  and  C_15
REMARK    2  A    between atoms: O_1  and  C_24
REMARK    3  A    between atoms: O_2  and  C_16
REMARK    4  A    between atoms: O_3  and  C_20
REMARK    5  A    between atoms: O_6  and  C_36
REMARK    6  A    between atoms: O_6  and  C_38
REMARK    7  A    between atoms: N_7  and  C_25
REMARK    8  A    between atoms: N_8  and  C_26
REMARK    9  A    between atoms: C_9  and  C_19
REMARK   10  A    between atoms: C_11  and  C_20
REMARK   11  A    between atoms: C_11  and  C_21
REMARK   12  A    between atoms: C_12  and  C_22
REMARK   13  A    between atoms: C_22  and  C_23
REMARK   14  A    between atoms: C_25  and  C_27
REMARK                            x       y       z     vdW  Elec       q    Type
REMARK                         _______ _______ _______ _____ _____    ______ ____
ROOT
ATOM      9  C   UNL     1      -4.125   1.852  24.377  0.00  0.00    -0.023 C 
ATOM     10  C   UNL     1      -4.590   0.352  24.394  0.00  0.00    +0.007 C 
ATOM     11  C   UNL     1      -3.443  -0.726  24.221  0.00  0.00    +0.031 C 
ATOM     12  C   UNL     1      -5.418   2.771  24.377  0.00  0.00    +0.032 C 
ATOM     13  C   UNL     1      -3.315   2.125  23.068  0.00  0.00    +0.011 C 
ATOM     14  C   UNL     1      -5.547   0.057  25.569  0.00  0.00    +0.007 C 
ATOM     15  C   UNL     1      -2.313  -0.211  23.272  0.00  0.00    +0.186 C 
ATOM     16  C   UNL     1      -6.432   2.435  25.496  0.00  0.00    +0.119 C 
ATOM     17  C   UNL     1      -2.812   0.879  22.333  0.00  0.00    +0.046 C 
ATOM     18  C   UNL     1      -6.783   0.952  25.520  0.00  0.00    +0.032 C 
ATOM     19  C   UNL     1      -3.224   2.198  25.587  0.00  0.00    +0.012 C 
ATOM     21  C   UNL     1      -4.076  -1.969  23.530  0.00  0.00    +0.017 C 
ENDROOT
BRANCH  16   2
ATOM      2  O   UNL     1      -5.958   2.804  26.787  0.00  0.00    -0.391 OA
ATOM     39  H   UNL     1      -5.314   3.523  26.673  0.00  0.00    +0.210 HD
ENDBRANCH  16   2
BRANCH  15   1
ATOM      1  O   UNL     1      -1.182   0.304  23.971  0.00  0.00    -0.446 OA
BRANCH   1  24
ATOM      5  O   UNL     1       0.042  -1.628  23.981  0.00  0.00    -0.226 OA
ATOM      8  N   UNL     1       1.016   0.460  23.566  0.00  0.00    -0.251 N 
ATOM     24  C   UNL     1      -0.018  -0.412  23.850  0.00  0.00    +0.405 C 
ATOM     42  H   UNL     1       0.766   1.444  23.493  0.00  0.00    +0.158 HD
BRANCH   8  26
ATOM     26  C   UNL     1       2.381   0.155  23.361  0.00  0.00    +0.037 A 
ATOM     28  C   UNL     1       2.862  -1.090  23.736  0.00  0.00    +0.027 A 
ATOM     29  C   UNL     1       3.211   1.106  22.792  0.00  0.00    +0.027 A 
ATOM     32  C   UNL     1       4.209  -1.390  23.535  0.00  0.00    +0.047 A 
ATOM     33  C   UNL     1       4.558   0.805  22.590  0.00  0.00    +0.047 A 
ATOM     36  C   UNL     1       5.057  -0.444  22.962  0.00  0.00    +0.120 A 
BRANCH  36   6
ATOM      6  O   UNL     1       6.371  -0.736  22.767  0.00  0.00    -0.495 OA
ATOM     38  C   UNL     1       7.323   0.023  23.513  0.00  0.00    +0.277 C 
ENDBRANCH  36   6
ENDBRANCH   8  26
ENDBRANCH   1  24
ENDBRANCH  15   1
BRANCH  11  20
ATOM     20  C   UNL     1      -2.870  -1.230  25.563  0.00  0.00    +0.166 C 
BRANCH  20   3
ATOM      3  O   UNL     1      -2.268  -2.486  25.333  0.00  0.00    -0.394 OA
ATOM     40  H   UNL     1      -2.981  -3.116  25.135  0.00  0.00    +0.209 HD
ENDBRANCH  20   3
ENDBRANCH  11  20
BRANCH  12  22
ATOM     22  C   UNL     1      -5.120   4.280  24.361  0.00  0.00    +0.102 C 
BRANCH  22  23
ATOM      4  O   UNL     1      -3.909   4.530  26.440  0.00  0.00    -0.276 OA
ATOM      7  N   UNL     1      -2.869   5.070  24.433  0.00  0.00    -0.311 N 
ATOM     23  C   UNL     1      -3.925   4.629  25.217  0.00  0.00    +0.214 C 
ATOM     41  H   UNL     1      -2.989   5.146  23.427  0.00  0.00    +0.149 HD
BRANCH   7  25
ATOM     25  C   UNL     1      -1.594   5.475  24.981  0.00  0.00    +0.139 C 
BRANCH  25  27
ATOM     27  C   UNL     1      -0.755   4.296  25.382  0.00  0.00    -0.030 A 
ATOM     30  C   UNL     1       0.097   3.710  24.453  0.00  0.00    +0.005 A 
ATOM     31  C   UNL     1      -0.838   3.802  26.679  0.00  0.00    +0.005 A 
ATOM     34  C   UNL     1       0.877   2.616  24.826  0.00  0.00    +0.000 A 
ATOM     35  C   UNL     1      -0.058   2.707  27.052  0.00  0.00    +0.000 A 
ATOM     37  C   UNL     1       0.799   2.114  26.125  0.00  0.00    +0.000 A 
ENDBRANCH  25  27
ENDBRANCH   7  25
ENDBRANCH  22  23
ENDBRANCH  12  22
TORSDOF 11
ENDMDL
