MODEL 1
REMARK VINA RESULT:       4.9      0.000      0.000
REMARK  Name = 11882552
REMARK  14 active torsions:
REMARK  status: ('A' for Active; 'I' for Inactive)
REMARK    1  A    between atoms: S_2  and  C_31
REMARK    2  A    between atoms: S_2  and  C_35
REMARK    3  A    between atoms: O_3  and  C_13
REMARK    4  A    between atoms: O_4  and  C_16
REMARK    5  A    between atoms: O_5  and  C_18
REMARK    6  A    between atoms: O_9  and  C_26
REMARK    7  A    between atoms: O_9  and  C_34
REMARK    8  A    between atoms: N_10  and  C_14
REMARK    9  A    between atoms: N_11  and  C_21
REMARK   10  A    between atoms: C_13  and  C_19
REMARK   11  A    between atoms: C_20  and  C_23
REMARK   12  A    between atoms: C_21  and  C_22
REMARK   13  A    between atoms: C_21  and  C_24
REMARK   14  A    between atoms: C_22  and  C_25
REMARK                            x       y       z     vdW  Elec       q    Type
REMARK                         _______ _______ _______ _____ _____    ______ ____
ROOT
ATOM     13  C   UNL     1      -3.598  -0.514  25.343  0.00  0.00    +0.146 C 
ATOM     14  C   UNL     1      -1.231  -1.436  25.296  0.00  0.00    +0.107 C 
ATOM     15  C   UNL     1      -2.116  -0.196  25.131  0.00  0.00    +0.069 C 
ATOM     16  C   UNL     1      -1.699  -2.595  24.406  0.00  0.00    +0.163 C 
ATOM     17  C   UNL     1      -4.056  -1.655  24.437  0.00  0.00    +0.078 C 
ATOM     18  C   UNL     1      -3.186  -2.902  24.599  0.00  0.00    +0.148 C 
ENDROOT
BRANCH  13  19
ATOM      6  O   UNL     1      -5.509   0.879  25.682  0.00  0.00    -0.273 OA
ATOM     11  N   UNL     1      -3.876   1.555  24.167  0.00  0.00    -0.301 N 
ATOM     19  C   UNL     1      -4.439   0.706  25.104  0.00  0.00    +0.246 C 
ATOM     40  H   UNL     1      -3.021   1.290  23.691  0.00  0.00    +0.150 HD
BRANCH  11  21
ATOM     21  C   UNL     1      -4.499   2.789  23.744  0.00  0.00    +0.163 C 
BRANCH  21  24
ATOM      8  O   UNL     1      -4.263   4.103  21.713  0.00  0.00    -0.274 OA
ATOM     12  N   UNL     1      -2.759   2.411  22.109  0.00  0.00    -0.328 N 
ATOM     24  C   UNL     1      -3.865   3.178  22.417  0.00  0.00    +0.231 C 
ATOM     41  H   UNL     1      -2.233   2.576  21.258  0.00  0.00    +0.145 HD
ATOM     42  H   UNL     1      -2.440   1.651  22.701  0.00  0.00    +0.145 HD
ENDBRANCH  21  24
BRANCH  21  22
ATOM     22  C   UNL     1      -4.318   3.912  24.771  0.00  0.00    +0.074 C 
BRANCH  22  25
ATOM      1  S   UNL     1      -1.940   3.305  26.033  0.00  0.00    -0.102 S 
ATOM     25  C   UNL     1      -2.869   4.273  24.991  0.00  0.00    -0.008 A 
ATOM     29  C   UNL     1      -2.181   5.311  24.444  0.00  0.00    +0.011 A 
ATOM     32  C   UNL     1      -0.830   5.322  24.893  0.00  0.00    +0.008 A 
ATOM     33  C   UNL     1      -0.563   4.287  25.763  0.00  0.00    +0.045 A 
ENDBRANCH  22  25
ENDBRANCH  21  22
ENDBRANCH  11  21
ENDBRANCH  13  19
BRANCH  14  10
ATOM      7  O   UNL     1      -0.132  -0.772  22.728  0.00  0.00    -0.270 OA
ATOM     10  N   UNL     1       0.145  -1.096  25.007  0.00  0.00    -0.306 N 
ATOM     20  C   UNL     1       0.580  -0.789  23.729  0.00  0.00    +0.248 C 
ATOM     36  H   UNL     1       0.813  -1.205  25.764  0.00  0.00    +0.149 HD
BRANCH  20  23
ATOM     23  C   UNL     1       2.029  -0.489  23.594  0.00  0.00    +0.078 A 
ATOM     26  C   UNL     1       2.441   0.799  23.316  0.00  0.00    +0.133 A 
ATOM     27  C   UNL     1       2.925  -1.526  23.758  0.00  0.00    +0.018 A 
ATOM     28  C   UNL     1       3.806   1.060  23.194  0.00  0.00    +0.061 A 
ATOM     30  C   UNL     1       4.290  -1.265  23.636  0.00  0.00    +0.015 A 
ATOM     31  C   UNL     1       4.730   0.028  23.355  0.00  0.00    +0.011 A 
BRANCH  31   2
ATOM      2  S   UNL     1       6.474   0.361  23.200  0.00  0.00    -0.128 S 
ATOM     35  C   UNL     1       7.101  -1.231  22.594  0.00  0.00    +0.090 C 
ENDBRANCH  31   2
BRANCH  26   9
ATOM      9  O   UNL     1       1.553   1.821  23.156  0.00  0.00    -0.494 OA
ATOM     34  C   UNL     1       0.706   2.123  24.262  0.00  0.00    +0.277 C 
ENDBRANCH  26   9
ENDBRANCH  20  23
ENDBRANCH  14  10
BRANCH  13   3
ATOM      3  O   UNL     1      -3.842  -0.870  26.699  0.00  0.00    -0.379 OA
ATOM     37  H   UNL     1      -4.073  -0.075  27.205  0.00  0.00    +0.211 HD
ENDBRANCH  13   3
BRANCH  16   4
ATOM      4  O   UNL     1      -0.966  -3.774  24.750  0.00  0.00    -0.387 OA
ATOM     38  H   UNL     1      -0.514  -4.080  23.945  0.00  0.00    +0.210 HD
ENDBRANCH  16   4
BRANCH  18   5
ATOM      5  O   UNL     1      -3.578  -3.867  23.622  0.00  0.00    -0.389 OA
ATOM     39  H   UNL     1      -2.830  -4.006  23.017  0.00  0.00    +0.210 HD
ENDBRANCH  18   5
TORSDOF 12
ENDMDL
MODEL 2
REMARK VINA RESULT:       5.5      1.300      1.767
REMARK  Name = 11882552
REMARK  14 active torsions:
REMARK  status: ('A' for Active; 'I' for Inactive)
REMARK    1  A    between atoms: S_2  and  C_31
REMARK    2  A    between atoms: S_2  and  C_35
REMARK    3  A    between atoms: O_3  and  C_13
REMARK    4  A    between atoms: O_4  and  C_16
REMARK    5  A    between atoms: O_5  and  C_18
REMARK    6  A    between atoms: O_9  and  C_26
REMARK    7  A    between atoms: O_9  and  C_34
REMARK    8  A    between atoms: N_10  and  C_14
REMARK    9  A    between atoms: N_11  and  C_21
REMARK   10  A    between atoms: C_13  and  C_19
REMARK   11  A    between atoms: C_20  and  C_23
REMARK   12  A    between atoms: C_21  and  C_22
REMARK   13  A    between atoms: C_21  and  C_24
REMARK   14  A    between atoms: C_22  and  C_25
REMARK                            x       y       z     vdW  Elec       q    Type
REMARK                         _______ _______ _______ _____ _____    ______ ____
ROOT
ATOM     13  C   UNL     1      -3.581  -0.250  25.233  0.00  0.00    +0.146 C 
ATOM     14  C   UNL     1      -1.273  -1.307  25.134  0.00  0.00    +0.107 C 
ATOM     15  C   UNL     1      -2.079  -0.006  25.074  0.00  0.00    +0.069 C 
ATOM     16  C   UNL     1      -1.792  -2.348  24.133  0.00  0.00    +0.163 C 
ATOM     17  C   UNL     1      -4.088  -1.272  24.218  0.00  0.00    +0.078 C 
ATOM     18  C   UNL     1      -3.298  -2.580  24.274  0.00  0.00    +0.148 C 
ENDROOT
BRANCH  13  19
ATOM      6  O   UNL     1      -5.248   1.171  24.279  0.00  0.00    -0.273 OA
ATOM     11  N   UNL     1      -3.885   2.010  25.969  0.00  0.00    -0.301 N 
ATOM     19  C   UNL     1      -4.342   1.037  25.098  0.00  0.00    +0.246 C 
ATOM     40  H   UNL     1      -3.081   1.825  26.560  0.00  0.00    +0.150 HD
BRANCH  11  21
ATOM     21  C   UNL     1      -4.436   3.345  26.022  0.00  0.00    +0.163 C 
BRANCH  21  24
ATOM      8  O   UNL     1      -6.458   2.241  26.795  0.00  0.00    -0.274 OA
ATOM     12  N   UNL     1      -6.647   4.290  25.771  0.00  0.00    -0.328 N 
ATOM     24  C   UNL     1      -5.936   3.201  26.233  0.00  0.00    +0.231 C 
ATOM     41  H   UNL     1      -7.657   4.328  25.864  0.00  0.00    +0.145 HD
ATOM     42  H   UNL     1      -6.202   5.077  25.311  0.00  0.00    +0.145 HD
ENDBRANCH  21  24
BRANCH  21  22
ATOM     22  C   UNL     1      -4.152   4.141  24.742  0.00  0.00    +0.074 C 
BRANCH  22  25
ATOM      1  S   UNL     1      -1.763   3.541  23.496  0.00  0.00    -0.102 S 
ATOM     25  C   UNL     1      -2.688   4.471  24.575  0.00  0.00    -0.008 A 
ATOM     29  C   UNL     1      -1.985   5.454  25.198  0.00  0.00    +0.011 A 
ATOM     32  C   UNL     1      -0.623   5.453  24.779  0.00  0.00    +0.008 A 
ATOM     33  C   UNL     1      -0.366   4.463  23.856  0.00  0.00    +0.045 A 
ENDBRANCH  22  25
ENDBRANCH  21  22
ENDBRANCH  11  21
ENDBRANCH  13  19
BRANCH  14  10
ATOM      7  O   UNL     1      -0.055  -0.655  22.618  0.00  0.00    -0.270 OA
ATOM     10  N   UNL     1       0.126  -1.028  24.899  0.00  0.00    -0.306 N 
ATOM     20  C   UNL     1       0.620  -0.721  23.642  0.00  0.00    +0.248 C 
ATOM     36  H   UNL     1       0.762  -1.180  25.676  0.00  0.00    +0.149 HD
BRANCH  20  23
ATOM     23  C   UNL     1       2.085  -0.487  23.563  0.00  0.00    +0.078 A 
ATOM     26  C   UNL     1       2.568   0.798  23.407  0.00  0.00    +0.133 A 
ATOM     27  C   UNL     1       2.923  -1.580  23.651  0.00  0.00    +0.018 A 
ATOM     28  C   UNL     1       3.946   0.996  23.335  0.00  0.00    +0.061 A 
ATOM     30  C   UNL     1       4.302  -1.380  23.580  0.00  0.00    +0.015 A 
ATOM     31  C   UNL     1       4.814  -0.093  23.422  0.00  0.00    +0.011 A 
BRANCH  31   2
ATOM      2  S   UNL     1       6.575   0.160  23.330  0.00  0.00    -0.128 S 
ATOM     35  C   UNL     1       7.122  -1.349  22.484  0.00  0.00    +0.090 C 
ENDBRANCH  31   2
BRANCH  26   9
ATOM      9  O   UNL     1       1.736   1.874  23.320  0.00  0.00    -0.494 OA
ATOM     34  C   UNL     1       0.876   2.120  24.430  0.00  0.00    +0.277 C 
ENDBRANCH  26   9
ENDBRANCH  20  23
ENDBRANCH  14  10
BRANCH  13   3
ATOM      3  O   UNL     1      -3.873  -0.715  26.546  0.00  0.00    -0.379 OA
ATOM     37  H   UNL     1      -3.879  -1.685  26.550  0.00  0.00    +0.211 HD
ENDBRANCH  13   3
BRANCH  16   4
ATOM      4  O   UNL     1      -1.138  -3.596  24.375  0.00  0.00    -0.387 OA
ATOM     38  H   UNL     1      -0.438  -3.435  25.031  0.00  0.00    +0.210 HD
ENDBRANCH  16   4
BRANCH  18   5
ATOM      5  O   UNL     1      -3.727  -3.423  23.206  0.00  0.00    -0.389 OA
ATOM     39  H   UNL     1      -3.352  -3.078  22.378  0.00  0.00    +0.210 HD
ENDBRANCH  18   5
TORSDOF 12
ENDMDL
MODEL 3
REMARK VINA RESULT:       6.5      1.605      2.053
REMARK  Name = 11882552
REMARK  14 active torsions:
REMARK  status: ('A' for Active; 'I' for Inactive)
REMARK    1  A    between atoms: S_2  and  C_31
REMARK    2  A    between atoms: S_2  and  C_35
REMARK    3  A    between atoms: O_3  and  C_13
REMARK    4  A    between atoms: O_4  and  C_16
REMARK    5  A    between atoms: O_5  and  C_18
REMARK    6  A    between atoms: O_9  and  C_26
REMARK    7  A    between atoms: O_9  and  C_34
REMARK    8  A    between atoms: N_10  and  C_14
REMARK    9  A    between atoms: N_11  and  C_21
REMARK   10  A    between atoms: C_13  and  C_19
REMARK   11  A    between atoms: C_20  and  C_23
REMARK   12  A    between atoms: C_21  and  C_22
REMARK   13  A    between atoms: C_21  and  C_24
REMARK   14  A    between atoms: C_22  and  C_25
REMARK                            x       y       z     vdW  Elec       q    Type
REMARK                         _______ _______ _______ _____ _____    ______ ____
ROOT
ATOM     13  C   UNL     1      -4.202  -0.020  25.352  0.00  0.00    +0.146 C 
ATOM     14  C   UNL     1      -1.989  -1.142  24.805  0.00  0.00    +0.107 C 
ATOM     15  C   UNL     1      -2.721   0.185  25.030  0.00  0.00    +0.069 C 
ATOM     16  C   UNL     1      -2.689  -2.008  23.748  0.00  0.00    +0.163 C 
ATOM     17  C   UNL     1      -4.891  -0.866  24.284  0.00  0.00    +0.078 C 
ATOM     18  C   UNL     1      -4.176  -2.198  24.055  0.00  0.00    +0.148 C 
ENDROOT
BRANCH  13  19
ATOM      6  O   UNL     1      -6.058   1.466  25.123  0.00  0.00    -0.273 OA
ATOM     11  N   UNL     1      -4.083   2.265  26.061  0.00  0.00    -0.301 N 
ATOM     19  C   UNL     1      -4.900   1.301  25.496  0.00  0.00    +0.246 C 
ATOM     40  H   UNL     1      -3.115   2.050  26.271  0.00  0.00    +0.150 HD
BRANCH  11  21
ATOM     21  C   UNL     1      -4.510   3.628  26.287  0.00  0.00    +0.163 C 
BRANCH  21  24
ATOM      8  O   UNL     1      -4.442   4.047  23.894  0.00  0.00    -0.274 OA
ATOM     12  N   UNL     1      -6.291   4.727  25.076  0.00  0.00    -0.328 N 
ATOM     24  C   UNL     1      -5.040   4.156  24.961  0.00  0.00    +0.231 C 
ATOM     41  H   UNL     1      -6.765   5.106  24.264  0.00  0.00    +0.145 HD
ATOM     42  H   UNL     1      -6.774   4.808  25.965  0.00  0.00    +0.145 HD
ENDBRANCH  21  24
BRANCH  21  22
ATOM     22  C   UNL     1      -3.368   4.515  26.796  0.00  0.00    +0.074 C 
BRANCH  22  25
ATOM      1  S   UNL     1      -1.183   3.015  26.030  0.00  0.00    -0.102 S 
ATOM     25  C   UNL     1      -2.130   4.422  25.939  0.00  0.00    -0.008 A 
ATOM     29  C   UNL     1      -1.653   5.351  25.069  0.00  0.00    +0.011 A 
ATOM     32  C   UNL     1      -0.456   4.899  24.442  0.00  0.00    +0.008 A 
ATOM     33  C   UNL     1      -0.087   3.644  24.875  0.00  0.00    +0.045 A 
ENDBRANCH  22  25
ENDBRANCH  21  22
ENDBRANCH  11  21
ENDBRANCH  13  19
BRANCH  14  10
ATOM      7  O   UNL     1      -1.046   0.970  23.104  0.00  0.00    -0.270 OA
ATOM     10  N   UNL     1      -0.617  -0.886  24.426  0.00  0.00    -0.306 N 
ATOM     20  C   UNL     1      -0.261   0.164  23.596  0.00  0.00    +0.248 C 
ATOM     36  H   UNL     1       0.071  -1.581  24.699  0.00  0.00    +0.149 HD
BRANCH  20  23
ATOM     23  C   UNL     1       1.187   0.274  23.280  0.00  0.00    +0.078 A 
ATOM     26  C   UNL     1       1.711  -0.421  22.209  0.00  0.00    +0.133 A 
ATOM     27  C   UNL     1       1.966   1.084  24.081  0.00  0.00    +0.018 A 
ATOM     28  C   UNL     1       3.072  -0.304  21.929  0.00  0.00    +0.061 A 
ATOM     30  C   UNL     1       3.328   1.202  23.800  0.00  0.00    +0.015 A 
ATOM     31  C   UNL     1       3.880   0.508  22.724  0.00  0.00    +0.011 A 
BRANCH  31   2
ATOM      2  S   UNL     1       5.619   0.659  22.366  0.00  0.00    -0.128 S 
ATOM     35  C   UNL     1       6.358  -0.338  23.690  0.00  0.00    +0.090 C 
ENDBRANCH  31   2
BRANCH  26   9
ATOM      9  O   UNL     1       0.937  -1.220  21.420  0.00  0.00    -0.494 OA
ATOM     34  C   UNL     1       0.319  -0.611  20.289  0.00  0.00    +0.277 C 
ENDBRANCH  26   9
ENDBRANCH  20  23
ENDBRANCH  14  10
BRANCH  13   3
ATOM      3  O   UNL     1      -4.353  -0.656  26.617  0.00  0.00    -0.379 OA
ATOM     37  H   UNL     1      -5.236  -0.466  26.970  0.00  0.00    +0.211 HD
ENDBRANCH  13   3
BRANCH  16   4
ATOM      4  O   UNL     1      -2.082  -3.303  23.729  0.00  0.00    -0.387 OA
ATOM     38  H   UNL     1      -2.368  -3.746  22.911  0.00  0.00    +0.210 HD
ENDBRANCH  16   4
BRANCH  18   5
ATOM      5  O   UNL     1      -4.784  -2.864  22.948  0.00  0.00    -0.389 OA
ATOM     39  H   UNL     1      -4.821  -2.240  22.203  0.00  0.00    +0.210 HD
ENDBRANCH  18   5
TORSDOF 12
ENDMDL
MODEL 4
REMARK VINA RESULT:       8.1      2.145      5.159
REMARK  Name = 11882552
REMARK  14 active torsions:
REMARK  status: ('A' for Active; 'I' for Inactive)
REMARK    1  A    between atoms: S_2  and  C_31
REMARK    2  A    between atoms: S_2  and  C_35
REMARK    3  A    between atoms: O_3  and  C_13
REMARK    4  A    between atoms: O_4  and  C_16
REMARK    5  A    between atoms: O_5  and  C_18
REMARK    6  A    between atoms: O_9  and  C_26
REMARK    7  A    between atoms: O_9  and  C_34
REMARK    8  A    between atoms: N_10  and  C_14
REMARK    9  A    between atoms: N_11  and  C_21
REMARK   10  A    between atoms: C_13  and  C_19
REMARK   11  A    between atoms: C_20  and  C_23
REMARK   12  A    between atoms: C_21  and  C_22
REMARK   13  A    between atoms: C_21  and  C_24
REMARK   14  A    between atoms: C_22  and  C_25
REMARK                            x       y       z     vdW  Elec       q    Type
REMARK                         _______ _______ _______ _____ _____    ______ ____
ROOT
ATOM     13  C   UNL     1      -3.086   3.459  24.452  0.00  0.00    +0.146 C 
ATOM     14  C   UNL     1      -0.644   3.400  23.752  0.00  0.00    +0.107 C 
ATOM     15  C   UNL     1      -1.812   2.617  24.359  0.00  0.00    +0.069 C 
ATOM     16  C   UNL     1      -0.400   4.725  24.488  0.00  0.00    +0.163 C 
ATOM     17  C   UNL     1      -2.834   4.764  25.203  0.00  0.00    +0.078 C 
ATOM     18  C   UNL     1      -1.676   5.561  24.602  0.00  0.00    +0.148 C 
ENDROOT
BRANCH  13  19
ATOM      6  O   UNL     1      -4.784   3.116  26.096  0.00  0.00    -0.273 OA
ATOM     11  N   UNL     1      -4.403   1.459  24.506  0.00  0.00    -0.301 N 
ATOM     19  C   UNL     1      -4.186   2.683  25.115  0.00  0.00    +0.246 C 
ATOM     40  H   UNL     1      -3.807   1.159  23.742  0.00  0.00    +0.150 HD
BRANCH  11  21
ATOM     21  C   UNL     1      -5.394   0.512  24.967  0.00  0.00    +0.163 C 
BRANCH  21  24
ATOM      8  O   UNL     1      -6.728   1.425  26.782  0.00  0.00    -0.274 OA
ATOM     12  N   UNL     1      -7.299   1.959  24.621  0.00  0.00    -0.328 N 
ATOM     24  C   UNL     1      -6.533   1.318  25.573  0.00  0.00    +0.231 C 
ATOM     41  H   UNL     1      -8.083   2.543  24.892  0.00  0.00    +0.145 HD
ATOM     42  H   UNL     1      -7.125   1.864  23.626  0.00  0.00    +0.145 HD
ENDBRANCH  21  24
BRANCH  21  22
ATOM     22  C   UNL     1      -4.823  -0.466  26.001  0.00  0.00    +0.074 C 
BRANCH  22  25
ATOM      1  S   UNL     1      -4.245  -2.043  23.811  0.00  0.00    -0.102 S 
ATOM     25  C   UNL     1      -3.910  -1.498  25.384  0.00  0.00    -0.008 A 
ATOM     29  C   UNL     1      -2.811  -2.072  25.944  0.00  0.00    +0.011 A 
ATOM     32  C   UNL     1      -2.209  -3.003  25.050  0.00  0.00    +0.008 A 
ATOM     33  C   UNL     1      -2.888  -3.086  23.853  0.00  0.00    +0.045 A 
ENDBRANCH  22  25
ENDBRANCH  21  22
ENDBRANCH  11  21
ENDBRANCH  13  19
BRANCH  14  10
ATOM      7  O   UNL     1      -0.303   0.844  22.491  0.00  0.00    -0.270 OA
ATOM     10  N   UNL     1       0.550   2.584  23.763  0.00  0.00    -0.306 N 
ATOM     20  C   UNL     1       0.617   1.359  23.121  0.00  0.00    +0.248 C 
ATOM     36  H   UNL     1       1.310   2.891  24.362  0.00  0.00    +0.149 HD
BRANCH  20  23
ATOM     23  C   UNL     1       1.906   0.631  23.250  0.00  0.00    +0.078 A 
ATOM     26  C   UNL     1       1.910  -0.697  23.626  0.00  0.00    +0.133 A 
ATOM     27  C   UNL     1       3.071   1.322  22.982  0.00  0.00    +0.018 A 
ATOM     28  C   UNL     1       3.131  -1.362  23.741  0.00  0.00    +0.061 A 
ATOM     30  C   UNL     1       4.291   0.656  23.097  0.00  0.00    +0.015 A 
ATOM     31  C   UNL     1       4.321  -0.686  23.475  0.00  0.00    +0.011 A 
BRANCH  31   2
ATOM      2  S   UNL     1       5.881  -1.535  23.622  0.00  0.00    -0.128 S 
ATOM     35  C   UNL     1       7.050  -0.257  23.080  0.00  0.00    +0.090 C 
ENDBRANCH  31   2
BRANCH  26   9
ATOM      9  O   UNL     1       0.757  -1.375  23.889  0.00  0.00    -0.494 OA
ATOM     34  C   UNL     1       0.058  -1.026  25.081  0.00  0.00    +0.277 C 
ENDBRANCH  26   9
ENDBRANCH  20  23
ENDBRANCH  14  10
BRANCH  13   3
ATOM      3  O   UNL     1      -3.579   3.760  23.151  0.00  0.00    -0.379 OA
ATOM     37  H   UNL     1      -4.460   3.368  23.042  0.00  0.00    +0.211 HD
ENDBRANCH  13   3
BRANCH  16   4
ATOM      4  O   UNL     1       0.559   5.495  23.758  0.00  0.00    -0.387 OA
ATOM     38  H   UNL     1       0.134   5.777  22.930  0.00  0.00    +0.210 HD
ENDBRANCH  16   4
BRANCH  18   5
ATOM      5  O   UNL     1      -1.406   6.685  25.440  0.00  0.00    -0.389 OA
ATOM     39  H   UNL     1      -1.045   6.356  26.280  0.00  0.00    +0.210 HD
ENDBRANCH  18   5
TORSDOF 12
ENDMDL
MODEL 5
REMARK VINA RESULT:       8.9      2.193      4.878
REMARK  Name = 11882552
REMARK  14 active torsions:
REMARK  status: ('A' for Active; 'I' for Inactive)
REMARK    1  A    between atoms: S_2  and  C_31
REMARK    2  A    between atoms: S_2  and  C_35
REMARK    3  A    between atoms: O_3  and  C_13
REMARK    4  A    between atoms: O_4  and  C_16
REMARK    5  A    between atoms: O_5  and  C_18
REMARK    6  A    between atoms: O_9  and  C_26
REMARK    7  A    between atoms: O_9  and  C_34
REMARK    8  A    between atoms: N_10  and  C_14
REMARK    9  A    between atoms: N_11  and  C_21
REMARK   10  A    between atoms: C_13  and  C_19
REMARK   11  A    between atoms: C_20  and  C_23
REMARK   12  A    between atoms: C_21  and  C_22
REMARK   13  A    between atoms: C_21  and  C_24
REMARK   14  A    between atoms: C_22  and  C_25
REMARK                            x       y       z     vdW  Elec       q    Type
REMARK                         _______ _______ _______ _____ _____    ______ ____
ROOT
ATOM     13  C   UNL     1      -2.945   3.182  24.404  0.00  0.00    +0.146 C 
ATOM     14  C   UNL     1      -0.527   3.134  23.625  0.00  0.00    +0.107 C 
ATOM     15  C   UNL     1      -1.655   2.364  24.319  0.00  0.00    +0.069 C 
ATOM     16  C   UNL     1      -0.292   4.507  24.269  0.00  0.00    +0.163 C 
ATOM     17  C   UNL     1      -2.702   4.536  25.065  0.00  0.00    +0.078 C 
ATOM     18  C   UNL     1      -1.584   5.320  24.376  0.00  0.00    +0.148 C 
ENDROOT
BRANCH  13  19
ATOM      6  O   UNL     1      -4.504   2.858  26.185  0.00  0.00    -0.273 OA
ATOM     11  N   UNL     1      -4.303   1.213  24.550  0.00  0.00    -0.301 N 
ATOM     19  C   UNL     1      -4.004   2.424  25.151  0.00  0.00    +0.246 C 
ATOM     40  H   UNL     1      -3.783   0.909  23.734  0.00  0.00    +0.150 HD
BRANCH  11  21
ATOM     21  C   UNL     1      -5.274   0.285  25.085  0.00  0.00    +0.163 C 
BRANCH  21  24
ATOM      8  O   UNL     1      -6.553   1.149  26.962  0.00  0.00    -0.274 OA
ATOM     12  N   UNL     1      -7.092   1.859  24.844  0.00  0.00    -0.328 N 
ATOM     24  C   UNL     1      -6.365   1.112  25.748  0.00  0.00    +0.231 C 
ATOM     41  H   UNL     1      -7.842   2.467  25.157  0.00  0.00    +0.145 HD
ATOM     42  H   UNL     1      -6.924   1.820  23.844  0.00  0.00    +0.145 HD
ENDBRANCH  21  24
BRANCH  21  22
ATOM     22  C   UNL     1      -4.651  -0.686  26.095  0.00  0.00    +0.074 C 
BRANCH  22  25
ATOM      1  S   UNL     1      -3.360  -2.507  24.472  0.00  0.00    -0.102 S 
ATOM     25  C   UNL     1      -3.336  -1.257  25.621  0.00  0.00    -0.008 A 
ATOM     29  C   UNL     1      -2.086  -0.888  26.008  0.00  0.00    +0.011 A 
ATOM     32  C   UNL     1      -1.095  -1.660  25.337  0.00  0.00    +0.008 A 
ATOM     33  C   UNL     1      -1.650  -2.579  24.473  0.00  0.00    +0.045 A 
ENDBRANCH  22  25
ENDBRANCH  21  22
ENDBRANCH  11  21
ENDBRANCH  13  19
BRANCH  14  10
ATOM      7  O   UNL     1      -0.248   0.394  22.815  0.00  0.00    -0.270 OA
ATOM     10  N   UNL     1       0.686   2.348  23.644  0.00  0.00    -0.306 N 
ATOM     20  C   UNL     1       0.720   1.026  23.231  0.00  0.00    +0.248 C 
ATOM     36  H   UNL     1       1.498   2.767  24.087  0.00  0.00    +0.149 HD
BRANCH  20  23
ATOM     23  C   UNL     1       2.038   0.349  23.339  0.00  0.00    +0.078 A 
ATOM     26  C   UNL     1       3.197   1.060  23.101  0.00  0.00    +0.133 A 
ATOM     27  C   UNL     1       2.055  -0.988  23.683  0.00  0.00    +0.018 A 
ATOM     28  C   UNL     1       4.424   0.406  23.208  0.00  0.00    +0.061 A 
ATOM     30  C   UNL     1       3.283  -1.641  23.790  0.00  0.00    +0.015 A 
ATOM     31  C   UNL     1       4.467  -0.944  23.553  0.00  0.00    +0.011 A 
BRANCH  31   2
ATOM      2  S   UNL     1       6.035  -1.780  23.691  0.00  0.00    -0.128 S 
ATOM     35  C   UNL     1       7.178  -0.534  23.033  0.00  0.00    +0.090 C 
ENDBRANCH  31   2
BRANCH  26   9
ATOM      9  O   UNL     1       3.176   2.380  22.763  0.00  0.00    -0.494 OA
ATOM     34  C   UNL     1       4.228   2.852  21.924  0.00  0.00    +0.277 C 
ENDBRANCH  26   9
ENDBRANCH  20  23
ENDBRANCH  14  10
BRANCH  13   3
ATOM      3  O   UNL     1      -3.489   3.390  23.105  0.00  0.00    -0.379 OA
ATOM     37  H   UNL     1      -3.251   2.644  22.532  0.00  0.00    +0.211 HD
ENDBRANCH  13   3
BRANCH  16   4
ATOM      4  O   UNL     1       0.623   5.252  23.461  0.00  0.00    -0.387 OA
ATOM     38  H   UNL     1       1.518   5.074  23.797  0.00  0.00    +0.210 HD
ENDBRANCH  16   4
BRANCH  18   5
ATOM      5  O   UNL     1      -1.314   6.500  25.133  0.00  0.00    -0.389 OA
ATOM     39  H   UNL     1      -1.317   6.262  26.076  0.00  0.00    +0.210 HD
ENDBRANCH  18   5
TORSDOF 12
ENDMDL
