MODEL 1
REMARK VINA RESULT:      -2.1      0.000      0.000
REMARK  Name = 26744752
REMARK  4 active torsions:
REMARK  status: ('A' for Active; 'I' for Inactive)
REMARK    1  A    between atoms: N_2  and  C_12
REMARK    2  A    between atoms: C_7  and  C_13
REMARK    3  A    between atoms: C_12  and  C_14
REMARK    4  A    between atoms: C_18  and  C_21
REMARK                            x       y       z     vdW  Elec       q    Type
REMARK                         _______ _______ _______ _____ _____    ______ ____
ROOT
ATOM      2  N   UNL     1      -1.775   0.949  25.238  0.00  0.00    -0.281 NA
ATOM      3  N   UNL     1      -0.911   4.495  25.977  0.00  0.00    -0.347 N 
ATOM      4  N   UNL     1      -1.522   4.860  23.857  0.00  0.00    -0.240 NA
ATOM      7  C   UNL     1      -1.526   1.027  23.766  0.00  0.00    +0.152 C 
ATOM      8  C   UNL     1      -1.899   2.440  23.189  0.00  0.00    +0.086 C 
ATOM      9  C   UNL     1      -1.045   1.939  26.058  0.00  0.00    +0.140 C 
ATOM     10  C   UNL     1      -1.165   3.273  25.432  0.00  0.00    +0.053 A 
ATOM     11  C   UNL     1      -1.531   3.522  24.133  0.00  0.00    +0.065 A 
ATOM     15  C   UNL     1      -1.143   5.420  24.989  0.00  0.00    +0.197 A 
ATOM     28  H   UNL     1      -0.609   4.688  26.923  0.00  0.00    +0.167 HD
ENDROOT
BRANCH   7  13
ATOM      1  O   UNL     1      -0.107  -0.101  22.107  0.00  0.00    -0.336 OA
ATOM      5  N   UNL     1       1.006   0.627  23.908  0.00  0.00    -0.190 NA
ATOM      6  N   UNL     1       1.233  -0.456  21.906  0.00  0.00    -0.056 NA
ATOM     13  C   UNL     1      -0.153   0.532  23.308  0.00  0.00    +0.245 A 
ATOM     18  C   UNL     1       1.826   0.007  23.010  0.00  0.00    +0.202 A 
BRANCH  18  21
ATOM     21  C   UNL     1       3.234  -0.132  23.246  0.00  0.00    +0.022 A 
ATOM     23  C   UNL     1       3.748  -1.346  23.704  0.00  0.00    +0.012 A 
ATOM     24  C   UNL     1       4.090   0.946  23.018  0.00  0.00    +0.012 A 
ATOM     25  C   UNL     1       5.116  -1.481  23.934  0.00  0.00    +0.001 A 
ATOM     26  C   UNL     1       5.458   0.810  23.248  0.00  0.00    +0.001 A 
ATOM     27  C   UNL     1       5.972  -0.403  23.706  0.00  0.00    +0.000 A 
ENDBRANCH  18  21
ENDBRANCH   7  13
BRANCH   2  12
ATOM     12  C   UNL     1      -1.655  -0.396  25.792  0.00  0.00    +0.120 C 
BRANCH  12  14
ATOM     14  C   UNL     1      -2.513  -1.386  25.053  0.00  0.00    -0.033 A 
ATOM     16  C   UNL     1      -3.819  -1.050  24.696  0.00  0.00    +0.005 A 
ATOM     17  C   UNL     1      -2.002  -2.643  24.724  0.00  0.00    +0.005 A 
ATOM     19  C   UNL     1      -4.614  -1.968  24.011  0.00  0.00    +0.000 A 
ATOM     20  C   UNL     1      -2.799  -3.561  24.038  0.00  0.00    +0.000 A 
ATOM     22  C   UNL     1      -4.104  -3.223  23.682  0.00  0.00    +0.000 A 
ENDBRANCH  12  14
ENDBRANCH   2  12
TORSDOF 4
ENDMDL
MODEL 2
REMARK VINA RESULT:      -1.9      1.572      4.934
REMARK  Name = 26744752
REMARK  4 active torsions:
REMARK  status: ('A' for Active; 'I' for Inactive)
REMARK    1  A    between atoms: N_2  and  C_12
REMARK    2  A    between atoms: C_7  and  C_13
REMARK    3  A    between atoms: C_12  and  C_14
REMARK    4  A    between atoms: C_18  and  C_21
REMARK                            x       y       z     vdW  Elec       q    Type
REMARK                         _______ _______ _______ _____ _____    ______ ____
ROOT
ATOM      2  N   UNL     1      -2.928   0.804  23.885  0.00  0.00    -0.281 NA
ATOM      3  N   UNL     1      -4.335  -2.627  23.540  0.00  0.00    -0.347 N 
ATOM      4  N   UNL     1      -3.319  -3.006  25.495  0.00  0.00    -0.240 NA
ATOM      7  C   UNL     1      -1.764   0.415  24.736  0.00  0.00    +0.152 C 
ATOM      8  C   UNL     1      -2.119  -0.778  25.694  0.00  0.00    +0.086 C 
ATOM      9  C   UNL     1      -3.475  -0.269  23.028  0.00  0.00    +0.140 C 
ATOM     10  C   UNL     1      -3.617  -1.505  23.827  0.00  0.00    +0.053 A 
ATOM     11  C   UNL     1      -3.000  -1.764  25.025  0.00  0.00    +0.065 A 
ATOM     15  C   UNL     1      -4.124  -3.502  24.576  0.00  0.00    +0.197 A 
ATOM     28  H   UNL     1      -4.910  -2.789  22.723  0.00  0.00    +0.167 HD
ENDROOT
BRANCH   7  13
ATOM      1  O   UNL     1      -0.536  -0.016  22.651  0.00  0.00    -0.336 OA
ATOM      5  N   UNL     1       0.781   0.229  24.445  0.00  0.00    -0.190 NA
ATOM      6  N   UNL     1       0.779  -0.167  22.192  0.00  0.00    -0.056 NA
ATOM     13  C   UNL     1      -0.445   0.214  23.987  0.00  0.00    +0.245 A 
ATOM     18  C   UNL     1       1.497  -0.009  23.308  0.00  0.00    +0.202 A 
BRANCH  18  21
ATOM     21  C   UNL     1       2.929  -0.082  23.321  0.00  0.00    +0.022 A 
ATOM     23  C   UNL     1       3.565  -1.237  23.776  0.00  0.00    +0.012 A 
ATOM     24  C   UNL     1       3.687   1.003  22.877  0.00  0.00    +0.012 A 
ATOM     25  C   UNL     1       4.958  -1.308  23.789  0.00  0.00    +0.001 A 
ATOM     26  C   UNL     1       5.080   0.931  22.891  0.00  0.00    +0.001 A 
ATOM     27  C   UNL     1       5.715  -0.223  23.346  0.00  0.00    +0.000 A 
ENDBRANCH  18  21
ENDBRANCH   7  13
BRANCH   2  12
ATOM     12  C   UNL     1      -2.730   2.038  23.132  0.00  0.00    +0.120 C 
BRANCH  12  14
ATOM     14  C   UNL     1      -2.433   3.205  24.035  0.00  0.00    -0.033 A 
ATOM     16  C   UNL     1      -1.184   3.823  23.989  0.00  0.00    +0.005 A 
ATOM     17  C   UNL     1      -3.408   3.668  24.920  0.00  0.00    +0.005 A 
ATOM     19  C   UNL     1      -0.909   4.904  24.827  0.00  0.00    +0.000 A 
ATOM     20  C   UNL     1      -3.132   4.749  25.757  0.00  0.00    +0.000 A 
ATOM     22  C   UNL     1      -1.883   5.367  25.710  0.00  0.00    +0.000 A 
ENDBRANCH  12  14
ENDBRANCH   2  12
TORSDOF 4
ENDMDL
MODEL 3
REMARK VINA RESULT:      -1.2      3.282      4.437
REMARK  Name = 26744752
REMARK  4 active torsions:
REMARK  status: ('A' for Active; 'I' for Inactive)
REMARK    1  A    between atoms: N_2  and  C_12
REMARK    2  A    between atoms: C_7  and  C_13
REMARK    3  A    between atoms: C_12  and  C_14
REMARK    4  A    between atoms: C_18  and  C_21
REMARK                            x       y       z     vdW  Elec       q    Type
REMARK                         _______ _______ _______ _____ _____    ______ ____
ROOT
ATOM      2  N   UNL     1      -3.417   1.633  23.518  0.00  0.00    -0.281 NA
ATOM      3  N   UNL     1      -5.971   2.236  26.161  0.00  0.00    -0.347 N 
ATOM      4  N   UNL     1      -5.429   4.389  25.889  0.00  0.00    -0.240 NA
ATOM      7  C   UNL     1      -2.605   2.856  23.798  0.00  0.00    +0.152 C 
ATOM      8  C   UNL     1      -3.505   4.055  24.267  0.00  0.00    +0.086 C 
ATOM      9  C   UNL     1      -4.220   1.131  24.653  0.00  0.00    +0.140 C 
ATOM     10  C   UNL     1      -4.922   2.265  25.293  0.00  0.00    +0.053 A 
ATOM     11  C   UNL     1      -4.605   3.593  25.147  0.00  0.00    +0.065 A 
ATOM     15  C   UNL     1      -6.242   3.542  26.491  0.00  0.00    +0.197 A 
ATOM     28  H   UNL     1      -6.457   1.417  26.501  0.00  0.00    +0.167 HD
ENDROOT
BRANCH   7  13
ATOM      1  O   UNL     1      -0.289   2.088  24.093  0.00  0.00    -0.336 OA
ATOM      5  N   UNL     1      -1.220   2.904  25.959  0.00  0.00    -0.190 NA
ATOM      6  N   UNL     1       0.688   1.987  25.092  0.00  0.00    -0.056 NA
ATOM     13  C   UNL     1      -1.381   2.638  24.688  0.00  0.00    +0.245 A 
ATOM     18  C   UNL     1       0.064   2.488  26.162  0.00  0.00    +0.202 A 
BRANCH  18  21
ATOM     21  C   UNL     1       0.695   2.587  27.446  0.00  0.00    +0.022 A 
ATOM     23  C   UNL     1       2.049   2.910  27.535  0.00  0.00    +0.012 A 
ATOM     24  C   UNL     1      -0.046   2.362  28.607  0.00  0.00    +0.012 A 
ATOM     25  C   UNL     1       2.663   3.007  28.783  0.00  0.00    +0.001 A 
ATOM     26  C   UNL     1       0.568   2.459  29.855  0.00  0.00    +0.001 A 
ATOM     27  C   UNL     1       1.922   2.781  29.944  0.00  0.00    +0.000 A 
ENDBRANCH  18  21
ENDBRANCH   7  13
BRANCH   2  12
ATOM     12  C   UNL     1      -2.671   0.557  22.875  0.00  0.00    +0.120 C 
BRANCH  12  14
ATOM     14  C   UNL     1      -2.775  -0.734  23.642  0.00  0.00    -0.033 A 
ATOM     16  C   UNL     1      -3.939  -1.499  23.567  0.00  0.00    +0.005 A 
ATOM     17  C   UNL     1      -1.707  -1.164  24.431  0.00  0.00    +0.005 A 
ATOM     19  C   UNL     1      -4.035  -2.695  24.278  0.00  0.00    +0.000 A 
ATOM     20  C   UNL     1      -1.804  -2.360  25.142  0.00  0.00    +0.000 A 
ATOM     22  C   UNL     1      -2.968  -3.126  25.065  0.00  0.00    +0.000 A 
ENDBRANCH  12  14
ENDBRANCH   2  12
TORSDOF 4
ENDMDL
MODEL 4
REMARK VINA RESULT:       0.3      2.106      3.081
REMARK  Name = 26744752
REMARK  4 active torsions:
REMARK  status: ('A' for Active; 'I' for Inactive)
REMARK    1  A    between atoms: N_2  and  C_12
REMARK    2  A    between atoms: C_7  and  C_13
REMARK    3  A    between atoms: C_12  and  C_14
REMARK    4  A    between atoms: C_18  and  C_21
REMARK                            x       y       z     vdW  Elec       q    Type
REMARK                         _______ _______ _______ _____ _____    ______ ____
ROOT
ATOM      2  N   UNL     1      -4.003   0.486  23.709  0.00  0.00    -0.281 NA
ATOM      3  N   UNL     1      -5.250   2.921  26.237  0.00  0.00    -0.347 N 
ATOM      4  N   UNL     1      -4.802   4.450  24.668  0.00  0.00    -0.240 NA
ATOM      7  C   UNL     1      -3.112   1.446  22.989  0.00  0.00    +0.152 C 
ATOM      8  C   UNL     1      -3.710   2.898  22.981  0.00  0.00    +0.086 C 
ATOM      9  C   UNL     1      -4.292   0.825  25.119  0.00  0.00    +0.140 C 
ATOM     10  C   UNL     1      -4.641   2.259  25.214  0.00  0.00    +0.053 A 
ATOM     11  C   UNL     1      -4.372   3.217  24.269  0.00  0.00    +0.065 A 
ATOM     15  C   UNL     1      -5.326   4.239  25.860  0.00  0.00    +0.197 A 
ATOM     28  H   UNL     1      -5.580   2.524  27.107  0.00  0.00    +0.167 HD
ENDROOT
BRANCH   7  13
ATOM      1  O   UNL     1      -1.301   2.095  24.519  0.00  0.00    -0.336 OA
ATOM      5  N   UNL     1      -0.635   0.791  22.824  0.00  0.00    -0.190 NA
ATOM      6  N   UNL     1       0.077   1.910  24.688  0.00  0.00    -0.056 NA
ATOM     13  C   UNL     1      -1.639   1.403  23.399  0.00  0.00    +0.245 A 
ATOM     18  C   UNL     1       0.397   1.131  23.651  0.00  0.00    +0.202 A 
BRANCH  18  21
ATOM     21  C   UNL     1       1.736   0.674  23.413  0.00  0.00    +0.022 A 
ATOM     23  C   UNL     1       2.725   1.581  23.031  0.00  0.00    +0.012 A 
ATOM     24  C   UNL     1       2.049  -0.677  23.563  0.00  0.00    +0.012 A 
ATOM     25  C   UNL     1       4.026   1.138  22.799  0.00  0.00    +0.001 A 
ATOM     26  C   UNL     1       3.350  -1.120  23.331  0.00  0.00    +0.001 A 
ATOM     27  C   UNL     1       4.339  -0.214  22.949  0.00  0.00    +0.000 A 
ENDBRANCH  18  21
ENDBRANCH   7  13
BRANCH   2  12
ATOM     12  C   UNL     1      -3.612  -0.912  23.566  0.00  0.00    +0.120 C 
BRANCH  12  14
ATOM     14  C   UNL     1      -2.462  -1.269  24.469  0.00  0.00    -0.033 A 
ATOM     16  C   UNL     1      -1.538  -2.236  24.074  0.00  0.00    +0.005 A 
ATOM     17  C   UNL     1      -2.321  -0.632  25.703  0.00  0.00    +0.005 A 
ATOM     19  C   UNL     1      -0.472  -2.566  24.911  0.00  0.00    +0.000 A 
ATOM     20  C   UNL     1      -1.255  -0.963  26.540  0.00  0.00    +0.000 A 
ATOM     22  C   UNL     1      -0.331  -1.930  26.143  0.00  0.00    +0.000 A 
ENDBRANCH  12  14
ENDBRANCH   2  12
TORSDOF 4
ENDMDL
MODEL 5
REMARK VINA RESULT:       1.1      1.658      2.042
REMARK  Name = 26744752
REMARK  4 active torsions:
REMARK  status: ('A' for Active; 'I' for Inactive)
REMARK    1  A    between atoms: N_2  and  C_12
REMARK    2  A    between atoms: C_7  and  C_13
REMARK    3  A    between atoms: C_12  and  C_14
REMARK    4  A    between atoms: C_18  and  C_21
REMARK                            x       y       z     vdW  Elec       q    Type
REMARK                         _______ _______ _______ _____ _____    ______ ____
ROOT
ATOM      2  N   UNL     1      -3.125   0.962  24.989  0.00  0.00    -0.281 NA
ATOM      3  N   UNL     1      -4.091   4.533  25.417  0.00  0.00    -0.347 N 
ATOM      4  N   UNL     1      -4.058   4.586  23.181  0.00  0.00    -0.240 NA
ATOM      7  C   UNL     1      -2.459   1.135  23.662  0.00  0.00    +0.152 C 
ATOM      8  C   UNL     1      -3.164   2.241  22.798  0.00  0.00    +0.086 C 
ATOM      9  C   UNL     1      -3.182   2.175  25.832  0.00  0.00    +0.140 C 
ATOM     10  C   UNL     1      -3.624   3.321  25.008  0.00  0.00    +0.053 A 
ATOM     11  C   UNL     1      -3.608   3.380  23.637  0.00  0.00    +0.065 A 
ATOM     15  C   UNL     1      -4.340   5.261  24.279  0.00  0.00    +0.197 A 
ATOM     28  H   UNL     1      -4.226   4.844  26.370  0.00  0.00    +0.167 HD
ENDROOT
BRANCH   7  13
ATOM      1  O   UNL     1      -0.462   2.488  24.132  0.00  0.00    -0.336 OA
ATOM      5  N   UNL     1      -0.006   0.421  23.400  0.00  0.00    -0.190 NA
ATOM      6  N   UNL     1       0.935   2.388  24.090  0.00  0.00    -0.056 NA
ATOM     13  C   UNL     1      -0.937   1.287  23.710  0.00  0.00    +0.245 A 
ATOM     18  C   UNL     1       1.126   1.141  23.650  0.00  0.00    +0.202 A 
BRANCH  18  21
ATOM     21  C   UNL     1       2.433   0.585  23.449  0.00  0.00    +0.022 A 
ATOM     23  C   UNL     1       3.467   1.389  22.970  0.00  0.00    +0.012 A 
ATOM     24  C   UNL     1       2.670  -0.760  23.733  0.00  0.00    +0.012 A 
ATOM     25  C   UNL     1       4.737   0.849  22.774  0.00  0.00    +0.001 A 
ATOM     26  C   UNL     1       3.940  -1.300  23.537  0.00  0.00    +0.001 A 
ATOM     27  C   UNL     1       4.974  -0.497  23.058  0.00  0.00    +0.000 A 
ENDBRANCH  18  21
ENDBRANCH   7  13
BRANCH   2  12
ATOM     12  C   UNL     1      -2.655  -0.192  25.747  0.00  0.00    +0.120 C 
BRANCH  12  14
ATOM     14  C   UNL     1      -2.819  -1.474  24.976  0.00  0.00    -0.033 A 
ATOM     16  C   UNL     1      -4.081  -1.856  24.518  0.00  0.00    +0.005 A 
ATOM     17  C   UNL     1      -1.711  -2.282  24.720  0.00  0.00    +0.005 A 
ATOM     19  C   UNL     1      -4.233  -3.045  23.804  0.00  0.00    +0.000 A 
ATOM     20  C   UNL     1      -1.864  -3.470  24.006  0.00  0.00    +0.000 A 
ATOM     22  C   UNL     1      -3.125  -3.851  23.548  0.00  0.00    +0.000 A 
ENDBRANCH  12  14
ENDBRANCH   2  12
TORSDOF 4
ENDMDL
MODEL 6
REMARK VINA RESULT:       1.5      2.409      6.437
REMARK  Name = 26744752
REMARK  4 active torsions:
REMARK  status: ('A' for Active; 'I' for Inactive)
REMARK    1  A    between atoms: N_2  and  C_12
REMARK    2  A    between atoms: C_7  and  C_13
REMARK    3  A    between atoms: C_12  and  C_14
REMARK    4  A    between atoms: C_18  and  C_21
REMARK                            x       y       z     vdW  Elec       q    Type
REMARK                         _______ _______ _______ _____ _____    ______ ____
ROOT
ATOM      2  N   UNL     1      -0.116  -0.448  25.198  0.00  0.00    -0.281 NA
ATOM      3  N   UNL     1       1.453  -0.889  21.850  0.00  0.00    -0.347 N 
ATOM      4  N   UNL     1       2.567   0.980  22.365  0.00  0.00    -0.240 NA
ATOM      7  C   UNL     1       0.056   1.035  25.261  0.00  0.00    +0.152 C 
ATOM      8  C   UNL     1       1.376   1.497  24.546  0.00  0.00    +0.086 C 
ATOM      9  C   UNL     1      -0.156  -1.025  23.838  0.00  0.00    +0.140 C 
ATOM     10  C   UNL     1       0.940  -0.446  23.031  0.00  0.00    +0.053 A 
ATOM     11  C   UNL     1       1.634   0.702  23.322  0.00  0.00    +0.065 A 
ATOM     15  C   UNL     1       2.433   0.003  21.489  0.00  0.00    +0.197 A 
ATOM     28  H   UNL     1       1.169  -1.712  21.333  0.00  0.00    +0.167 HD
ENDROOT
BRANCH   7  13
ATOM      1  O   UNL     1      -1.179   2.332  23.579  0.00  0.00    -0.336 OA
ATOM      5  N   UNL     1      -2.230   2.168  25.549  0.00  0.00    -0.190 NA
ATOM      6  N   UNL     1      -2.381   3.037  23.439  0.00  0.00    -0.056 NA
ATOM     13  C   UNL     1      -1.170   1.853  24.850  0.00  0.00    +0.245 A 
ATOM     18  C   UNL     1      -2.945   2.895  24.641  0.00  0.00    +0.202 A 
BRANCH  18  21
ATOM     21  C   UNL     1      -4.220   3.464  24.968  0.00  0.00    +0.022 A 
ATOM     23  C   UNL     1      -4.434   4.833  24.813  0.00  0.00    +0.012 A 
ATOM     24  C   UNL     1      -5.248   2.648  25.442  0.00  0.00    +0.012 A 
ATOM     25  C   UNL     1      -5.673   5.387  25.131  0.00  0.00    +0.001 A 
ATOM     26  C   UNL     1      -6.487   3.201  25.760  0.00  0.00    +0.001 A 
ATOM     27  C   UNL     1      -6.700   4.570  25.605  0.00  0.00    +0.000 A 
ENDBRANCH  18  21
ENDBRANCH   7  13
BRANCH   2  12
ATOM     12  C   UNL     1      -1.204  -0.958  26.026  0.00  0.00    +0.120 C 
BRANCH  12  14
ATOM     14  C   UNL     1      -2.372  -1.418  25.196  0.00  0.00    -0.033 A 
ATOM     16  C   UNL     1      -2.469  -2.754  24.806  0.00  0.00    +0.005 A 
ATOM     17  C   UNL     1      -3.358  -0.507  24.814  0.00  0.00    +0.005 A 
ATOM     19  C   UNL     1      -3.552  -3.180  24.037  0.00  0.00    +0.000 A 
ATOM     20  C   UNL     1      -4.440  -0.934  24.044  0.00  0.00    +0.000 A 
ATOM     22  C   UNL     1      -4.537  -2.270  23.656  0.00  0.00    +0.000 A 
ENDBRANCH  12  14
ENDBRANCH   2  12
TORSDOF 4
ENDMDL
