MODEL 1
REMARK VINA RESULT:      -2.9      0.000      0.000
REMARK  Name = 75536775
REMARK  9 active torsions:
REMARK  status: ('A' for Active; 'I' for Inactive)
REMARK    1  A    between atoms: O_2  and  C_10
REMARK    2  A    between atoms: O_4  and  C_23
REMARK    3  A    between atoms: N_6  and  C_9
REMARK    4  A    between atoms: N_6  and  C_14
REMARK    5  A    between atoms: N_7  and  C_13
REMARK    6  A    between atoms: N_8  and  C_22
REMARK    7  A    between atoms: C_11  and  C_13
REMARK    8  A    between atoms: C_14  and  C_15
REMARK    9  A    between atoms: C_21  and  C_23
REMARK                            x       y       z     vdW  Elec       q    Type
REMARK                         _______ _______ _______ _____ _____    ______ ____
ROOT
ATOM      1  O   UNL     1      -4.191   4.686  25.905  0.00  0.00    -0.371 OA
ATOM      9  C   UNL     1      -2.036   3.734  26.133  0.00  0.00    +0.111 C 
ATOM     10  C   UNL     1      -2.085   4.465  24.803  0.00  0.00    +0.164 C 
ATOM     11  C   UNL     1      -3.550   4.858  24.626  0.00  0.00    +0.165 C 
ATOM     12  C   UNL     1      -3.193   4.374  26.883  0.00  0.00    +0.181 C 
ENDROOT
BRANCH  10   2
ATOM      2  O   UNL     1      -1.295   5.650  24.928  0.00  0.00    -0.388 OA
ATOM     30  H   UNL     1      -1.516   6.227  24.178  0.00  0.00    +0.210 HD
ENDBRANCH  10   2
BRANCH   9   6
ATOM      6  N   UNL     1      -2.258   2.299  25.967  0.00  0.00    -0.305 NA
ATOM     29  H   UNL     1      -3.040   2.008  26.555  0.00  0.00    +0.123 HD
BRANCH   6  14
ATOM     14  C   UNL     1      -1.077   1.537  26.355  0.00  0.00    +0.116 C 
BRANCH  14  15
ATOM     15  C   UNL     1      -0.277   1.094  25.158  0.00  0.00    -0.034 A 
ATOM     17  C   UNL     1       0.605   1.981  24.542  0.00  0.00    +0.006 A 
ATOM     18  C   UNL     1      -0.418  -0.205  24.666  0.00  0.00    +0.006 A 
ATOM     19  C   UNL     1       1.345   1.571  23.434  0.00  0.00    +0.015 A 
ATOM     20  C   UNL     1       0.323  -0.614  23.558  0.00  0.00    +0.015 A 
ATOM     21  C   UNL     1       1.205   0.274  22.942  0.00  0.00    +0.059 A 
BRANCH  21  23
ATOM      5  O   UNL     1       3.200  -0.031  21.656  0.00  0.00    -0.245 OA
ATOM     23  C   UNL     1       1.978  -0.155  21.786  0.00  0.00    +0.337 C 
BRANCH  23   4
ATOM      4  O   UNL     1       1.202  -0.727  20.824  0.00  0.00    -0.477 OA
ATOM     33  H   UNL     1       0.417  -1.174  21.206  0.00  0.00    +0.295 HD
ENDBRANCH  23   4
ENDBRANCH  21  23
ENDBRANCH  14  15
ENDBRANCH   6  14
ENDBRANCH   9   6
BRANCH  11  13
ATOM     13  C   UNL     1      -4.290   4.009  23.603  0.00  0.00    +0.140 C 
BRANCH  13   7
ATOM      3  O   UNL     1      -2.908   1.519  23.294  0.00  0.00    -0.253 OA
ATOM      7  N   UNL     1      -4.671   2.741  24.157  0.00  0.00    -0.297 N 
ATOM      8  N   UNL     1      -4.548   0.487  24.619  0.00  0.00    -0.269 N 
ATOM     16  C   UNL     1      -3.939   1.559  23.962  0.00  0.00    +0.304 C 
ATOM     31  H   UNL     1      -5.521   2.697  24.712  0.00  0.00    +0.150 HD
ATOM     32  H   UNL     1      -5.403   0.692  25.130  0.00  0.00    +0.156 HD
BRANCH   8  22
ATOM     22  C   UNL     1      -4.122  -0.860  24.662  0.00  0.00    +0.035 A 
ATOM     24  C   UNL     1      -4.363  -1.703  23.576  0.00  0.00    +0.023 A 
ATOM     25  C   UNL     1      -3.463  -1.348  25.791  0.00  0.00    +0.023 A 
ATOM     26  C   UNL     1      -3.943  -3.032  23.619  0.00  0.00    +0.002 A 
ATOM     27  C   UNL     1      -3.044  -2.678  25.833  0.00  0.00    +0.002 A 
ATOM     28  C   UNL     1      -3.284  -3.520  24.748  0.00  0.00    +0.000 A 
ENDBRANCH   8  22
ENDBRANCH  13   7
ENDBRANCH  11  13
TORSDOF 9
ENDMDL
MODEL 2
REMARK VINA RESULT:      -2.3      2.829      5.768
REMARK  Name = 75536775
REMARK  9 active torsions:
REMARK  status: ('A' for Active; 'I' for Inactive)
REMARK    1  A    between atoms: O_2  and  C_10
REMARK    2  A    between atoms: O_4  and  C_23
REMARK    3  A    between atoms: N_6  and  C_9
REMARK    4  A    between atoms: N_6  and  C_14
REMARK    5  A    between atoms: N_7  and  C_13
REMARK    6  A    between atoms: N_8  and  C_22
REMARK    7  A    between atoms: C_11  and  C_13
REMARK    8  A    between atoms: C_14  and  C_15
REMARK    9  A    between atoms: C_21  and  C_23
REMARK                            x       y       z     vdW  Elec       q    Type
REMARK                         _______ _______ _______ _____ _____    ______ ____
ROOT
ATOM      1  O   UNL     1      -0.914   4.311  24.022  0.00  0.00    -0.371 OA
ATOM      9  C   UNL     1      -2.596   3.956  25.650  0.00  0.00    +0.111 C 
ATOM     10  C   UNL     1      -1.723   2.714  25.601  0.00  0.00    +0.164 C 
ATOM     11  C   UNL     1      -0.812   2.923  24.393  0.00  0.00    +0.165 C 
ATOM     12  C   UNL     1      -1.692   4.997  25.010  0.00  0.00    +0.181 C 
ENDROOT
BRANCH  10   2
ATOM      2  O   UNL     1      -0.928   2.694  26.789  0.00  0.00    -0.388 OA
ATOM     30  H   UNL     1      -1.366   3.266  27.441  0.00  0.00    +0.210 HD
ENDBRANCH  10   2
BRANCH   9   6
ATOM      6  N   UNL     1      -3.820   3.784  24.870  0.00  0.00    -0.305 NA
ATOM     29  H   UNL     1      -4.306   4.680  24.804  0.00  0.00    +0.123 HD
BRANCH   6  14
ATOM     14  C   UNL     1      -4.712   2.817  25.498  0.00  0.00    +0.116 C 
BRANCH  14  15
ATOM     15  C   UNL     1      -4.337   1.400  25.149  0.00  0.00    -0.034 A 
ATOM     17  C   UNL     1      -4.117   1.045  23.818  0.00  0.00    +0.006 A 
ATOM     18  C   UNL     1      -4.209   0.444  26.157  0.00  0.00    +0.006 A 
ATOM     19  C   UNL     1      -3.770  -0.266  23.496  0.00  0.00    +0.015 A 
ATOM     20  C   UNL     1      -3.862  -0.867  25.833  0.00  0.00    +0.015 A 
ATOM     21  C   UNL     1      -3.642  -1.222  24.502  0.00  0.00    +0.059 A 
BRANCH  21  23
ATOM      5  O   UNL     1      -4.075  -3.498  23.899  0.00  0.00    -0.245 OA
ATOM     23  C   UNL     1      -3.279  -2.590  24.166  0.00  0.00    +0.337 C 
BRANCH  23   4
ATOM      4  O   UNL     1      -1.932  -2.788  24.170  0.00  0.00    -0.477 OA
ATOM     33  H   UNL     1      -1.447  -1.997  24.487  0.00  0.00    +0.295 HD
ENDBRANCH  23   4
ENDBRANCH  21  23
ENDBRANCH  14  15
ENDBRANCH   6  14
ENDBRANCH   9   6
BRANCH  11  13
ATOM     13  C   UNL     1      -1.194   2.078  23.187  0.00  0.00    +0.140 C 
BRANCH  13   7
ATOM      3  O   UNL     1       1.295   1.662  24.543  0.00  0.00    -0.253 OA
ATOM      7  N   UNL     1      -0.078   1.309  22.716  0.00  0.00    -0.297 N 
ATOM      8  N   UNL     1       2.017   0.351  22.735  0.00  0.00    -0.269 N 
ATOM     16  C   UNL     1       1.114   1.149  23.441  0.00  0.00    +0.304 C 
ATOM     31  H   UNL     1      -0.153   0.864  21.806  0.00  0.00    +0.150 HD
ATOM     32  H   UNL     1       1.709   0.004  21.830  0.00  0.00    +0.156 HD
BRANCH   8  22
ATOM     22  C   UNL     1       3.319  -0.040  23.124  0.00  0.00    +0.035 A 
ATOM     24  C   UNL     1       4.377   0.864  23.023  0.00  0.00    +0.023 A 
ATOM     25  C   UNL     1       3.546  -1.328  23.607  0.00  0.00    +0.023 A 
ATOM     26  C   UNL     1       5.662   0.479  23.406  0.00  0.00    +0.002 A 
ATOM     27  C   UNL     1       4.832  -1.713  23.990  0.00  0.00    +0.002 A 
ATOM     28  C   UNL     1       5.890  -0.809  23.889  0.00  0.00    +0.000 A 
ENDBRANCH   8  22
ENDBRANCH  13   7
ENDBRANCH  11  13
TORSDOF 9
ENDMDL
MODEL 3
REMARK VINA RESULT:      -2.3      2.609      5.671
REMARK  Name = 75536775
REMARK  9 active torsions:
REMARK  status: ('A' for Active; 'I' for Inactive)
REMARK    1  A    between atoms: O_2  and  C_10
REMARK    2  A    between atoms: O_4  and  C_23
REMARK    3  A    between atoms: N_6  and  C_9
REMARK    4  A    between atoms: N_6  and  C_14
REMARK    5  A    between atoms: N_7  and  C_13
REMARK    6  A    between atoms: N_8  and  C_22
REMARK    7  A    between atoms: C_11  and  C_13
REMARK    8  A    between atoms: C_14  and  C_15
REMARK    9  A    between atoms: C_21  and  C_23
REMARK                            x       y       z     vdW  Elec       q    Type
REMARK                         _______ _______ _______ _____ _____    ______ ____
ROOT
ATOM      1  O   UNL     1      -3.287   2.899  23.269  0.00  0.00    -0.371 OA
ATOM      9  C   UNL     1      -3.879   4.078  25.235  0.00  0.00    +0.111 C 
ATOM     10  C   UNL     1      -2.382   3.826  25.274  0.00  0.00    +0.164 C 
ATOM     11  C   UNL     1      -2.113   2.883  24.103  0.00  0.00    +0.165 C 
ATOM     12  C   UNL     1      -4.186   3.903  23.757  0.00  0.00    +0.181 C 
ENDROOT
BRANCH  10   2
ATOM      2  O   UNL     1      -1.724   5.072  25.031  0.00  0.00    -0.388 OA
ATOM     30  H   UNL     1      -2.175   5.747  25.566  0.00  0.00    +0.210 HD
ENDBRANCH  10   2
BRANCH   9   6
ATOM      6  N   UNL     1      -4.611   3.098  26.035  0.00  0.00    -0.305 NA
ATOM     29  H   UNL     1      -3.946   2.515  26.545  0.00  0.00    +0.123 HD
BRANCH   6  14
ATOM     14  C   UNL     1      -5.431   2.238  25.191  0.00  0.00    +0.116 C 
BRANCH  14  15
ATOM     15  C   UNL     1      -4.820   0.872  25.020  0.00  0.00    -0.034 A 
ATOM     17  C   UNL     1      -4.243   0.225  26.113  0.00  0.00    +0.006 A 
ATOM     18  C   UNL     1      -4.831   0.253  23.770  0.00  0.00    +0.006 A 
ATOM     19  C   UNL     1      -3.677  -1.039  25.956  0.00  0.00    +0.015 A 
ATOM     20  C   UNL     1      -4.265  -1.011  23.613  0.00  0.00    +0.015 A 
ATOM     21  C   UNL     1      -3.688  -1.658  24.706  0.00  0.00    +0.059 A 
BRANCH  21  23
ATOM      5  O   UNL     1      -3.718  -4.009  24.258  0.00  0.00    -0.245 OA
ATOM     23  C   UNL     1      -3.099  -2.978  24.541  0.00  0.00    +0.337 C 
BRANCH  23   4
ATOM      4  O   UNL     1      -1.751  -2.974  24.734  0.00  0.00    -0.477 OA
ATOM     33  H   UNL     1      -1.503  -2.531  25.573  0.00  0.00    +0.295 HD
ENDBRANCH  23   4
ENDBRANCH  21  23
ENDBRANCH  14  15
ENDBRANCH   6  14
ENDBRANCH   9   6
BRANCH  11  13
ATOM     13  C   UNL     1      -1.848   1.446  24.526  0.00  0.00    +0.140 C 
BRANCH  13   7
ATOM      3  O   UNL     1       0.945   1.505  25.160  0.00  0.00    -0.253 OA
ATOM      7  N   UNL     1      -0.782   0.866  23.761  0.00  0.00    -0.297 N 
ATOM      8  N   UNL     1       1.376   0.283  23.203  0.00  0.00    -0.269 N 
ATOM     16  C   UNL     1       0.569   0.935  24.138  0.00  0.00    +0.304 C 
ATOM     31  H   UNL     1      -1.018   0.388  22.896  0.00  0.00    +0.150 HD
ATOM     32  H   UNL     1       0.903  -0.139  22.408  0.00  0.00    +0.156 HD
BRANCH   8  22
ATOM     22  C   UNL     1       2.782   0.134  23.223  0.00  0.00    +0.035 A 
ATOM     24  C   UNL     1       3.600   1.180  22.797  0.00  0.00    +0.023 A 
ATOM     25  C   UNL     1       3.351  -1.060  23.668  0.00  0.00    +0.023 A 
ATOM     26  C   UNL     1       4.987   1.033  22.817  0.00  0.00    +0.002 A 
ATOM     27  C   UNL     1       4.738  -1.207  23.687  0.00  0.00    +0.002 A 
ATOM     28  C   UNL     1       5.556  -0.160  23.261  0.00  0.00    +0.000 A 
ENDBRANCH   8  22
ENDBRANCH  13   7
ENDBRANCH  11  13
TORSDOF 9
ENDMDL
MODEL 4
REMARK VINA RESULT:      -1.8      1.723      2.389
REMARK  Name = 75536775
REMARK  9 active torsions:
REMARK  status: ('A' for Active; 'I' for Inactive)
REMARK    1  A    between atoms: O_2  and  C_10
REMARK    2  A    between atoms: O_4  and  C_23
REMARK    3  A    between atoms: N_6  and  C_9
REMARK    4  A    between atoms: N_6  and  C_14
REMARK    5  A    between atoms: N_7  and  C_13
REMARK    6  A    between atoms: N_8  and  C_22
REMARK    7  A    between atoms: C_11  and  C_13
REMARK    8  A    between atoms: C_14  and  C_15
REMARK    9  A    between atoms: C_21  and  C_23
REMARK                            x       y       z     vdW  Elec       q    Type
REMARK                         _______ _______ _______ _____ _____    ______ ____
ROOT
ATOM      1  O   UNL     1      -5.387   2.976  26.907  0.00  0.00    -0.371 OA
ATOM      9  C   UNL     1      -4.216   4.458  25.480  0.00  0.00    +0.111 C 
ATOM     10  C   UNL     1      -5.650   4.372  24.989  0.00  0.00    +0.164 C 
ATOM     11  C   UNL     1      -6.278   3.246  25.808  0.00  0.00    +0.165 C 
ATOM     12  C   UNL     1      -4.346   3.960  26.911  0.00  0.00    +0.181 C 
ENDROOT
BRANCH  10   2
ATOM      2  O   UNL     1      -6.297   5.605  25.316  0.00  0.00    -0.388 OA
ATOM     30  H   UNL     1      -6.498   6.058  24.480  0.00  0.00    +0.210 HD
ENDBRANCH  10   2
BRANCH   9   6
ATOM      6  N   UNL     1      -3.329   3.589  24.709  0.00  0.00    -0.305 NA
ATOM     29  H   UNL     1      -3.740   2.656  24.650  0.00  0.00    +0.123 HD
BRANCH   6  14
ATOM     14  C   UNL     1      -2.020   3.481  25.341  0.00  0.00    +0.116 C 
BRANCH  14  15
ATOM     15  C   UNL     1      -1.112   2.540  24.592  0.00  0.00    -0.034 A 
ATOM     17  C   UNL     1       0.204   2.358  25.015  0.00  0.00    +0.006 A 
ATOM     18  C   UNL     1      -1.589   1.851  23.476  0.00  0.00    +0.006 A 
ATOM     19  C   UNL     1       1.044   1.487  24.322  0.00  0.00    +0.015 A 
ATOM     20  C   UNL     1      -0.748   0.981  22.784  0.00  0.00    +0.015 A 
ATOM     21  C   UNL     1       0.569   0.798  23.207  0.00  0.00    +0.059 A 
BRANCH  21  23
ATOM      5  O   UNL     1       1.187  -0.642  21.398  0.00  0.00    -0.245 OA
ATOM     23  C   UNL     1       1.445  -0.111  22.484  0.00  0.00    +0.337 C 
BRANCH  23   4
ATOM      4  O   UNL     1       2.619  -0.331  23.136  0.00  0.00    -0.477 OA
ATOM     33  H   UNL     1       2.861  -1.281  23.143  0.00  0.00    +0.295 HD
ENDBRANCH  23   4
ENDBRANCH  21  23
ENDBRANCH  14  15
ENDBRANCH   6  14
ENDBRANCH   9   6
BRANCH  11  13
ATOM     13  C   UNL     1      -6.472   1.957  25.023  0.00  0.00    +0.140 C 
BRANCH  13   7
ATOM      3  O   UNL     1      -4.068   0.938  23.848  0.00  0.00    -0.253 OA
ATOM      7  N   UNL     1      -5.645   0.904  25.538  0.00  0.00    -0.297 N 
ATOM      8  N   UNL     1      -3.881  -0.574  25.633  0.00  0.00    -0.269 N 
ATOM     16  C   UNL     1      -4.475   0.458  24.903  0.00  0.00    +0.304 C 
ATOM     31  H   UNL     1      -5.927   0.452  26.403  0.00  0.00    +0.150 HD
ATOM     32  H   UNL     1      -4.350  -0.855  26.491  0.00  0.00    +0.156 HD
BRANCH   8  22
ATOM     22  C   UNL     1      -2.697  -1.284  25.327  0.00  0.00    +0.035 A 
ATOM     24  C   UNL     1      -2.737  -2.351  24.429  0.00  0.00    +0.023 A 
ATOM     25  C   UNL     1      -1.490  -0.919  25.924  0.00  0.00    +0.023 A 
ATOM     26  C   UNL     1      -1.569  -3.053  24.128  0.00  0.00    +0.002 A 
ATOM     27  C   UNL     1      -0.323  -1.621  25.622  0.00  0.00    +0.002 A 
ATOM     28  C   UNL     1      -0.362  -2.688  24.724  0.00  0.00    +0.000 A 
ENDBRANCH   8  22
ENDBRANCH  13   7
ENDBRANCH  11  13
TORSDOF 9
ENDMDL
MODEL 5
REMARK VINA RESULT:      -1.8      2.643      6.606
REMARK  Name = 75536775
REMARK  9 active torsions:
REMARK  status: ('A' for Active; 'I' for Inactive)
REMARK    1  A    between atoms: O_2  and  C_10
REMARK    2  A    between atoms: O_4  and  C_23
REMARK    3  A    between atoms: N_6  and  C_9
REMARK    4  A    between atoms: N_6  and  C_14
REMARK    5  A    between atoms: N_7  and  C_13
REMARK    6  A    between atoms: N_8  and  C_22
REMARK    7  A    between atoms: C_11  and  C_13
REMARK    8  A    between atoms: C_14  and  C_15
REMARK    9  A    between atoms: C_21  and  C_23
REMARK                            x       y       z     vdW  Elec       q    Type
REMARK                         _______ _______ _______ _____ _____    ______ ____
ROOT
ATOM      1  O   UNL     1      -2.616  -0.388  25.630  0.00  0.00    -0.371 OA
ATOM      9  C   UNL     1      -4.751  -0.992  24.804  0.00  0.00    +0.111 C 
ATOM     10  C   UNL     1      -3.707  -1.713  23.970  0.00  0.00    +0.164 C 
ATOM     11  C   UNL     1      -2.373  -1.112  24.409  0.00  0.00    +0.165 C 
ATOM     12  C   UNL     1      -3.961  -0.637  26.054  0.00  0.00    +0.181 C 
ENDROOT
BRANCH  10   2
ATOM      2  O   UNL     1      -3.739  -3.095  24.333  0.00  0.00    -0.388 OA
ATOM     30  H   UNL     1      -3.945  -3.602  23.530  0.00  0.00    +0.210 HD
ENDBRANCH  10   2
BRANCH   9   6
ATOM      6  N   UNL     1      -5.233   0.216  24.137  0.00  0.00    -0.305 NA
ATOM     29  H   UNL     1      -4.531   0.534  23.467  0.00  0.00    +0.123 HD
BRANCH   6  14
ATOM     14  C   UNL     1      -5.475   1.286  25.097  0.00  0.00    +0.116 C 
BRANCH  14  15
ATOM     15  C   UNL     1      -4.388   2.328  25.062  0.00  0.00    -0.034 A 
ATOM     17  C   UNL     1      -4.153   3.128  26.180  0.00  0.00    +0.006 A 
ATOM     18  C   UNL     1      -3.616   2.492  23.912  0.00  0.00    +0.006 A 
ATOM     19  C   UNL     1      -3.147   4.093  26.147  0.00  0.00    +0.015 A 
ATOM     20  C   UNL     1      -2.610   3.457  23.880  0.00  0.00    +0.015 A 
ATOM     21  C   UNL     1      -2.375   4.257  24.998  0.00  0.00    +0.059 A 
BRANCH  21  23
ATOM      5  O   UNL     1      -1.499   6.484  25.041  0.00  0.00    -0.245 OA
ATOM     23  C   UNL     1      -1.325   5.263  24.964  0.00  0.00    +0.337 C 
BRANCH  23   4
ATOM      4  O   UNL     1      -0.084   4.717  24.835  0.00  0.00    -0.477 OA
ATOM     33  H   UNL     1      -0.112   3.737  24.861  0.00  0.00    +0.295 HD
ENDBRANCH  23   4
ENDBRANCH  21  23
ENDBRANCH  14  15
ENDBRANCH   6  14
ENDBRANCH   9   6
BRANCH  11  13
ATOM     13  C   UNL     1      -1.775  -0.149  23.394  0.00  0.00    +0.140 C 
BRANCH  13   7
ATOM      3  O   UNL     1       0.723   0.870  24.356  0.00  0.00    -0.253 OA
ATOM      7  N   UNL     1      -0.464  -0.567  22.988  0.00  0.00    -0.297 N 
ATOM      8  N   UNL     1       1.838  -0.622  22.927  0.00  0.00    -0.269 N 
ATOM     16  C   UNL     1       0.719  -0.019  23.507  0.00  0.00    +0.304 C 
ATOM     31  H   UNL     1      -0.390  -1.292  22.280  0.00  0.00    +0.150 HD
ATOM     32  H   UNL     1       1.659  -1.346  22.236  0.00  0.00    +0.156 HD
BRANCH   8  22
ATOM     22  C   UNL     1       3.202  -0.348  23.182  0.00  0.00    +0.035 A 
ATOM     24  C   UNL     1       4.004  -1.312  23.793  0.00  0.00    +0.023 A 
ATOM     25  C   UNL     1       3.744   0.886  22.823  0.00  0.00    +0.023 A 
ATOM     26  C   UNL     1       5.349  -1.042  24.045  0.00  0.00    +0.002 A 
ATOM     27  C   UNL     1       5.090   1.156  23.076  0.00  0.00    +0.002 A 
ATOM     28  C   UNL     1       5.892   0.192  23.687  0.00  0.00    +0.000 A 
ENDBRANCH   8  22
ENDBRANCH  13   7
ENDBRANCH  11  13
TORSDOF 9
ENDMDL
MODEL 6
REMARK VINA RESULT:      -1.4      2.117      4.671
REMARK  Name = 75536775
REMARK  9 active torsions:
REMARK  status: ('A' for Active; 'I' for Inactive)
REMARK    1  A    between atoms: O_2  and  C_10
REMARK    2  A    between atoms: O_4  and  C_23
REMARK    3  A    between atoms: N_6  and  C_9
REMARK    4  A    between atoms: N_6  and  C_14
REMARK    5  A    between atoms: N_7  and  C_13
REMARK    6  A    between atoms: N_8  and  C_22
REMARK    7  A    between atoms: C_11  and  C_13
REMARK    8  A    between atoms: C_14  and  C_15
REMARK    9  A    between atoms: C_21  and  C_23
REMARK                            x       y       z     vdW  Elec       q    Type
REMARK                         _______ _______ _______ _____ _____    ______ ____
ROOT
ATOM      1  O   UNL     1      -3.884   3.313  23.871  0.00  0.00    -0.371 OA
ATOM      9  C   UNL     1      -5.674   2.430  25.145  0.00  0.00    +0.111 C 
ATOM     10  C   UNL     1      -5.207   3.707  25.820  0.00  0.00    +0.164 C 
ATOM     11  C   UNL     1      -3.927   4.095  25.080  0.00  0.00    +0.165 C 
ATOM     12  C   UNL     1      -5.119   2.599  23.740  0.00  0.00    +0.181 C 
ENDROOT
BRANCH  10   2
ATOM      2  O   UNL     1      -6.200   4.709  25.591  0.00  0.00    -0.388 OA
ATOM     30  H   UNL     1      -5.806   5.567  25.823  0.00  0.00    +0.210 HD
ENDBRANCH  10   2
BRANCH   9   6
ATOM      6  N   UNL     1      -5.108   1.244  25.785  0.00  0.00    -0.305 NA
ATOM     29  H   UNL     1      -4.164   1.455  26.109  0.00  0.00    +0.123 HD
BRANCH   6  14
ATOM     14  C   UNL     1      -5.041   0.126  24.853  0.00  0.00    +0.116 C 
BRANCH  14  15
ATOM     15  C   UNL     1      -3.751  -0.640  24.988  0.00  0.00    -0.034 A 
ATOM     17  C   UNL     1      -2.844  -0.305  25.993  0.00  0.00    +0.006 A 
ATOM     18  C   UNL     1      -3.463  -1.684  24.108  0.00  0.00    +0.006 A 
ATOM     19  C   UNL     1      -1.650  -1.014  26.118  0.00  0.00    +0.015 A 
ATOM     20  C   UNL     1      -2.269  -2.392  24.233  0.00  0.00    +0.015 A 
ATOM     21  C   UNL     1      -1.362  -2.057  25.239  0.00  0.00    +0.059 A 
BRANCH  21  23
ATOM      5  O   UNL     1      -0.015  -4.028  25.410  0.00  0.00    -0.245 OA
ATOM     23  C   UNL     1      -0.116  -2.797  25.369  0.00  0.00    +0.337 C 
BRANCH  23   4
ATOM      4  O   UNL     1       0.970  -1.979  25.444  0.00  0.00    -0.477 OA
ATOM     33  H   UNL     1       0.744  -1.051  25.223  0.00  0.00    +0.295 HD
ENDBRANCH  23   4
ENDBRANCH  21  23
ENDBRANCH  14  15
ENDBRANCH   6  14
ENDBRANCH   9   6
BRANCH  11  13
ATOM     13  C   UNL     1      -2.658   3.819  25.873  0.00  0.00    +0.140 C 
BRANCH  13   7
ATOM      3  O   UNL     1      -0.347   3.630  24.191  0.00  0.00    -0.253 OA
ATOM      7  N   UNL     1      -2.017   2.615  25.427  0.00  0.00    -0.297 N 
ATOM      8  N   UNL     1      -0.482   1.291  24.333  0.00  0.00    -0.269 N 
ATOM     16  C   UNL     1      -0.882   2.603  24.601  0.00  0.00    +0.304 C 
ATOM     31  H   UNL     1      -2.412   1.726  25.718  0.00  0.00    +0.150 HD
ATOM     32  H   UNL     1      -1.037   0.550  24.752  0.00  0.00    +0.156 HD
BRANCH   8  22
ATOM     22  C   UNL     1       0.610   0.860  23.544  0.00  0.00    +0.035 A 
ATOM     24  C   UNL     1       1.872   1.423  23.734  0.00  0.00    +0.023 A 
ATOM     25  C   UNL     1       0.425  -0.126  22.575  0.00  0.00    +0.023 A 
ATOM     26  C   UNL     1       2.949   0.999  22.956  0.00  0.00    +0.002 A 
ATOM     27  C   UNL     1       1.502  -0.550  21.797  0.00  0.00    +0.002 A 
ATOM     28  C   UNL     1       2.764   0.013  21.987  0.00  0.00    +0.000 A 
ENDBRANCH   8  22
ENDBRANCH  13   7
ENDBRANCH  11  13
TORSDOF 9
ENDMDL
MODEL 7
REMARK VINA RESULT:      -0.5      1.470      1.832
REMARK  Name = 75536775
REMARK  9 active torsions:
REMARK  status: ('A' for Active; 'I' for Inactive)
REMARK    1  A    between atoms: O_2  and  C_10
REMARK    2  A    between atoms: O_4  and  C_23
REMARK    3  A    between atoms: N_6  and  C_9
REMARK    4  A    between atoms: N_6  and  C_14
REMARK    5  A    between atoms: N_7  and  C_13
REMARK    6  A    between atoms: N_8  and  C_22
REMARK    7  A    between atoms: C_11  and  C_13
REMARK    8  A    between atoms: C_14  and  C_15
REMARK    9  A    between atoms: C_21  and  C_23
REMARK                            x       y       z     vdW  Elec       q    Type
REMARK                         _______ _______ _______ _____ _____    ______ ____
ROOT
ATOM      1  O   UNL     1      -3.467   3.936  26.719  0.00  0.00    -0.371 OA
ATOM      9  C   UNL     1      -1.438   3.463  25.594  0.00  0.00    +0.111 C 
ATOM     10  C   UNL     1      -2.190   4.504  24.784  0.00  0.00    +0.164 C 
ATOM     11  C   UNL     1      -3.566   4.594  25.442  0.00  0.00    +0.165 C 
ATOM     12  C   UNL     1      -2.096   3.595  26.958  0.00  0.00    +0.181 C 
ENDROOT
BRANCH  10   2
ATOM      2  O   UNL     1      -1.514   5.753  24.944  0.00  0.00    -0.388 OA
ATOM     30  H   UNL     1      -2.121   6.355  25.406  0.00  0.00    +0.210 HD
ENDBRANCH  10   2
BRANCH   9   6
ATOM      6  N   UNL     1      -1.631   2.119  25.054  0.00  0.00    -0.305 NA
ATOM     29  H   UNL     1      -1.077   1.455  25.597  0.00  0.00    +0.123 HD
BRANCH   6  14
ATOM     14  C   UNL     1      -1.210   2.047  23.661  0.00  0.00    +0.116 C 
BRANCH  14  15
ATOM     15  C   UNL     1       0.156   1.427  23.520  0.00  0.00    -0.034 A 
ATOM     17  C   UNL     1       0.279   0.062  23.260  0.00  0.00    +0.006 A 
ATOM     18  C   UNL     1       1.298   2.219  23.647  0.00  0.00    +0.006 A 
ATOM     19  C   UNL     1       1.543  -0.511  23.129  0.00  0.00    +0.015 A 
ATOM     20  C   UNL     1       2.562   1.645  23.517  0.00  0.00    +0.015 A 
ATOM     21  C   UNL     1       2.685   0.280  23.257  0.00  0.00    +0.059 A 
BRANCH  21  23
ATOM      5  O   UNL     1       4.956   0.179  22.509  0.00  0.00    -0.245 OA
ATOM     23  C   UNL     1       4.004  -0.318  23.120  0.00  0.00    +0.337 C 
BRANCH  23   4
ATOM      4  O   UNL     1       4.099  -1.520  23.752  0.00  0.00    -0.477 OA
ATOM     33  H   UNL     1       5.024  -1.730  24.000  0.00  0.00    +0.295 HD
ENDBRANCH  23   4
ENDBRANCH  21  23
ENDBRANCH  14  15
ENDBRANCH   6  14
ENDBRANCH   9   6
BRANCH  11  13
ATOM     13  C   UNL     1      -4.670   3.918  24.641  0.00  0.00    +0.140 C 
BRANCH  13   7
ATOM      3  O   UNL     1      -4.655   1.282  25.761  0.00  0.00    -0.253 OA
ATOM      7  N   UNL     1      -4.196   2.721  24.009  0.00  0.00    -0.297 N 
ATOM      8  N   UNL     1      -3.699   0.484  23.771  0.00  0.00    -0.269 N 
ATOM     16  C   UNL     1      -4.223   1.458  24.624  0.00  0.00    +0.304 C 
ATOM     31  H   UNL     1      -3.814   2.792  23.071  0.00  0.00    +0.150 HD
ATOM     32  H   UNL     1      -3.383   0.799  22.858  0.00  0.00    +0.156 HD
BRANCH   8  22
ATOM     22  C   UNL     1      -3.553  -0.901  24.021  0.00  0.00    +0.035 A 
ATOM     24  C   UNL     1      -4.549  -1.791  23.619  0.00  0.00    +0.023 A 
ATOM     25  C   UNL     1      -2.413  -1.376  24.670  0.00  0.00    +0.023 A 
ATOM     26  C   UNL     1      -4.405  -3.156  23.866  0.00  0.00    +0.002 A 
ATOM     27  C   UNL     1      -2.270  -2.742  24.917  0.00  0.00    +0.002 A 
ATOM     28  C   UNL     1      -3.266  -3.632  24.515  0.00  0.00    +0.000 A 
ENDBRANCH   8  22
ENDBRANCH  13   7
ENDBRANCH  11  13
TORSDOF 9
ENDMDL
MODEL 8
REMARK VINA RESULT:      -0.1      2.318      5.701
REMARK  Name = 75536775
REMARK  9 active torsions:
REMARK  status: ('A' for Active; 'I' for Inactive)
REMARK    1  A    between atoms: O_2  and  C_10
REMARK    2  A    between atoms: O_4  and  C_23
REMARK    3  A    between atoms: N_6  and  C_9
REMARK    4  A    between atoms: N_6  and  C_14
REMARK    5  A    between atoms: N_7  and  C_13
REMARK    6  A    between atoms: N_8  and  C_22
REMARK    7  A    between atoms: C_11  and  C_13
REMARK    8  A    between atoms: C_14  and  C_15
REMARK    9  A    between atoms: C_21  and  C_23
REMARK                            x       y       z     vdW  Elec       q    Type
REMARK                         _______ _______ _______ _____ _____    ______ ____
ROOT
ATOM      1  O   UNL     1      -1.174  -3.491  25.078  0.00  0.00    -0.371 OA
ATOM      9  C   UNL     1      -0.120  -1.375  24.953  0.00  0.00    +0.111 C 
ATOM     10  C   UNL     1      -1.512  -1.170  25.525  0.00  0.00    +0.164 C 
ATOM     11  C   UNL     1      -2.201  -2.525  25.371  0.00  0.00    +0.165 C 
ATOM     12  C   UNL     1       0.105  -2.857  25.203  0.00  0.00    +0.181 C 
ENDROOT
BRANCH  10   2
ATOM      2  O   UNL     1      -1.372  -0.873  26.917  0.00  0.00    -0.388 OA
ATOM     30  H   UNL     1      -2.266  -0.769  27.282  0.00  0.00    +0.210 HD
ENDBRANCH  10   2
BRANCH   9   6
ATOM      6  N   UNL     1      -0.077  -1.079  23.523  0.00  0.00    -0.305 NA
ATOM     29  H   UNL     1       0.353  -1.862  23.029  0.00  0.00    +0.123 HD
BRANCH   6  14
ATOM     14  C   UNL     1       0.707   0.122  23.259  0.00  0.00    +0.116 C 
BRANCH  14  15
ATOM     15  C   UNL     1       0.066   1.351  23.851  0.00  0.00    -0.034 A 
ATOM     17  C   UNL     1       0.500   1.838  25.084  0.00  0.00    +0.006 A 
ATOM     18  C   UNL     1      -0.960   2.002  23.165  0.00  0.00    +0.006 A 
ATOM     19  C   UNL     1      -0.093   2.974  25.631  0.00  0.00    +0.015 A 
ATOM     20  C   UNL     1      -1.552   3.138  23.713  0.00  0.00    +0.015 A 
ATOM     21  C   UNL     1      -1.119   3.625  24.946  0.00  0.00    +0.059 A 
BRANCH  21  23
ATOM      5  O   UNL     1      -1.530   5.974  25.151  0.00  0.00    -0.245 OA
ATOM     23  C   UNL     1      -1.737   4.812  25.517  0.00  0.00    +0.337 C 
BRANCH  23   4
ATOM      4  O   UNL     1      -2.598   4.515  26.529  0.00  0.00    -0.477 OA
ATOM     33  H   UNL     1      -2.303   3.733  27.042  0.00  0.00    +0.295 HD
ENDBRANCH  23   4
ENDBRANCH  21  23
ENDBRANCH  14  15
ENDBRANCH   6  14
ENDBRANCH   9   6
BRANCH  11  13
ATOM     13  C   UNL     1      -3.225  -2.562  24.246  0.00  0.00    +0.140 C 
BRANCH  13   7
ATOM      3  O   UNL     1      -4.277  -0.453  25.874  0.00  0.00    -0.253 OA
ATOM      7  N   UNL     1      -3.575  -1.239  23.816  0.00  0.00    -0.297 N 
ATOM      8  N   UNL     1      -4.331   0.931  23.979  0.00  0.00    -0.269 N 
ATOM     16  C   UNL     1      -4.086  -0.255  24.677  0.00  0.00    +0.304 C 
ATOM     31  H   UNL     1      -3.453  -1.007  22.834  0.00  0.00    +0.150 HD
ATOM     32  H   UNL     1      -4.117   0.928  22.985  0.00  0.00    +0.156 HD
BRANCH   8  22
ATOM     22  C   UNL     1      -4.846   2.146  24.486  0.00  0.00    +0.035 A 
ATOM     24  C   UNL     1      -4.478   3.358  23.900  0.00  0.00    +0.023 A 
ATOM     25  C   UNL     1      -5.719   2.134  25.574  0.00  0.00    +0.023 A 
ATOM     26  C   UNL     1      -4.985   4.557  24.401  0.00  0.00    +0.002 A 
ATOM     27  C   UNL     1      -6.226   3.334  26.075  0.00  0.00    +0.002 A 
ATOM     28  C   UNL     1      -5.858   4.545  25.489  0.00  0.00    +0.000 A 
ENDBRANCH   8  22
ENDBRANCH  13   7
ENDBRANCH  11  13
TORSDOF 9
ENDMDL
MODEL 9
REMARK VINA RESULT:       0.1      2.263      6.593
REMARK  Name = 75536775
REMARK  9 active torsions:
REMARK  status: ('A' for Active; 'I' for Inactive)
REMARK    1  A    between atoms: O_2  and  C_10
REMARK    2  A    between atoms: O_4  and  C_23
REMARK    3  A    between atoms: N_6  and  C_9
REMARK    4  A    between atoms: N_6  and  C_14
REMARK    5  A    between atoms: N_7  and  C_13
REMARK    6  A    between atoms: N_8  and  C_22
REMARK    7  A    between atoms: C_11  and  C_13
REMARK    8  A    between atoms: C_14  and  C_15
REMARK    9  A    between atoms: C_21  and  C_23
REMARK                            x       y       z     vdW  Elec       q    Type
REMARK                         _______ _______ _______ _____ _____    ______ ____
ROOT
ATOM      1  O   UNL     1       3.115  -0.655  23.552  0.00  0.00    -0.371 OA
ATOM      9  C   UNL     1       0.842  -1.176  23.145  0.00  0.00    +0.111 C 
ATOM     10  C   UNL     1       1.226  -0.022  22.237  0.00  0.00    +0.164 C 
ATOM     11  C   UNL     1       2.618   0.399  22.706  0.00  0.00    +0.165 C 
ATOM     12  C   UNL     1       2.201  -1.757  23.503  0.00  0.00    +0.181 C 
ENDROOT
BRANCH  10   2
ATOM      2  O   UNL     1       1.316  -0.528  20.903  0.00  0.00    -0.388 OA
ATOM     30  H   UNL     1       1.082   0.198  20.301  0.00  0.00    +0.210 HD
ENDBRANCH  10   2
BRANCH   9   6
ATOM      6  N   UNL     1       0.146  -0.711  24.343  0.00  0.00    -0.305 NA
ATOM     29  H   UNL     1       0.799  -0.700  25.128  0.00  0.00    +0.123 HD
BRANCH   6  14
ATOM     14  C   UNL     1      -0.969  -1.589  24.677  0.00  0.00    +0.116 C 
BRANCH  14  15
ATOM     15  C   UNL     1      -2.259  -0.825  24.825  0.00  0.00    -0.034 A 
ATOM     17  C   UNL     1      -2.641   0.092  23.846  0.00  0.00    +0.006 A 
ATOM     18  C   UNL     1      -3.071  -1.036  25.940  0.00  0.00    +0.006 A 
ATOM     19  C   UNL     1      -3.835   0.799  23.983  0.00  0.00    +0.015 A 
ATOM     20  C   UNL     1      -4.264  -0.328  26.076  0.00  0.00    +0.015 A 
ATOM     21  C   UNL     1      -4.647   0.589  25.097  0.00  0.00    +0.059 A 
BRANCH  21  23
ATOM      5  O   UNL     1      -6.624   1.685  24.310  0.00  0.00    -0.245 OA
ATOM     23  C   UNL     1      -5.893   1.326  25.240  0.00  0.00    +0.337 C 
BRANCH  23   4
ATOM      4  O   UNL     1      -6.194   1.594  26.540  0.00  0.00    -0.477 OA
ATOM     33  H   UNL     1      -6.351   2.550  26.689  0.00  0.00    +0.295 HD
ENDBRANCH  23   4
ENDBRANCH  21  23
ENDBRANCH  14  15
ENDBRANCH   6  14
ENDBRANCH   9   6
BRANCH  11  13
ATOM     13  C   UNL     1       2.626   1.695  23.504  0.00  0.00    +0.140 C 
BRANCH  13   7
ATOM      3  O   UNL     1       0.573   1.984  25.480  0.00  0.00    -0.253 OA
ATOM      7  N   UNL     1       1.388   2.404  23.357  0.00  0.00    -0.297 N 
ATOM      8  N   UNL     1      -0.671   3.253  23.947  0.00  0.00    -0.269 N 
ATOM     16  C   UNL     1       0.426   2.503  24.376  0.00  0.00    +0.304 C 
ATOM     31  H   UNL     1       1.193   2.851  22.465  0.00  0.00    +0.150 HD
ATOM     32  H   UNL     1      -0.634   3.614  22.997  0.00  0.00    +0.156 HD
BRANCH   8  22
ATOM     22  C   UNL     1      -1.840   3.576  24.675  0.00  0.00    +0.035 A 
ATOM     24  C   UNL     1      -1.829   3.526  26.069  0.00  0.00    +0.023 A 
ATOM     25  C   UNL     1      -3.004   3.943  23.998  0.00  0.00    +0.023 A 
ATOM     26  C   UNL     1      -2.982   3.844  26.786  0.00  0.00    +0.002 A 
ATOM     27  C   UNL     1      -4.157   4.261  24.717  0.00  0.00    +0.002 A 
ATOM     28  C   UNL     1      -4.146   4.211  26.111  0.00  0.00    +0.000 A 
ENDBRANCH   8  22
ENDBRANCH  13   7
ENDBRANCH  11  13
TORSDOF 9
ENDMDL
MODEL 10
REMARK VINA RESULT:       0.5      2.277      7.085
REMARK  Name = 75536775
REMARK  9 active torsions:
REMARK  status: ('A' for Active; 'I' for Inactive)
REMARK    1  A    between atoms: O_2  and  C_10
REMARK    2  A    between atoms: O_4  and  C_23
REMARK    3  A    between atoms: N_6  and  C_9
REMARK    4  A    between atoms: N_6  and  C_14
REMARK    5  A    between atoms: N_7  and  C_13
REMARK    6  A    between atoms: N_8  and  C_22
REMARK    7  A    between atoms: C_11  and  C_13
REMARK    8  A    between atoms: C_14  and  C_15
REMARK    9  A    between atoms: C_21  and  C_23
REMARK                            x       y       z     vdW  Elec       q    Type
REMARK                         _______ _______ _______ _____ _____    ______ ____
ROOT
ATOM      1  O   UNL     1      -2.312  -2.649  26.068  0.00  0.00    -0.371 OA
ATOM      9  C   UNL     1      -3.132  -2.037  23.933  0.00  0.00    +0.111 C 
ATOM     10  C   UNL     1      -1.912  -2.918  23.730  0.00  0.00    +0.164 C 
ATOM     11  C   UNL     1      -1.315  -3.088  25.126  0.00  0.00    +0.165 C 
ATOM     12  C   UNL     1      -3.527  -2.377  25.360  0.00  0.00    +0.181 C 
ENDROOT
BRANCH  10   2
ATOM      2  O   UNL     1      -2.366  -4.188  23.258  0.00  0.00    -0.388 OA
ATOM     30  H   UNL     1      -1.598  -4.650  22.882  0.00  0.00    +0.210 HD
ENDBRANCH  10   2
BRANCH   9   6
ATOM      6  N   UNL     1      -2.798  -0.619  23.812  0.00  0.00    -0.305 NA
ATOM     29  H   UNL     1      -2.701  -0.215  24.745  0.00  0.00    +0.123 HD
BRANCH   6  14
ATOM     14  C   UNL     1      -3.841   0.107  23.099  0.00  0.00    +0.116 C 
BRANCH  14  15
ATOM     15  C   UNL     1      -4.271   1.346  23.841  0.00  0.00    -0.034 A 
ATOM     17  C   UNL     1      -5.020   1.232  25.012  0.00  0.00    +0.006 A 
ATOM     18  C   UNL     1      -3.917   2.606  23.358  0.00  0.00    +0.006 A 
ATOM     19  C   UNL     1      -5.418   2.378  25.699  0.00  0.00    +0.015 A 
ATOM     20  C   UNL     1      -4.315   3.752  24.046  0.00  0.00    +0.015 A 
ATOM     21  C   UNL     1      -5.065   3.638  25.217  0.00  0.00    +0.059 A 
BRANCH  21  23
ATOM      5  O   UNL     1      -4.757   5.513  26.672  0.00  0.00    -0.245 OA
ATOM     23  C   UNL     1      -5.479   4.834  25.934  0.00  0.00    +0.337 C 
BRANCH  23   4
ATOM      4  O   UNL     1      -6.784   5.152  25.708  0.00  0.00    -0.477 OA
ATOM     33  H   UNL     1      -7.370   4.816  26.419  0.00  0.00    +0.295 HD
ENDBRANCH  23   4
ENDBRANCH  21  23
ENDBRANCH  14  15
ENDBRANCH   6  14
ENDBRANCH   9   6
BRANCH  11  13
ATOM     13  C   UNL     1      -0.052  -2.271  25.352  0.00  0.00    +0.140 C 
BRANCH  13   7
ATOM      3  O   UNL     1      -0.096   0.184  23.876  0.00  0.00    -0.253 OA
ATOM      7  N   UNL     1      -0.359  -0.967  25.865  0.00  0.00    -0.297 N 
ATOM      8  N   UNL     1      -0.698   1.312  25.845  0.00  0.00    -0.269 N 
ATOM     16  C   UNL     1      -0.361   0.195  25.076  0.00  0.00    +0.304 C 
ATOM     31  H   UNL     1      -0.578  -0.880  26.853  0.00  0.00    +0.150 HD
ATOM     32  H   UNL     1      -0.890   1.147  26.830  0.00  0.00    +0.156 HD
BRANCH   8  22
ATOM     22  C   UNL     1      -0.806   2.657  25.422  0.00  0.00    +0.035 A 
ATOM     24  C   UNL     1      -0.112   3.090  24.292  0.00  0.00    +0.023 A 
ATOM     25  C   UNL     1      -1.606   3.550  26.135  0.00  0.00    +0.023 A 
ATOM     26  C   UNL     1      -0.218   4.417  23.875  0.00  0.00    +0.002 A 
ATOM     27  C   UNL     1      -1.712   4.878  25.717  0.00  0.00    +0.002 A 
ATOM     28  C   UNL     1      -1.017   5.311  24.587  0.00  0.00    +0.000 A 
ENDBRANCH   8  22
ENDBRANCH  13   7
ENDBRANCH  11  13
TORSDOF 9
ENDMDL
