MODEL 1
REMARK VINA RESULT:      -5.8      0.000      0.000
REMARK  Name = 26743586
REMARK  6 active torsions:
REMARK  status: ('A' for Active; 'I' for Inactive)
REMARK    1  A    between atoms: O_1  and  C_9
REMARK    2  A    between atoms: N_3  and  C_11
REMARK    3  A    between atoms: N_4  and  C_20
REMARK    4  A    between atoms: C_7  and  C_12
REMARK    5  A    between atoms: C_11  and  C_13
REMARK    6  A    between atoms: C_18  and  C_23
REMARK                            x       y       z     vdW  Elec       q    Type
REMARK                         _______ _______ _______ _____ _____    ______ ____
ROOT
ATOM      3  N   UNL     1      15.892  -8.039  27.538  0.00  0.00    -0.285 NA
ATOM      7  C   UNL     1      17.019  -7.703  26.643  0.00  0.00    +0.149 C 
ATOM      8  C   UNL     1      16.764  -8.524  25.364  0.00  0.00    +0.061 C 
ATOM      9  C   UNL     1      15.499  -9.323  25.654  0.00  0.00    +0.130 C 
ATOM     10  C   UNL     1      15.459  -9.385  27.169  0.00  0.00    +0.116 C 
ENDROOT
BRANCH   7  12
ATOM      2  O   UNL     1      17.344  -5.420  27.451  0.00  0.00    -0.336 OA
ATOM      5  N   UNL     1      17.034  -5.571  25.238  0.00  0.00    -0.190 NA
ATOM      6  N   UNL     1      17.404  -4.110  26.959  0.00  0.00    -0.056 NA
ATOM     12  C   UNL     1      17.125  -6.217  26.373  0.00  0.00    +0.245 A 
ATOM     18  C   UNL     1      17.212  -4.281  25.648  0.00  0.00    +0.202 A 
BRANCH  18  23
ATOM     23  C   UNL     1      17.193  -3.187  24.721  0.00  0.00    +0.022 A 
ATOM     24  C   UNL     1      17.337  -3.428  23.355  0.00  0.00    +0.012 A 
ATOM     25  C   UNL     1      17.030  -1.882  25.185  0.00  0.00    +0.012 A 
ATOM     26  C   UNL     1      17.319  -2.364  22.453  0.00  0.00    +0.001 A 
ATOM     27  C   UNL     1      17.012  -0.818  24.283  0.00  0.00    +0.001 A 
ATOM     28  C   UNL     1      17.157  -1.059  22.918  0.00  0.00    +0.000 A 
ENDBRANCH  18  23
ENDBRANCH   7  12
BRANCH   9   1
ATOM      1  O   UNL     1      15.577 -10.612  25.077  0.00  0.00    -0.390 OA
ATOM     29  H   UNL     1      14.678 -10.865  24.803  0.00  0.00    +0.210 HD
ENDBRANCH   9   1
BRANCH   3  11
ATOM     11  C   UNL     1      16.233  -7.941  28.952  0.00  0.00    +0.122 C 
BRANCH  11  13
ATOM      4  N   UNL     1      13.194  -6.843  30.710  0.00  0.00    -0.349 N 
ATOM     13  C   UNL     1      15.147  -7.264  29.744  0.00  0.00    -0.008 A 
ATOM     14  C   UNL     1      15.246  -6.018  30.424  0.00  0.00    +0.004 A 
ATOM     15  C   UNL     1      13.874  -7.747  29.938  0.00  0.00    +0.091 A 
ATOM     16  C   UNL     1      14.007  -5.778  31.022  0.00  0.00    +0.049 A 
ATOM     17  C   UNL     1      16.275  -5.069  30.589  0.00  0.00    +0.010 A 
ATOM     19  C   UNL     1      13.744  -4.630  31.779  0.00  0.00    +0.026 A 
ATOM     20  C   UNL     1      11.816  -7.000  31.127  0.00  0.00    +0.149 C 
ATOM     21  C   UNL     1      16.026  -3.916  31.344  0.00  0.00    +0.001 A 
ATOM     22  C   UNL     1      14.779  -3.703  31.929  0.00  0.00    +0.002 A 
ENDBRANCH  11  13
ENDBRANCH   3  11
TORSDOF 5
ENDMDL
MODEL 2
REMARK VINA RESULT:      -5.7      0.740      2.160
REMARK  Name = 26743586
REMARK  6 active torsions:
REMARK  status: ('A' for Active; 'I' for Inactive)
REMARK    1  A    between atoms: O_1  and  C_9
REMARK    2  A    between atoms: N_3  and  C_11
REMARK    3  A    between atoms: N_4  and  C_20
REMARK    4  A    between atoms: C_7  and  C_12
REMARK    5  A    between atoms: C_11  and  C_13
REMARK    6  A    between atoms: C_18  and  C_23
REMARK                            x       y       z     vdW  Elec       q    Type
REMARK                         _______ _______ _______ _____ _____    ______ ____
ROOT
ATOM      3  N   UNL     1      15.994  -7.869  27.730  0.00  0.00    -0.285 NA
ATOM      7  C   UNL     1      17.017  -7.561  26.709  0.00  0.00    +0.149 C 
ATOM      8  C   UNL     1      16.615  -8.401  25.483  0.00  0.00    +0.061 C 
ATOM      9  C   UNL     1      15.383  -9.182  25.926  0.00  0.00    +0.130 C 
ATOM     10  C   UNL     1      15.511  -9.216  27.437  0.00  0.00    +0.116 C 
ENDROOT
BRANCH   7  12
ATOM      2  O   UNL     1      17.374  -5.259  27.449  0.00  0.00    -0.336 OA
ATOM      5  N   UNL     1      16.957  -5.461  25.258  0.00  0.00    -0.190 NA
ATOM      6  N   UNL     1      17.405  -3.961  26.925  0.00  0.00    -0.056 NA
ATOM     12  C   UNL     1      17.105  -6.081  26.401  0.00  0.00    +0.245 A 
ATOM     18  C   UNL     1      17.151  -4.162  25.629  0.00  0.00    +0.202 A 
BRANCH  18  23
ATOM     23  C   UNL     1      17.084  -3.089  24.680  0.00  0.00    +0.022 A 
ATOM     24  C   UNL     1      17.107  -1.765  25.121  0.00  0.00    +0.012 A 
ATOM     25  C   UNL     1      16.997  -3.367  23.316  0.00  0.00    +0.012 A 
ATOM     26  C   UNL     1      17.043  -0.722  24.199  0.00  0.00    +0.001 A 
ATOM     27  C   UNL     1      16.932  -2.323  22.394  0.00  0.00    +0.001 A 
ATOM     28  C   UNL     1      16.955  -1.000  22.834  0.00  0.00    +0.000 A 
ENDBRANCH  18  23
ENDBRANCH   7  12
BRANCH   9   1
ATOM      1  O   UNL     1      15.386 -10.482  25.368  0.00  0.00    -0.390 OA
ATOM     29  H   UNL     1      15.022 -10.415  24.468  0.00  0.00    +0.210 HD
ENDBRANCH   9   1
BRANCH   3  11
ATOM     11  C   UNL     1      16.490  -7.749  29.095  0.00  0.00    +0.122 C 
BRANCH  11  13
ATOM      4  N   UNL     1      15.320  -4.769  30.908  0.00  0.00    -0.349 N 
ATOM     13  C   UNL     1      15.766  -6.674  29.862  0.00  0.00    -0.008 A 
ATOM     14  C   UNL     1      14.427  -6.733  30.340  0.00  0.00    +0.004 A 
ATOM     15  C   UNL     1      16.289  -5.456  30.226  0.00  0.00    +0.091 A 
ATOM     16  C   UNL     1      14.173  -5.524  30.992  0.00  0.00    +0.049 A 
ATOM     17  C   UNL     1      13.404  -7.700  30.280  0.00  0.00    +0.010 A 
ATOM     19  C   UNL     1      12.941  -5.233  31.590  0.00  0.00    +0.026 A 
ATOM     20  C   UNL     1      15.495  -3.441  31.456  0.00  0.00    +0.149 C 
ATOM     21  C   UNL     1      12.167  -7.423  30.874  0.00  0.00    +0.001 A 
ATOM     22  C   UNL     1      11.941  -6.208  31.518  0.00  0.00    +0.002 A 
ENDBRANCH  11  13
ENDBRANCH   3  11
TORSDOF 5
ENDMDL
MODEL 3
REMARK VINA RESULT:      -5.3      1.498      2.040
REMARK  Name = 26743586
REMARK  6 active torsions:
REMARK  status: ('A' for Active; 'I' for Inactive)
REMARK    1  A    between atoms: O_1  and  C_9
REMARK    2  A    between atoms: N_3  and  C_11
REMARK    3  A    between atoms: N_4  and  C_20
REMARK    4  A    between atoms: C_7  and  C_12
REMARK    5  A    between atoms: C_11  and  C_13
REMARK    6  A    between atoms: C_18  and  C_23
REMARK                            x       y       z     vdW  Elec       q    Type
REMARK                         _______ _______ _______ _____ _____    ______ ____
ROOT
ATOM      3  N   UNL     1      16.081  -8.325  27.537  0.00  0.00    -0.285 NA
ATOM      7  C   UNL     1      17.058  -7.935  26.499  0.00  0.00    +0.149 C 
ATOM      8  C   UNL     1      16.586  -8.658  25.223  0.00  0.00    +0.061 C 
ATOM      9  C   UNL     1      15.367  -9.464  25.654  0.00  0.00    +0.130 C 
ATOM     10  C   UNL     1      15.567  -9.636  27.148  0.00  0.00    +0.116 C 
ENDROOT
BRANCH   7  12
ATOM      2  O   UNL     1      17.356  -5.702  27.447  0.00  0.00    -0.336 OA
ATOM      5  N   UNL     1      17.060  -5.721  25.227  0.00  0.00    -0.190 NA
ATOM      6  N   UNL     1      17.405  -4.365  27.037  0.00  0.00    -0.056 NA
ATOM     12  C   UNL     1      17.151  -6.434  26.321  0.00  0.00    +0.245 A 
ATOM     18  C   UNL     1      17.222  -4.457  25.716  0.00  0.00    +0.202 A 
BRANCH  18  23
ATOM     23  C   UNL     1      17.198  -3.308  24.858  0.00  0.00    +0.022 A 
ATOM     24  C   UNL     1      17.342  -3.465  23.479  0.00  0.00    +0.012 A 
ATOM     25  C   UNL     1      17.030  -2.034  25.400  0.00  0.00    +0.012 A 
ATOM     26  C   UNL     1      17.318  -2.348  22.644  0.00  0.00    +0.001 A 
ATOM     27  C   UNL     1      17.007  -0.918  24.565  0.00  0.00    +0.001 A 
ATOM     28  C   UNL     1      17.151  -1.074  23.187  0.00  0.00    +0.000 A 
ENDBRANCH  18  23
ENDBRANCH   7  12
BRANCH   9   1
ATOM      1  O   UNL     1      15.326 -10.708  24.983  0.00  0.00    -0.390 OA
ATOM     29  H   UNL     1      16.232 -10.917  24.697  0.00  0.00    +0.210 HD
ENDBRANCH   9   1
BRANCH   3  11
ATOM     11  C   UNL     1      16.644  -8.333  28.881  0.00  0.00    +0.122 C 
BRANCH  11  13
ATOM      4  N   UNL     1      14.526  -9.770  31.524  0.00  0.00    -0.349 N 
ATOM     13  C   UNL     1      15.613  -8.691  29.918  0.00  0.00    -0.008 A 
ATOM     14  C   UNL     1      14.447  -7.944  30.245  0.00  0.00    +0.004 A 
ATOM     15  C   UNL     1      15.634  -9.808  30.721  0.00  0.00    +0.091 A 
ATOM     16  C   UNL     1      13.783  -8.642  31.256  0.00  0.00    +0.049 A 
ATOM     17  C   UNL     1      13.891  -6.736  29.777  0.00  0.00    +0.010 A 
ATOM     19  C   UNL     1      12.586  -8.192  31.825  0.00  0.00    +0.026 A 
ATOM     20  C   UNL     1      14.197 -10.779  32.508  0.00  0.00    +0.149 C 
ATOM     21  C   UNL     1      12.694  -6.274  30.337  0.00  0.00    +0.001 A 
ATOM     22  C   UNL     1      12.053  -6.992  31.344  0.00  0.00    +0.002 A 
ENDBRANCH  11  13
ENDBRANCH   3  11
TORSDOF 5
ENDMDL
MODEL 4
REMARK VINA RESULT:      -4.1      3.286      4.334
REMARK  Name = 26743586
REMARK  6 active torsions:
REMARK  status: ('A' for Active; 'I' for Inactive)
REMARK    1  A    between atoms: O_1  and  C_9
REMARK    2  A    between atoms: N_3  and  C_11
REMARK    3  A    between atoms: N_4  and  C_20
REMARK    4  A    between atoms: C_7  and  C_12
REMARK    5  A    between atoms: C_11  and  C_13
REMARK    6  A    between atoms: C_18  and  C_23
REMARK                            x       y       z     vdW  Elec       q    Type
REMARK                         _______ _______ _______ _____ _____    ______ ____
ROOT
ATOM      3  N   UNL     1      15.314  -9.348  28.659  0.00  0.00    -0.285 NA
ATOM      7  C   UNL     1      16.702  -8.843  28.659  0.00  0.00    +0.149 C 
ATOM      8  C   UNL     1      17.046  -8.636  27.171  0.00  0.00    +0.061 C 
ATOM      9  C   UNL     1      15.807  -9.095  26.413  0.00  0.00    +0.130 C 
ATOM     10  C   UNL     1      15.126 -10.040  27.385  0.00  0.00    +0.116 C 
ENDROOT
BRANCH   7  12
ATOM      2  O   UNL     1      17.328  -7.734  30.745  0.00  0.00    -0.336 OA
ATOM      5  N   UNL     1      16.614  -6.338  29.146  0.00  0.00    -0.190 NA
ATOM      6  N   UNL     1      17.389  -6.448  31.295  0.00  0.00    -0.056 NA
ATOM     12  C   UNL     1      16.862  -7.580  29.478  0.00  0.00    +0.245 A 
ATOM     18  C   UNL     1      16.953  -5.680  30.293  0.00  0.00    +0.202 A 
BRANCH  18  23
ATOM     23  C   UNL     1      16.845  -4.254  30.403  0.00  0.00    +0.022 A 
ATOM     24  C   UNL     1      17.360  -3.436  29.398  0.00  0.00    +0.012 A 
ATOM     25  C   UNL     1      16.224  -3.685  31.515  0.00  0.00    +0.012 A 
ATOM     26  C   UNL     1      17.255  -2.050  29.505  0.00  0.00    +0.001 A 
ATOM     27  C   UNL     1      16.119  -2.298  31.621  0.00  0.00    +0.001 A 
ATOM     28  C   UNL     1      16.635  -1.480  30.617  0.00  0.00    +0.000 A 
ENDBRANCH  18  23
ENDBRANCH   7  12
BRANCH   9   1
ATOM      1  O   UNL     1      16.168  -9.748  25.211  0.00  0.00    -0.390 OA
ATOM     29  H   UNL     1      16.806  -9.178  24.749  0.00  0.00    +0.210 HD
ENDBRANCH   9   1
BRANCH   3  11
ATOM     11  C   UNL     1      15.015 -10.207  29.798  0.00  0.00    +0.122 C 
BRANCH  11  13
ATOM      4  N   UNL     1      11.645 -10.089  31.268  0.00  0.00    -0.349 N 
ATOM     13  C   UNL     1      13.682  -9.876  30.414  0.00  0.00    -0.008 A 
ATOM     14  C   UNL     1      13.214  -8.582  30.775  0.00  0.00    +0.004 A 
ATOM     15  C   UNL     1      12.696 -10.781  30.729  0.00  0.00    +0.091 A 
ATOM     16  C   UNL     1      11.934  -8.743  31.308  0.00  0.00    +0.049 A 
ATOM     17  C   UNL     1      13.759  -7.285  30.699  0.00  0.00    +0.010 A 
ATOM     19  C   UNL     1      11.167  -7.668  31.771  0.00  0.00    +0.026 A 
ATOM     20  C   UNL     1      10.413 -10.698  31.722  0.00  0.00    +0.149 C 
ATOM     21  C   UNL     1      13.004  -6.199  31.159  0.00  0.00    +0.001 A 
ATOM     22  C   UNL     1      11.728  -6.390  31.686  0.00  0.00    +0.002 A 
ENDBRANCH  11  13
ENDBRANCH   3  11
TORSDOF 5
ENDMDL
MODEL 5
REMARK VINA RESULT:      -3.8      3.494      5.165
REMARK  Name = 26743586
REMARK  6 active torsions:
REMARK  status: ('A' for Active; 'I' for Inactive)
REMARK    1  A    between atoms: O_1  and  C_9
REMARK    2  A    between atoms: N_3  and  C_11
REMARK    3  A    between atoms: N_4  and  C_20
REMARK    4  A    between atoms: C_7  and  C_12
REMARK    5  A    between atoms: C_11  and  C_13
REMARK    6  A    between atoms: C_18  and  C_23
REMARK                            x       y       z     vdW  Elec       q    Type
REMARK                         _______ _______ _______ _____ _____    ______ ____
ROOT
ATOM      3  N   UNL     1      15.030  -9.414  29.371  0.00  0.00    -0.285 NA
ATOM      7  C   UNL     1      16.457  -9.118  29.612  0.00  0.00    +0.149 C 
ATOM      8  C   UNL     1      17.122  -9.236  28.227  0.00  0.00    +0.061 C 
ATOM      9  C   UNL     1      15.999  -9.645  27.283  0.00  0.00    +0.130 C 
ATOM     10  C   UNL     1      14.981 -10.292  28.203  0.00  0.00    +0.116 C 
ENDROOT
BRANCH   7  12
ATOM      2  O   UNL     1      17.190  -7.761  31.507  0.00  0.00    -0.336 OA
ATOM      5  N   UNL     1      16.427  -6.570  29.771  0.00  0.00    -0.190 NA
ATOM      6  N   UNL     1      17.295  -6.416  31.881  0.00  0.00    -0.056 NA
ATOM     12  C   UNL     1      16.672  -7.763  30.252  0.00  0.00    +0.245 A 
ATOM     18  C   UNL     1      16.826  -5.775  30.806  0.00  0.00    +0.202 A 
BRANCH  18  23
ATOM     23  C   UNL     1      16.743  -4.346  30.734  0.00  0.00    +0.022 A 
ATOM     24  C   UNL     1      17.154  -3.681  29.578  0.00  0.00    +0.012 A 
ATOM     25  C   UNL     1      16.252  -3.619  31.818  0.00  0.00    +0.012 A 
ATOM     26  C   UNL     1      17.074  -2.291  29.507  0.00  0.00    +0.001 A 
ATOM     27  C   UNL     1      16.172  -2.228  31.746  0.00  0.00    +0.001 A 
ATOM     28  C   UNL     1      16.583  -1.564  30.592  0.00  0.00    +0.000 A 
ENDBRANCH  18  23
ENDBRANCH   7  12
BRANCH   9   1
ATOM      1  O   UNL     1      16.471 -10.550  26.304  0.00  0.00    -0.390 OA
ATOM     29  H   UNL     1      17.263 -10.156  25.900  0.00  0.00    +0.210 HD
ENDBRANCH   9   1
BRANCH   3  11
ATOM     11  C   UNL     1      14.362 -10.000  30.526  0.00  0.00    +0.122 C 
BRANCH  11  13
ATOM      4  N   UNL     1      12.154  -7.325  31.753  0.00  0.00    -0.349 N 
ATOM     13  C   UNL     1      13.262  -9.113  31.047  0.00  0.00    -0.008 A 
ATOM     14  C   UNL     1      11.938  -9.513  31.381  0.00  0.00    +0.004 A 
ATOM     15  C   UNL     1      13.365  -7.763  31.287  0.00  0.00    +0.091 A 
ATOM     16  C   UNL     1      11.264  -8.373  31.821  0.00  0.00    +0.049 A 
ATOM     17  C   UNL     1      11.247 -10.741  31.350  0.00  0.00    +0.010 A 
ATOM     19  C   UNL     1       9.927  -8.397  32.234  0.00  0.00    +0.026 A 
ATOM     20  C   UNL     1      11.869  -5.954  32.121  0.00  0.00    +0.149 C 
ATOM     21  C   UNL     1       9.908 -10.781  31.760  0.00  0.00    +0.001 A 
ATOM     22  C   UNL     1       9.261  -9.626  32.195  0.00  0.00    +0.002 A 
ENDBRANCH  11  13
ENDBRANCH   3  11
TORSDOF 5
ENDMDL
MODEL 6
REMARK VINA RESULT:      -2.9     16.535     18.512
REMARK  Name = 26743586
REMARK  6 active torsions:
REMARK  status: ('A' for Active; 'I' for Inactive)
REMARK    1  A    between atoms: O_1  and  C_9
REMARK    2  A    between atoms: N_3  and  C_11
REMARK    3  A    between atoms: N_4  and  C_20
REMARK    4  A    between atoms: C_7  and  C_12
REMARK    5  A    between atoms: C_11  and  C_13
REMARK    6  A    between atoms: C_18  and  C_23
REMARK                            x       y       z     vdW  Elec       q    Type
REMARK                         _______ _______ _______ _____ _____    ______ ____
ROOT
ATOM      3  N   UNL     1      -1.725   2.655  25.286  0.00  0.00    -0.285 NA
ATOM      7  C   UNL     1      -1.237   2.800  23.899  0.00  0.00    +0.149 C 
ATOM      8  C   UNL     1      -0.729   4.251  23.810  0.00  0.00    +0.061 C 
ATOM      9  C   UNL     1      -1.016   4.854  25.179  0.00  0.00    +0.130 C 
ATOM     10  C   UNL     1      -2.138   3.988  25.720  0.00  0.00    +0.116 C 
ENDROOT
BRANCH   7  12
ATOM      2  O   UNL     1      -0.565   0.731  22.785  0.00  0.00    -0.336 OA
ATOM      5  N   UNL     1       1.097   1.764  23.874  0.00  0.00    -0.190 NA
ATOM      6  N   UNL     1       0.576  -0.059  22.595  0.00  0.00    -0.056 NA
ATOM     12  C   UNL     1      -0.171   1.784  23.547  0.00  0.00    +0.245 A 
ATOM     18  C   UNL     1       1.514   0.615  23.267  0.00  0.00    +0.202 A 
BRANCH  18  23
ATOM     23  C   UNL     1       2.874   0.170  23.350  0.00  0.00    +0.022 A 
ATOM     24  C   UNL     1       3.916   1.053  23.061  0.00  0.00    +0.012 A 
ATOM     25  C   UNL     1       3.158  -1.145  23.719  0.00  0.00    +0.012 A 
ATOM     26  C   UNL     1       5.239   0.620  23.142  0.00  0.00    +0.001 A 
ATOM     27  C   UNL     1       4.481  -1.577  23.799  0.00  0.00    +0.001 A 
ATOM     28  C   UNL     1       5.522  -0.695  23.511  0.00  0.00    +0.000 A 
ENDBRANCH  18  23
ENDBRANCH   7  12
BRANCH   9   1
ATOM      1  O   UNL     1      -1.409   6.208  25.059  0.00  0.00    -0.390 OA
ATOM     29  H   UNL     1      -1.852   6.458  25.888  0.00  0.00    +0.210 HD
ENDBRANCH   9   1
BRANCH   3  11
ATOM     11  C   UNL     1      -2.799   1.678  25.418  0.00  0.00    +0.122 C 
BRANCH  11  13
ATOM      4  N   UNL     1      -0.976  -1.518  25.459  0.00  0.00    -0.349 N 
ATOM     13  C   UNL     1      -2.288   0.266  25.309  0.00  0.00    -0.008 A 
ATOM     14  C   UNL     1      -2.981  -0.844  24.750  0.00  0.00    +0.004 A 
ATOM     15  C   UNL     1      -1.059  -0.179  25.736  0.00  0.00    +0.091 A 
ATOM     16  C   UNL     1      -2.136  -1.950  24.857  0.00  0.00    +0.049 A 
ATOM     17  C   UNL     1      -4.250  -1.014  24.162  0.00  0.00    +0.010 A 
ATOM     19  C   UNL     1      -2.497  -3.224  24.403  0.00  0.00    +0.026 A 
ATOM     20  C   UNL     1       0.174  -2.343  25.761  0.00  0.00    +0.149 C 
ATOM     21  C   UNL     1      -4.626  -2.282  23.703  0.00  0.00    +0.001 A 
ATOM     22  C   UNL     1      -3.761  -3.368  23.823  0.00  0.00    +0.002 A 
ENDBRANCH  11  13
ENDBRANCH   3  11
TORSDOF 5
ENDMDL
MODEL 7
REMARK VINA RESULT:      -2.9     17.103     18.657
REMARK  Name = 26743586
REMARK  6 active torsions:
REMARK  status: ('A' for Active; 'I' for Inactive)
REMARK    1  A    between atoms: O_1  and  C_9
REMARK    2  A    between atoms: N_3  and  C_11
REMARK    3  A    between atoms: N_4  and  C_20
REMARK    4  A    between atoms: C_7  and  C_12
REMARK    5  A    between atoms: C_11  and  C_13
REMARK    6  A    between atoms: C_18  and  C_23
REMARK                            x       y       z     vdW  Elec       q    Type
REMARK                         _______ _______ _______ _____ _____    ______ ____
ROOT
ATOM      3  N   UNL     1      -2.661  -0.625  23.292  0.00  0.00    -0.285 NA
ATOM      7  C   UNL     1      -1.591  -0.410  24.289  0.00  0.00    +0.149 C 
ATOM      8  C   UNL     1      -1.719  -1.595  25.265  0.00  0.00    +0.061 C 
ATOM      9  C   UNL     1      -2.915  -2.394  24.762  0.00  0.00    +0.130 C 
ATOM     10  C   UNL     1      -3.715  -1.374  23.973  0.00  0.00    +0.116 C 
ENDROOT
BRANCH   7  12
ATOM      2  O   UNL     1      -0.181  -0.156  22.310  0.00  0.00    -0.336 OA
ATOM      5  N   UNL     1       0.961  -0.372  24.224  0.00  0.00    -0.190 NA
ATOM      6  N   UNL     1       1.175  -0.097  21.963  0.00  0.00    -0.056 NA
ATOM     12  C   UNL     1      -0.218  -0.317  23.658  0.00  0.00    +0.245 A 
ATOM     18  C   UNL     1       1.785  -0.233  23.145  0.00  0.00    +0.202 A 
BRANCH  18  23
ATOM     23  C   UNL     1       3.212  -0.231  23.281  0.00  0.00    +0.022 A 
ATOM     24  C   UNL     1       3.872  -1.378  23.723  0.00  0.00    +0.012 A 
ATOM     25  C   UNL     1       3.942   0.917  22.973  0.00  0.00    +0.012 A 
ATOM     26  C   UNL     1       5.260  -1.377  23.855  0.00  0.00    +0.001 A 
ATOM     27  C   UNL     1       5.330   0.918  23.106  0.00  0.00    +0.001 A 
ATOM     28  C   UNL     1       5.989  -0.228  23.547  0.00  0.00    +0.000 A 
ENDBRANCH  18  23
ENDBRANCH   7  12
BRANCH   9   1
ATOM      1  O   UNL     1      -3.658  -2.920  25.845  0.00  0.00    -0.390 OA
ATOM     29  H   UNL     1      -4.559  -2.559  25.784  0.00  0.00    +0.210 HD
ENDBRANCH   9   1
BRANCH   3  11
ATOM     11  C   UNL     1      -3.159   0.613  22.708  0.00  0.00    +0.122 C 
BRANCH  11  13
ATOM      4  N   UNL     1      -4.587   2.782  25.314  0.00  0.00    -0.349 N 
ATOM     13  C   UNL     1      -3.491   1.636  23.761  0.00  0.00    -0.008 A 
ATOM     14  C   UNL     1      -2.644   2.682  24.223  0.00  0.00    +0.004 A 
ATOM     15  C   UNL     1      -4.678   1.724  24.450  0.00  0.00    +0.091 A 
ATOM     16  C   UNL     1      -3.355   3.385  25.197  0.00  0.00    +0.049 A 
ATOM     17  C   UNL     1      -1.336   3.098  23.905  0.00  0.00    +0.010 A 
ATOM     19  C   UNL     1      -2.822   4.490  25.872  0.00  0.00    +0.026 A 
ATOM     20  C   UNL     1      -5.643   3.195  26.213  0.00  0.00    +0.149 C 
ATOM     21  C   UNL     1      -0.789   4.202  24.572  0.00  0.00    +0.001 A 
ATOM     22  C   UNL     1      -1.523   4.885  25.539  0.00  0.00    +0.002 A 
ENDBRANCH  11  13
ENDBRANCH   3  11
TORSDOF 5
ENDMDL
