MODEL 1
REMARK VINA RESULT:       9.7      0.000      0.000
REMARK  Name = 26743432
REMARK  12 active torsions:
REMARK  status: ('A' for Active; 'I' for Inactive)
REMARK    1  A    between atoms: O_2  and  C_27
REMARK    2  A    between atoms: O_2  and  C_28
REMARK    3  A    between atoms: N_3  and  C_15
REMARK    4  A    between atoms: N_4  and  C_8
REMARK    5  A    between atoms: C_6  and  C_9
REMARK    6  A    between atoms: C_12  and  C_16
REMARK    7  A    between atoms: C_13  and  C_18
REMARK    8  A    between atoms: C_14  and  C_17
REMARK    9  A    between atoms: C_14  and  C_24
REMARK   10  A    between atoms: C_14  and  C_25
REMARK   11  A    between atoms: C_14  and  C_26
REMARK   12  A    between atoms: C_19  and  C_27
REMARK                            x       y       z     vdW  Elec       q    Type
REMARK                         _______ _______ _______ _____ _____    ______ ____
ROOT
ATOM      3  N   UNL     1      -0.846   0.838  23.648  0.00  0.00    -0.236 N 
ATOM      5  N   UNL     1      -0.749  -0.014  22.613  0.00  0.00    -0.171 NA
ATOM      9  C   UNL     1       1.310   0.634  23.361  0.00  0.00    +0.003 A 
ATOM     12  C   UNL     1       0.358   1.255  24.133  0.00  0.00    +0.046 A 
ATOM     13  C   UNL     1       0.570  -0.135  22.443  0.00  0.00    +0.064 A 
ATOM     16  C   UNL     1       0.495   2.194  25.265  0.00  0.00    +0.066 C 
ATOM     18  C   UNL     1       1.086  -1.008  21.373  0.00  0.00    +0.068 C 
ENDROOT
BRANCH   3  15
ATOM     15  C   UNL     1      -2.104   1.210  24.122  0.00  0.00    +0.066 A 
ATOM     17  C   UNL     1      -4.618   1.955  25.075  0.00  0.00    -0.042 A 
ATOM     20  C   UNL     1      -2.524   2.536  24.019  0.00  0.00    +0.028 A 
ATOM     21  C   UNL     1      -2.941   0.256  24.702  0.00  0.00    +0.028 A 
ATOM     22  C   UNL     1      -3.781   2.908  24.495  0.00  0.00    +0.006 A 
ATOM     23  C   UNL     1      -4.197   0.628  25.178  0.00  0.00    +0.006 A 
BRANCH  17  14
ATOM     14  C   UNL     1      -5.962   2.352  25.584  0.00  0.00    -0.013 C 
ATOM     24  C   UNL     1      -7.093   1.902  24.608  0.00  0.00    +0.015 C 
ATOM     25  C   UNL     1      -6.070   3.901  25.746  0.00  0.00    +0.015 C 
ATOM     26  C   UNL     1      -6.355   1.760  26.978  0.00  0.00    +0.015 C 
ENDBRANCH  17  14
ENDBRANCH   3  15
BRANCH   9   6
ATOM      6  C   UNL     1       2.812   0.752  23.476  0.00  0.00    +0.047 C 
ATOM      7  C   UNL     1       3.537  -0.610  23.419  0.00  0.00    +0.039 C 
ATOM      8  C   UNL     1       4.864  -0.347  22.695  0.00  0.00    +0.097 C 
ATOM     10  C   UNL     1       3.470   1.514  22.362  0.00  0.00    -0.021 C 
ATOM     11  C   UNL     1       4.588   0.913  21.943  0.00  0.00    -0.009 C 
BRANCH   8   4
ATOM      1  O   UNL     1       7.667  -0.882  22.217  0.00  0.00    -0.273 OA
ATOM      4  N   UNL     1       5.958  -0.126  23.603  0.00  0.00    -0.307 N 
ATOM     19  C   UNL     1       7.280  -0.416  23.285  0.00  0.00    +0.239 C 
ATOM     29  H   UNL     1       5.750   0.223  24.535  0.00  0.00    +0.149 HD
BRANCH  19  27
ATOM     27  C   UNL     1       8.221  -0.084  24.423  0.00  0.00    +0.255 C 
BRANCH  27   2
ATOM      2  O   UNL     1       9.563  -0.123  23.988  0.00  0.00    -0.374 OA
ATOM     28  C   UNL     1       9.836   0.878  23.012  0.00  0.00    +0.194 C 
ENDBRANCH  27   2
ENDBRANCH  19  27
ENDBRANCH   8   4
ENDBRANCH   9   6
TORSDOF 6
ENDMDL
MODEL 2
REMARK VINA RESULT:      10.2      4.194      9.826
REMARK  Name = 26743432
REMARK  12 active torsions:
REMARK  status: ('A' for Active; 'I' for Inactive)
REMARK    1  A    between atoms: O_2  and  C_27
REMARK    2  A    between atoms: O_2  and  C_28
REMARK    3  A    between atoms: N_3  and  C_15
REMARK    4  A    between atoms: N_4  and  C_8
REMARK    5  A    between atoms: C_6  and  C_9
REMARK    6  A    between atoms: C_12  and  C_16
REMARK    7  A    between atoms: C_13  and  C_18
REMARK    8  A    between atoms: C_14  and  C_17
REMARK    9  A    between atoms: C_14  and  C_24
REMARK   10  A    between atoms: C_14  and  C_25
REMARK   11  A    between atoms: C_14  and  C_26
REMARK   12  A    between atoms: C_19  and  C_27
REMARK                            x       y       z     vdW  Elec       q    Type
REMARK                         _______ _______ _______ _____ _____    ______ ____
ROOT
ATOM      3  N   UNL     1       0.717  -0.313  23.761  0.00  0.00    -0.236 N 
ATOM      5  N   UNL     1       0.033  -1.462  23.889  0.00  0.00    -0.171 NA
ATOM      9  C   UNL     1      -1.365   0.342  23.832  0.00  0.00    +0.003 A 
ATOM     12  C   UNL     1      -0.074   0.797  23.721  0.00  0.00    +0.046 A 
ATOM     13  C   UNL     1      -1.238  -1.056  23.932  0.00  0.00    +0.064 A 
ATOM     16  C   UNL     1       0.460   2.168  23.587  0.00  0.00    +0.066 C 
ATOM     18  C   UNL     1      -2.313  -2.053  24.073  0.00  0.00    +0.068 C 
ENDROOT
BRANCH   3  15
ATOM     15  C   UNL     1       2.110  -0.342  23.681  0.00  0.00    +0.066 A 
ATOM     17  C   UNL     1       4.894  -0.397  23.528  0.00  0.00    -0.042 A 
ATOM     20  C   UNL     1       2.805  -1.498  24.035  0.00  0.00    +0.028 A 
ATOM     21  C   UNL     1       2.807   0.787  23.251  0.00  0.00    +0.028 A 
ATOM     22  C   UNL     1       4.197  -1.526  23.958  0.00  0.00    +0.006 A 
ATOM     23  C   UNL     1       4.199   0.759  23.174  0.00  0.00    +0.006 A 
BRANCH  17  14
ATOM     14  C   UNL     1       6.383  -0.427  23.445  0.00  0.00    -0.013 C 
ATOM     24  C   UNL     1       6.992  -1.375  24.523  0.00  0.00    +0.015 C 
ATOM     25  C   UNL     1       6.991   0.992  23.670  0.00  0.00    +0.015 C 
ATOM     26  C   UNL     1       6.970  -0.919  22.080  0.00  0.00    +0.015 C 
ENDBRANCH  17  14
ENDBRANCH   3  15
BRANCH   9   6
ATOM      6  C   UNL     1      -2.635   1.162  23.844  0.00  0.00    +0.047 C 
ATOM      7  C   UNL     1      -2.481   2.514  24.572  0.00  0.00    +0.039 C 
ATOM      8  C   UNL     1      -3.379   3.501  23.816  0.00  0.00    +0.097 C 
ATOM     10  C   UNL     1      -3.125   1.580  22.488  0.00  0.00    -0.021 C 
ATOM     11  C   UNL     1      -3.533   2.854  22.479  0.00  0.00    -0.009 C 
BRANCH   8   4
ATOM      1  O   UNL     1      -3.959   3.996  26.607  0.00  0.00    -0.273 OA
ATOM      4  N   UNL     1      -4.676   3.648  24.422  0.00  0.00    -0.307 N 
ATOM     19  C   UNL     1      -4.859   3.885  25.779  0.00  0.00    +0.239 C 
ATOM     29  H   UNL     1      -5.499   3.537  23.835  0.00  0.00    +0.149 HD
BRANCH  19  27
ATOM     27  C   UNL     1      -6.324   3.998  26.142  0.00  0.00    +0.255 C 
BRANCH  27   2
ATOM      2  O   UNL     1      -6.794   2.792  26.704  0.00  0.00    -0.374 OA
ATOM     28  C   UNL     1      -6.219   1.652  26.074  0.00  0.00    +0.194 C 
ENDBRANCH  27   2
ENDBRANCH  19  27
ENDBRANCH   8   4
ENDBRANCH   9   6
TORSDOF 6
ENDMDL
MODEL 3
REMARK VINA RESULT:      10.6      1.453      1.834
REMARK  Name = 26743432
REMARK  12 active torsions:
REMARK  status: ('A' for Active; 'I' for Inactive)
REMARK    1  A    between atoms: O_2  and  C_27
REMARK    2  A    between atoms: O_2  and  C_28
REMARK    3  A    between atoms: N_3  and  C_15
REMARK    4  A    between atoms: N_4  and  C_8
REMARK    5  A    between atoms: C_6  and  C_9
REMARK    6  A    between atoms: C_12  and  C_16
REMARK    7  A    between atoms: C_13  and  C_18
REMARK    8  A    between atoms: C_14  and  C_17
REMARK    9  A    between atoms: C_14  and  C_24
REMARK   10  A    between atoms: C_14  and  C_25
REMARK   11  A    between atoms: C_14  and  C_26
REMARK   12  A    between atoms: C_19  and  C_27
REMARK                            x       y       z     vdW  Elec       q    Type
REMARK                         _______ _______ _______ _____ _____    ______ ____
ROOT
ATOM      3  N   UNL     1      -1.188   0.119  24.722  0.00  0.00    -0.236 N 
ATOM      5  N   UNL     1      -0.994  -1.175  25.027  0.00  0.00    -0.171 NA
ATOM      9  C   UNL     1       0.917  -0.204  24.239  0.00  0.00    +0.003 A 
ATOM     12  C   UNL     1      -0.075   0.746  24.247  0.00  0.00    +0.046 A 
ATOM     13  C   UNL     1       0.294  -1.367  24.730  0.00  0.00    +0.064 A 
ATOM     16  C   UNL     1      -0.054   2.168  23.846  0.00  0.00    +0.066 C 
ATOM     18  C   UNL     1       0.894  -2.697  24.933  0.00  0.00    +0.068 C 
ENDROOT
BRANCH   3  15
ATOM     15  C   UNL     1      -2.447   0.692  24.906  0.00  0.00    +0.066 A 
ATOM     17  C   UNL     1      -4.963   1.837  25.280  0.00  0.00    -0.042 A 
ATOM     20  C   UNL     1      -2.571   2.074  25.042  0.00  0.00    +0.028 A 
ATOM     21  C   UNL     1      -3.581  -0.119  24.957  0.00  0.00    +0.028 A 
ATOM     22  C   UNL     1      -3.829   2.647  25.229  0.00  0.00    +0.006 A 
ATOM     23  C   UNL     1      -4.839   0.454  25.143  0.00  0.00    +0.006 A 
BRANCH  17  14
ATOM     14  C   UNL     1      -6.309   2.449  25.478  0.00  0.00    -0.013 C 
ATOM     24  C   UNL     1      -6.223   4.006  25.509  0.00  0.00    +0.015 C 
ATOM     25  C   UNL     1      -6.948   1.986  26.825  0.00  0.00    +0.015 C 
ATOM     26  C   UNL     1      -7.369   2.112  24.378  0.00  0.00    +0.015 C 
ENDBRANCH  17  14
ENDBRANCH   3  15
BRANCH   9   6
ATOM      6  C   UNL     1       2.354  -0.035  23.802  0.00  0.00    +0.047 C 
ATOM      7  C   UNL     1       2.632  -0.596  22.392  0.00  0.00    +0.039 C 
ATOM      8  C   UNL     1       3.686   0.331  21.773  0.00  0.00    +0.097 C 
ATOM     10  C   UNL     1       2.810   1.390  23.678  0.00  0.00    -0.021 C 
ATOM     11  C   UNL     1       3.538   1.583  22.573  0.00  0.00    -0.009 C 
BRANCH   8   4
ATOM      1  O   UNL     1       5.377   0.538  24.112  0.00  0.00    -0.273 OA
ATOM      4  N   UNL     1       5.026  -0.171  21.924  0.00  0.00    -0.307 N 
ATOM     19  C   UNL     1       5.766  -0.024  23.091  0.00  0.00    +0.239 C 
ATOM     29  H   UNL     1       5.466  -0.622  21.126  0.00  0.00    +0.149 HD
BRANCH  19  27
ATOM     27  C   UNL     1       7.139  -0.647  22.973  0.00  0.00    +0.255 C 
BRANCH  27   2
ATOM      2  O   UNL     1       8.145   0.337  23.082  0.00  0.00    -0.374 OA
ATOM     28  C   UNL     1       9.451  -0.227  23.017  0.00  0.00    +0.194 C 
ENDBRANCH  27   2
ENDBRANCH  19  27
ENDBRANCH   8   4
ENDBRANCH   9   6
TORSDOF 6
ENDMDL
MODEL 4
REMARK VINA RESULT:      10.8      4.127      9.744
REMARK  Name = 26743432
REMARK  12 active torsions:
REMARK  status: ('A' for Active; 'I' for Inactive)
REMARK    1  A    between atoms: O_2  and  C_27
REMARK    2  A    between atoms: O_2  and  C_28
REMARK    3  A    between atoms: N_3  and  C_15
REMARK    4  A    between atoms: N_4  and  C_8
REMARK    5  A    between atoms: C_6  and  C_9
REMARK    6  A    between atoms: C_12  and  C_16
REMARK    7  A    between atoms: C_13  and  C_18
REMARK    8  A    between atoms: C_14  and  C_17
REMARK    9  A    between atoms: C_14  and  C_24
REMARK   10  A    between atoms: C_14  and  C_25
REMARK   11  A    between atoms: C_14  and  C_26
REMARK   12  A    between atoms: C_19  and  C_27
REMARK                            x       y       z     vdW  Elec       q    Type
REMARK                         _______ _______ _______ _____ _____    ______ ____
ROOT
ATOM      3  N   UNL     1       0.315  -0.587  24.104  0.00  0.00    -0.236 N 
ATOM      5  N   UNL     1      -0.339  -1.734  23.853  0.00  0.00    -0.171 NA
ATOM      9  C   UNL     1      -1.759  -0.106  24.593  0.00  0.00    +0.003 A 
ATOM     12  C   UNL     1      -0.490   0.419  24.548  0.00  0.00    +0.046 A 
ATOM     13  C   UNL     1      -1.605  -1.434  24.153  0.00  0.00    +0.064 A 
ATOM     16  C   UNL     1       0.010   1.767  24.889  0.00  0.00    +0.066 C 
ATOM     18  C   UNL     1      -2.648  -2.463  24.005  0.00  0.00    +0.068 C 
ENDROOT
BRANCH   3  15
ATOM     15  C   UNL     1       1.693  -0.518  23.900  0.00  0.00    +0.066 A 
ATOM     17  C   UNL     1       4.450  -0.376  23.498  0.00  0.00    -0.042 A 
ATOM     20  C   UNL     1       2.502  -1.608  24.220  0.00  0.00    +0.028 A 
ATOM     21  C   UNL     1       2.263   0.644  23.379  0.00  0.00    +0.028 A 
ATOM     22  C   UNL     1       3.880  -1.538  24.018  0.00  0.00    +0.006 A 
ATOM     23  C   UNL     1       3.642   0.714  23.178  0.00  0.00    +0.006 A 
BRANCH  17  14
ATOM     14  C   UNL     1       5.924  -0.301  23.281  0.00  0.00    -0.013 C 
ATOM     24  C   UNL     1       6.681  -1.327  24.179  0.00  0.00    +0.015 C 
ATOM     25  C   UNL     1       6.474   1.119  23.623  0.00  0.00    +0.015 C 
ATOM     26  C   UNL     1       6.404  -0.592  21.821  0.00  0.00    +0.015 C 
ENDBRANCH  17  14
ENDBRANCH   3  15
BRANCH   9   6
ATOM      6  C   UNL     1      -3.031   0.590  25.018  0.00  0.00    +0.047 C 
ATOM      7  C   UNL     1      -3.745   1.317  23.859  0.00  0.00    +0.039 C 
ATOM      8  C   UNL     1      -5.247   1.186  24.145  0.00  0.00    +0.097 C 
ATOM     10  C   UNL     1      -4.104  -0.324  25.535  0.00  0.00    -0.021 C 
ATOM     11  C   UNL     1      -5.309   0.008  25.059  0.00  0.00    -0.009 C 
BRANCH   8   4
ATOM      1  O   UNL     1      -4.243   3.899  24.052  0.00  0.00    -0.273 OA
ATOM      4  N   UNL     1      -5.786   2.337  24.820  0.00  0.00    -0.307 N 
ATOM     19  C   UNL     1      -5.234   3.608  24.716  0.00  0.00    +0.239 C 
ATOM     29  H   UNL     1      -6.588   2.207  25.431  0.00  0.00    +0.149 HD
BRANCH  19  27
ATOM     27  C   UNL     1      -6.003   4.628  25.527  0.00  0.00    +0.255 C 
BRANCH  27   2
ATOM      2  O   UNL     1      -5.187   5.180  26.538  0.00  0.00    -0.374 OA
ATOM     28  C   UNL     1      -3.962   4.468  26.680  0.00  0.00    +0.194 C 
ENDBRANCH  27   2
ENDBRANCH  19  27
ENDBRANCH   8   4
ENDBRANCH   9   6
TORSDOF 6
ENDMDL
