MODEL 1
REMARK VINA RESULT:      -6.4      0.000      0.000
REMARK  Name = 75536571
REMARK  7 active torsions:
REMARK  status: ('A' for Active; 'I' for Inactive)
REMARK    1  A    between atoms: O_3  and  C_8
REMARK    2  A    between atoms: N_5  and  C_16
REMARK    3  A    between atoms: N_6  and  C_9
REMARK    4  A    between atoms: N_6  and  C_18
REMARK    5  A    between atoms: C_7  and  C_16
REMARK    6  A    between atoms: C_10  and  C_17
REMARK    7  A    between atoms: C_18  and  C_19
REMARK                            x       y       z     vdW  Elec       q    Type
REMARK                         _______ _______ _______ _____ _____    ______ ____
ROOT
ATOM      2  O   UNL     1       0.092   2.750  23.450  0.00  0.00    -0.371 OA
ATOM      7  C   UNL     1       0.271   1.723  24.439  0.00  0.00    +0.165 C 
ATOM      8  C   UNL     1      -0.734   2.023  25.543  0.00  0.00    +0.164 C 
ATOM      9  C   UNL     1      -0.738   3.541  25.530  0.00  0.00    +0.111 C 
ATOM     15  C   UNL     1      -0.654   3.829  24.040  0.00  0.00    +0.181 C 
ENDROOT
BRANCH   8   3
ATOM      3  O   UNL     1      -0.325   1.489  26.787  0.00  0.00    -0.388 OA
ATOM     25  H   UNL     1      -0.766   1.989  27.495  0.00  0.00    +0.210 HD
ENDBRANCH   8   3
BRANCH   9   6
ATOM      6  N   UNL     1      -1.913   4.126  26.155  0.00  0.00    -0.304 NA
ATOM     24  H   UNL     1      -1.636   4.966  26.662  0.00  0.00    +0.123 HD
BRANCH   6  18
ATOM     18  C   UNL     1      -2.915   4.482  25.156  0.00  0.00    +0.124 C 
BRANCH  18  19
ATOM      1  S   UNL     1      -4.425   2.547  23.846  0.00  0.00    -0.100 S 
ATOM     19  C   UNL     1      -4.099   3.552  25.194  0.00  0.00    +0.004 A 
ATOM     20  C   UNL     1      -5.018   3.375  26.205  0.00  0.00    +0.012 A 
ATOM     21  C   UNL     1      -6.001   2.401  25.870  0.00  0.00    +0.008 A 
ATOM     22  C   UNL     1      -5.797   1.871  24.615  0.00  0.00    +0.045 A 
ENDBRANCH  18  19
ENDBRANCH   6  18
ENDBRANCH   9   6
BRANCH   7  16
ATOM     16  C   UNL     1       0.075   0.359  23.803  0.00  0.00    +0.138 C 
BRANCH  16   5
ATOM      4  O   UNL     1      -0.094  -1.999  25.489  0.00  0.00    -0.276 OA
ATOM      5  N   UNL     1      -1.113  -0.280  24.291  0.00  0.00    -0.313 N 
ATOM     17  C   UNL     1      -1.099  -1.413  25.098  0.00  0.00    +0.216 C 
ATOM     23  H   UNL     1      -2.005   0.127  24.027  0.00  0.00    +0.149 HD
BRANCH  17  10
ATOM     10  C   UNL     1      -2.476  -1.860  25.485  0.00  0.00    +0.075 C 
ATOM     11  C   UNL     1      -3.486  -0.728  25.291  0.00  0.00    +0.013 C 
ATOM     12  C   UNL     1      -2.937  -3.007  24.578  0.00  0.00    +0.013 C 
ATOM     13  C   UNL     1      -4.151  -1.032  23.957  0.00  0.00    +0.001 C 
ATOM     14  C   UNL     1      -4.253  -2.546  23.962  0.00  0.00    +0.001 C 
ENDBRANCH  17  10
ENDBRANCH  16   5
ENDBRANCH   7  16
TORSDOF 7
ENDMDL
MODEL 2
REMARK VINA RESULT:      -5.4      3.325      6.581
REMARK  Name = 75536571
REMARK  7 active torsions:
REMARK  status: ('A' for Active; 'I' for Inactive)
REMARK    1  A    between atoms: O_3  and  C_8
REMARK    2  A    between atoms: N_5  and  C_16
REMARK    3  A    between atoms: N_6  and  C_9
REMARK    4  A    between atoms: N_6  and  C_18
REMARK    5  A    between atoms: C_7  and  C_16
REMARK    6  A    between atoms: C_10  and  C_17
REMARK    7  A    between atoms: C_18  and  C_19
REMARK                            x       y       z     vdW  Elec       q    Type
REMARK                         _______ _______ _______ _____ _____    ______ ____
ROOT
ATOM      2  O   UNL     1      -1.765  -1.897  24.193  0.00  0.00    -0.371 OA
ATOM      7  C   UNL     1      -1.949  -0.972  25.278  0.00  0.00    +0.165 C 
ATOM      8  C   UNL     1      -1.079   0.235  24.952  0.00  0.00    +0.164 C 
ATOM      9  C   UNL     1       0.102  -0.431  24.270  0.00  0.00    +0.111 C 
ATOM     15  C   UNL     1      -0.591  -1.512  23.457  0.00  0.00    +0.181 C 
ENDROOT
BRANCH   8   3
ATOM      3  O   UNL     1      -0.707   0.946  26.117  0.00  0.00    -0.388 OA
ATOM     25  H   UNL     1      -0.557   0.305  26.833  0.00  0.00    +0.210 HD
ENDBRANCH   8   3
BRANCH   9   6
ATOM      6  N   UNL     1       0.889   0.477  23.451  0.00  0.00    -0.304 NA
ATOM     24  H   UNL     1       1.439   1.081  24.061  0.00  0.00    +0.123 HD
BRANCH   6  18
ATOM     18  C   UNL     1       1.792  -0.259  22.573  0.00  0.00    +0.124 C 
BRANCH  18  19
ATOM      1  S   UNL     1       3.994  -1.460  23.776  0.00  0.00    -0.100 S 
ATOM     19  C   UNL     1       3.227  -0.133  23.012  0.00  0.00    +0.004 A 
ATOM     20  C   UNL     1       4.068   0.951  22.889  0.00  0.00    +0.012 A 
ATOM     21  C   UNL     1       5.361   0.688  23.428  0.00  0.00    +0.008 A 
ATOM     22  C   UNL     1       5.457  -0.587  23.943  0.00  0.00    +0.045 A 
ENDBRANCH  18  19
ENDBRANCH   6  18
ENDBRANCH   9   6
BRANCH   7  16
ATOM     16  C   UNL     1      -3.421  -0.632  25.418  0.00  0.00    +0.138 C 
BRANCH  16   5
ATOM      4  O   UNL     1      -5.887   0.859  25.766  0.00  0.00    -0.276 OA
ATOM      5  N   UNL     1      -3.685   0.720  25.018  0.00  0.00    -0.313 N 
ATOM     17  C   UNL     1      -4.904   1.358  25.226  0.00  0.00    +0.216 C 
ATOM     23  H   UNL     1      -2.934   1.228  24.561  0.00  0.00    +0.149 HD
BRANCH  17  10
ATOM     10  C   UNL     1      -4.904   2.773  24.734  0.00  0.00    +0.075 C 
ATOM     11  C   UNL     1      -4.744   3.750  25.900  0.00  0.00    +0.013 C 
ATOM     12  C   UNL     1      -3.708   3.014  23.805  0.00  0.00    +0.013 C 
ATOM     13  C   UNL     1      -3.269   4.124  25.887  0.00  0.00    +0.001 C 
ATOM     14  C   UNL     1      -2.945   4.189  24.406  0.00  0.00    +0.001 C 
ENDBRANCH  17  10
ENDBRANCH  16   5
ENDBRANCH   7  16
TORSDOF 7
ENDMDL
MODEL 3
REMARK VINA RESULT:      -5.3      2.447      4.701
REMARK  Name = 75536571
REMARK  7 active torsions:
REMARK  status: ('A' for Active; 'I' for Inactive)
REMARK    1  A    between atoms: O_3  and  C_8
REMARK    2  A    between atoms: N_5  and  C_16
REMARK    3  A    between atoms: N_6  and  C_9
REMARK    4  A    between atoms: N_6  and  C_18
REMARK    5  A    between atoms: C_7  and  C_16
REMARK    6  A    between atoms: C_10  and  C_17
REMARK    7  A    between atoms: C_18  and  C_19
REMARK                            x       y       z     vdW  Elec       q    Type
REMARK                         _______ _______ _______ _____ _____    ______ ____
ROOT
ATOM      2  O   UNL     1      -3.944   3.751  25.746  0.00  0.00    -0.371 OA
ATOM      7  C   UNL     1      -4.204   3.026  24.532  0.00  0.00    +0.165 C 
ATOM      8  C   UNL     1      -2.855   2.508  24.055  0.00  0.00    +0.164 C 
ATOM      9  C   UNL     1      -1.939   3.643  24.477  0.00  0.00    +0.111 C 
ATOM     15  C   UNL     1      -2.534   4.024  25.822  0.00  0.00    +0.181 C 
ENDROOT
BRANCH   8   3
ATOM      3  O   UNL     1      -2.840   2.285  22.658  0.00  0.00    -0.388 OA
ATOM     25  H   UNL     1      -2.125   1.658  22.455  0.00  0.00    +0.210 HD
ENDBRANCH   8   3
BRANCH   9   6
ATOM      6  N   UNL     1      -0.539   3.261  24.564  0.00  0.00    -0.304 NA
ATOM     24  H   UNL     1      -0.101   3.777  25.326  0.00  0.00    +0.123 HD
BRANCH   6  18
ATOM     18  C   UNL     1      -0.401   1.831  24.817  0.00  0.00    +0.124 C 
BRANCH  18  19
ATOM      1  S   UNL     1       0.234  -0.172  22.994  0.00  0.00    -0.100 S 
ATOM     19  C   UNL     1       0.641   1.203  23.930  0.00  0.00    +0.004 A 
ATOM     20  C   UNL     1       1.952   1.585  23.746  0.00  0.00    +0.012 A 
ATOM     21  C   UNL     1       2.631   0.738  22.822  0.00  0.00    +0.008 A 
ATOM     22  C   UNL     1       1.813  -0.259  22.337  0.00  0.00    +0.045 A 
ENDBRANCH  18  19
ENDBRANCH   6  18
ENDBRANCH   9   6
BRANCH   7  16
ATOM     16  C   UNL     1      -5.211   1.923  24.800  0.00  0.00    +0.138 C 
BRANCH  16   5
ATOM      4  O   UNL     1      -4.219  -0.461  23.474  0.00  0.00    -0.276 OA
ATOM      5  N   UNL     1      -4.589   0.783  25.408  0.00  0.00    -0.313 N 
ATOM     17  C   UNL     1      -4.141  -0.321  24.691  0.00  0.00    +0.216 C 
ATOM     23  H   UNL     1      -4.473   0.796  26.418  0.00  0.00    +0.149 HD
BRANCH  17  10
ATOM     10  C   UNL     1      -3.509  -1.359  25.568  0.00  0.00    +0.075 C 
ATOM     11  C   UNL     1      -3.426  -2.702  24.840  0.00  0.00    +0.013 C 
ATOM     12  C   UNL     1      -2.067  -0.964  25.905  0.00  0.00    +0.013 C 
ATOM     13  C   UNL     1      -1.994  -2.775  24.331  0.00  0.00    +0.001 C 
ATOM     14  C   UNL     1      -1.199  -2.133  25.454  0.00  0.00    +0.001 C 
ENDBRANCH  17  10
ENDBRANCH  16   5
ENDBRANCH   7  16
TORSDOF 7
ENDMDL
MODEL 4
REMARK VINA RESULT:      -5.2      2.033      4.715
REMARK  Name = 75536571
REMARK  7 active torsions:
REMARK  status: ('A' for Active; 'I' for Inactive)
REMARK    1  A    between atoms: O_3  and  C_8
REMARK    2  A    between atoms: N_5  and  C_16
REMARK    3  A    between atoms: N_6  and  C_9
REMARK    4  A    between atoms: N_6  and  C_18
REMARK    5  A    between atoms: C_7  and  C_16
REMARK    6  A    between atoms: C_10  and  C_17
REMARK    7  A    between atoms: C_18  and  C_19
REMARK                            x       y       z     vdW  Elec       q    Type
REMARK                         _______ _______ _______ _____ _____    ______ ____
ROOT
ATOM      2  O   UNL     1       0.243   3.767  26.086  0.00  0.00    -0.371 OA
ATOM      7  C   UNL     1      -0.464   3.989  24.854  0.00  0.00    +0.165 C 
ATOM      8  C   UNL     1      -0.940   2.619  24.391  0.00  0.00    +0.164 C 
ATOM      9  C   UNL     1       0.209   1.739  24.850  0.00  0.00    +0.111 C 
ATOM     15  C   UNL     1       0.549   2.365  26.192  0.00  0.00    +0.181 C 
ENDROOT
BRANCH   8   3
ATOM      3  O   UNL     1      -1.134   2.575  22.990  0.00  0.00    -0.388 OA
ATOM     25  H   UNL     1      -1.056   1.650  22.699  0.00  0.00    +0.210 HD
ENDBRANCH   8   3
BRANCH   9   6
ATOM      6  N   UNL     1      -0.140   0.332  24.954  0.00  0.00    -0.304 NA
ATOM     24  H   UNL     1       0.627  -0.168  25.403  0.00  0.00    +0.123 HD
BRANCH   6  18
ATOM     18  C   UNL     1      -1.353   0.150  25.744  0.00  0.00    +0.124 C 
BRANCH  18  19
ATOM      1  S   UNL     1      -1.413  -2.169  24.208  0.00  0.00    -0.100 S 
ATOM     19  C   UNL     1      -2.122  -1.073  25.317  0.00  0.00    +0.004 A 
ATOM     20  C   UNL     1      -3.384  -1.469  25.702  0.00  0.00    +0.012 A 
ATOM     21  C   UNL     1      -3.774  -2.690  25.079  0.00  0.00    +0.008 A 
ATOM     22  C   UNL     1      -2.795  -3.179  24.241  0.00  0.00    +0.045 A 
ENDBRANCH  18  19
ENDBRANCH   6  18
ENDBRANCH   9   6
BRANCH   7  16
ATOM     16  C   UNL     1      -1.597   4.972  25.083  0.00  0.00    +0.138 C 
BRANCH  16   5
ATOM      4  O   UNL     1      -3.634   4.073  26.946  0.00  0.00    -0.276 OA
ATOM      5  N   UNL     1      -2.868   4.388  24.768  0.00  0.00    -0.313 N 
ATOM     17  C   UNL     1      -3.787   3.984  25.730  0.00  0.00    +0.216 C 
ATOM     23  H   UNL     1      -3.098   4.269  23.786  0.00  0.00    +0.149 HD
BRANCH  17  10
ATOM     10  C   UNL     1      -5.043   3.429  25.130  0.00  0.00    +0.075 C 
ATOM     11  C   UNL     1      -4.715   2.470  23.985  0.00  0.00    +0.013 C 
ATOM     12  C   UNL     1      -5.812   2.608  26.172  0.00  0.00    +0.013 C 
ATOM     13  C   UNL     1      -4.824   1.083  24.602  0.00  0.00    +0.001 C 
ATOM     14  C   UNL     1      -5.995   1.225  25.557  0.00  0.00    +0.001 C 
ENDBRANCH  17  10
ENDBRANCH  16   5
ENDBRANCH   7  16
TORSDOF 7
ENDMDL
MODEL 5
REMARK VINA RESULT:      -4.6      2.855      5.202
REMARK  Name = 75536571
REMARK  7 active torsions:
REMARK  status: ('A' for Active; 'I' for Inactive)
REMARK    1  A    between atoms: O_3  and  C_8
REMARK    2  A    between atoms: N_5  and  C_16
REMARK    3  A    between atoms: N_6  and  C_9
REMARK    4  A    between atoms: N_6  and  C_18
REMARK    5  A    between atoms: C_7  and  C_16
REMARK    6  A    between atoms: C_10  and  C_17
REMARK    7  A    between atoms: C_18  and  C_19
REMARK                            x       y       z     vdW  Elec       q    Type
REMARK                         _______ _______ _______ _____ _____    ______ ____
ROOT
ATOM      2  O   UNL     1      -0.330   0.583  25.126  0.00  0.00    -0.371 OA
ATOM      7  C   UNL     1      -0.296  -0.575  24.276  0.00  0.00    +0.165 C 
ATOM      8  C   UNL     1      -1.709  -1.142  24.282  0.00  0.00    +0.164 C 
ATOM      9  C   UNL     1      -2.137  -0.843  25.707  0.00  0.00    +0.111 C 
ATOM     15  C   UNL     1      -1.526   0.531  25.923  0.00  0.00    +0.181 C 
ENDROOT
BRANCH   8   3
ATOM      3  O   UNL     1      -1.723  -2.525  23.987  0.00  0.00    -0.388 OA
ATOM     25  H   UNL     1      -2.620  -2.864  24.150  0.00  0.00    +0.210 HD
ENDBRANCH   8   3
BRANCH   9   6
ATOM      6  N   UNL     1      -3.579  -0.858  25.897  0.00  0.00    -0.304 NA
ATOM     24  H   UNL     1      -3.812  -0.285  26.708  0.00  0.00    +0.123 HD
BRANCH   6  18
ATOM     18  C   UNL     1      -4.267  -0.326  24.726  0.00  0.00    +0.124 C 
BRANCH  18  19
ATOM      1  S   UNL     1      -3.629   2.276  23.977  0.00  0.00    -0.100 S 
ATOM     19  C   UNL     1      -4.557   1.146  24.867  0.00  0.00    +0.004 A 
ATOM     20  C   UNL     1      -5.509   1.760  25.651  0.00  0.00    +0.012 A 
ATOM     21  C   UNL     1      -5.478   3.178  25.517  0.00  0.00    +0.008 A 
ATOM     22  C   UNL     1      -4.501   3.593  24.638  0.00  0.00    +0.045 A 
ENDBRANCH  18  19
ENDBRANCH   6  18
ENDBRANCH   9   6
BRANCH   7  16
ATOM     16  C   UNL     1       0.187  -0.181  22.892  0.00  0.00    +0.138 C 
BRANCH  16   5
ATOM      4  O   UNL     1       2.476   1.545  23.344  0.00  0.00    -0.276 OA
ATOM      5  N   UNL     1       1.572  -0.506  22.709  0.00  0.00    -0.313 N 
ATOM     17  C   UNL     1       2.609   0.389  22.951  0.00  0.00    +0.216 C 
ATOM     23  H   UNL     1       1.794  -1.443  22.386  0.00  0.00    +0.149 HD
BRANCH  17  10
ATOM     10  C   UNL     1       3.958  -0.213  22.703  0.00  0.00    +0.075 C 
ATOM     11  C   UNL     1       5.062   0.816  22.954  0.00  0.00    +0.013 C 
ATOM     12  C   UNL     1       4.215  -1.364  23.682  0.00  0.00    +0.013 C 
ATOM     13  C   UNL     1       5.574   0.498  24.351  0.00  0.00    +0.001 C 
ATOM     14  C   UNL     1       5.514  -1.018  24.400  0.00  0.00    +0.001 C 
ENDBRANCH  17  10
ENDBRANCH  16   5
ENDBRANCH   7  16
TORSDOF 7
ENDMDL
MODEL 6
REMARK VINA RESULT:      -4.4      2.250      4.779
REMARK  Name = 75536571
REMARK  7 active torsions:
REMARK  status: ('A' for Active; 'I' for Inactive)
REMARK    1  A    between atoms: O_3  and  C_8
REMARK    2  A    between atoms: N_5  and  C_16
REMARK    3  A    between atoms: N_6  and  C_9
REMARK    4  A    between atoms: N_6  and  C_18
REMARK    5  A    between atoms: C_7  and  C_16
REMARK    6  A    between atoms: C_10  and  C_17
REMARK    7  A    between atoms: C_18  and  C_19
REMARK                            x       y       z     vdW  Elec       q    Type
REMARK                         _______ _______ _______ _____ _____    ______ ____
ROOT
ATOM      2  O   UNL     1      -3.348   3.882  23.546  0.00  0.00    -0.371 OA
ATOM      7  C   UNL     1      -3.537   4.294  24.910  0.00  0.00    +0.165 C 
ATOM      8  C   UNL     1      -4.253   3.142  25.601  0.00  0.00    +0.164 C 
ATOM      9  C   UNL     1      -5.140   2.633  24.479  0.00  0.00    +0.111 C 
ATOM     15  C   UNL     1      -4.214   2.764  23.282  0.00  0.00    +0.181 C 
ENDROOT
BRANCH   8   3
ATOM      3  O   UNL     1      -4.992   3.579  26.725  0.00  0.00    -0.388 OA
ATOM     25  H   UNL     1      -5.835   3.093  26.746  0.00  0.00    +0.210 HD
ENDBRANCH   8   3
BRANCH   9   6
ATOM      6  N   UNL     1      -5.614   1.274  24.682  0.00  0.00    -0.304 NA
ATOM     24  H   UNL     1      -5.576   0.773  23.795  0.00  0.00    +0.123 HD
BRANCH   6  18
ATOM     18  C   UNL     1      -4.790   0.572  25.660  0.00  0.00    +0.124 C 
BRANCH  18  19
ATOM      1  S   UNL     1      -3.239  -1.697  26.091  0.00  0.00    -0.100 S 
ATOM     19  C   UNL     1      -4.253  -0.724  25.112  0.00  0.00    +0.004 A 
ATOM     20  C   UNL     1      -4.462  -1.281  23.869  0.00  0.00    +0.012 A 
ATOM     21  C   UNL     1      -3.782  -2.524  23.720  0.00  0.00    +0.008 A 
ATOM     22  C   UNL     1      -3.078  -2.869  24.853  0.00  0.00    +0.045 A 
ENDBRANCH  18  19
ENDBRANCH   6  18
ENDBRANCH   9   6
BRANCH   7  16
ATOM     16  C   UNL     1      -2.195   4.629  25.535  0.00  0.00    +0.138 C 
BRANCH  16   5
ATOM      4  O   UNL     1      -0.123   3.841  23.661  0.00  0.00    -0.276 OA
ATOM      5  N   UNL     1      -1.349   3.473  25.608  0.00  0.00    -0.313 N 
ATOM     17  C   UNL     1      -0.377   3.172  24.659  0.00  0.00    +0.216 C 
ATOM     23  H   UNL     1      -1.476   2.849  26.399  0.00  0.00    +0.149 HD
BRANCH  17  10
ATOM     10  C   UNL     1       0.380   1.922  24.987  0.00  0.00    +0.075 C 
ATOM     11  C   UNL     1      -0.580   0.798  25.383  0.00  0.00    +0.013 C 
ATOM     12  C   UNL     1       1.141   1.422  23.754  0.00  0.00    +0.013 C 
ATOM     13  C   UNL     1      -0.722  -0.046  24.125  0.00  0.00    +0.001 C 
ATOM     14  C   UNL     1       0.675  -0.012  23.531  0.00  0.00    +0.001 C 
ENDBRANCH  17  10
ENDBRANCH  16   5
ENDBRANCH   7  16
TORSDOF 7
ENDMDL
MODEL 7
REMARK VINA RESULT:      -4.0      1.830      4.510
REMARK  Name = 75536571
REMARK  7 active torsions:
REMARK  status: ('A' for Active; 'I' for Inactive)
REMARK    1  A    between atoms: O_3  and  C_8
REMARK    2  A    between atoms: N_5  and  C_16
REMARK    3  A    between atoms: N_6  and  C_9
REMARK    4  A    between atoms: N_6  and  C_18
REMARK    5  A    between atoms: C_7  and  C_16
REMARK    6  A    between atoms: C_10  and  C_17
REMARK    7  A    between atoms: C_18  and  C_19
REMARK                            x       y       z     vdW  Elec       q    Type
REMARK                         _______ _______ _______ _____ _____    ______ ____
ROOT
ATOM      2  O   UNL     1      -2.164  -2.773  24.616  0.00  0.00    -0.371 OA
ATOM      7  C   UNL     1      -1.460  -1.600  24.176  0.00  0.00    +0.165 C 
ATOM      8  C   UNL     1      -2.475  -0.466  24.202  0.00  0.00    +0.164 C 
ATOM      9  C   UNL     1      -3.742  -1.198  23.797  0.00  0.00    +0.111 C 
ATOM     15  C   UNL     1      -3.577  -2.515  24.537  0.00  0.00    +0.181 C 
ENDROOT
BRANCH   8   3
ATOM      3  O   UNL     1      -2.132   0.570  23.302  0.00  0.00    -0.388 OA
ATOM     25  H   UNL     1      -2.604   0.417  22.465  0.00  0.00    +0.210 HD
ENDBRANCH   8   3
BRANCH   9   6
ATOM      6  N   UNL     1      -4.962  -0.495  24.158  0.00  0.00    -0.304 NA
ATOM     24  H   UNL     1      -5.716  -1.173  24.264  0.00  0.00    +0.123 HD
BRANCH   6  18
ATOM     18  C   UNL     1      -4.797   0.232  25.412  0.00  0.00    +0.124 C 
BRANCH  18  19
ATOM      1  S   UNL     1      -5.937   2.579  26.378  0.00  0.00    -0.100 S 
ATOM     19  C   UNL     1      -5.003   1.713  25.233  0.00  0.00    +0.004 A 
ATOM     20  C   UNL     1      -4.530   2.528  24.227  0.00  0.00    +0.012 A 
ATOM     21  C   UNL     1      -4.939   3.882  24.401  0.00  0.00    +0.008 A 
ATOM     22  C   UNL     1      -5.709   4.049  25.531  0.00  0.00    +0.045 A 
ENDBRANCH  18  19
ENDBRANCH   6  18
ENDBRANCH   9   6
BRANCH   7  16
ATOM     16  C   UNL     1      -0.261  -1.353  25.075  0.00  0.00    +0.138 C 
BRANCH  16   5
ATOM      4  O   UNL     1       0.810   0.823  23.480  0.00  0.00    -0.276 OA
ATOM      5  N   UNL     1      -0.160   0.029  25.444  0.00  0.00    -0.313 N 
ATOM     17  C   UNL     1       0.370   1.009  24.612  0.00  0.00    +0.216 C 
ATOM     23  H   UNL     1      -0.498   0.294  26.365  0.00  0.00    +0.149 HD
BRANCH  17  10
ATOM     10  C   UNL     1       0.336   2.372  25.233  0.00  0.00    +0.075 C 
ATOM     11  C   UNL     1       0.028   3.437  24.180  0.00  0.00    +0.013 C 
ATOM     12  C   UNL     1      -0.789   2.456  26.270  0.00  0.00    +0.013 C 
ATOM     13  C   UNL     1      -1.459   3.719  24.342  0.00  0.00    +0.001 C 
ATOM     14  C   UNL     1      -1.662   3.631  25.844  0.00  0.00    +0.001 C 
ENDBRANCH  17  10
ENDBRANCH  16   5
ENDBRANCH   7  16
TORSDOF 7
ENDMDL
MODEL 8
REMARK VINA RESULT:      -3.7      2.993      6.262
REMARK  Name = 75536571
REMARK  7 active torsions:
REMARK  status: ('A' for Active; 'I' for Inactive)
REMARK    1  A    between atoms: O_3  and  C_8
REMARK    2  A    between atoms: N_5  and  C_16
REMARK    3  A    between atoms: N_6  and  C_9
REMARK    4  A    between atoms: N_6  and  C_18
REMARK    5  A    between atoms: C_7  and  C_16
REMARK    6  A    between atoms: C_10  and  C_17
REMARK    7  A    between atoms: C_18  and  C_19
REMARK                            x       y       z     vdW  Elec       q    Type
REMARK                         _______ _______ _______ _____ _____    ______ ____
ROOT
ATOM      2  O   UNL     1      -1.301   1.170  25.770  0.00  0.00    -0.371 OA
ATOM      7  C   UNL     1      -0.439   2.232  25.328  0.00  0.00    +0.165 C 
ATOM      8  C   UNL     1       0.265   1.711  24.082  0.00  0.00    +0.164 C 
ATOM      9  C   UNL     1       0.428   0.243  24.432  0.00  0.00    +0.111 C 
ATOM     15  C   UNL     1      -0.891  -0.049  25.126  0.00  0.00    +0.181 C 
ENDROOT
BRANCH   8   3
ATOM      3  O   UNL     1       1.502   2.361  23.865  0.00  0.00    -0.388 OA
ATOM     25  H   UNL     1       1.383   3.311  24.034  0.00  0.00    +0.210 HD
ENDBRANCH   8   3
BRANCH   9   6
ATOM      6  N   UNL     1       0.661  -0.609  23.276  0.00  0.00    -0.304 NA
ATOM     24  H   UNL     1      -0.212  -0.710  22.758  0.00  0.00    +0.123 HD
BRANCH   6  18
ATOM     18  C   UNL     1       1.671  -0.033  22.396  0.00  0.00    +0.124 C 
BRANCH  18  19
ATOM      1  S   UNL     1       4.249   0.972  22.686  0.00  0.00    -0.100 S 
ATOM     19  C   UNL     1       3.064  -0.239  22.932  0.00  0.00    +0.004 A 
ATOM     20  C   UNL     1       3.562  -1.317  23.629  0.00  0.00    +0.012 A 
ATOM     21  C   UNL     1       4.935  -1.146  23.968  0.00  0.00    +0.008 A 
ATOM     22  C   UNL     1       5.434   0.056  23.515  0.00  0.00    +0.045 A 
ENDBRANCH  18  19
ENDBRANCH   6  18
ENDBRANCH   9   6
BRANCH   7  16
ATOM     16  C   UNL     1      -1.258   3.485  25.075  0.00  0.00    +0.138 C 
BRANCH  16   5
ATOM      4  O   UNL     1      -2.737   2.504  22.778  0.00  0.00    -0.276 OA
ATOM      5  N   UNL     1      -2.659   3.189  25.003  0.00  0.00    -0.313 N 
ATOM     17  C   UNL     1      -3.287   2.720  23.854  0.00  0.00    +0.216 C 
ATOM     23  H   UNL     1      -3.211   3.332  25.844  0.00  0.00    +0.149 HD
BRANCH  17  10
ATOM     10  C   UNL     1      -4.750   2.469  24.059  0.00  0.00    +0.075 C 
ATOM     11  C   UNL     1      -5.011   0.985  24.323  0.00  0.00    +0.013 C 
ATOM     12  C   UNL     1      -5.250   3.219  25.299  0.00  0.00    +0.013 C 
ATOM     13  C   UNL     1      -5.148   0.882  25.834  0.00  0.00    +0.001 C 
ATOM     14  C   UNL     1      -5.877   2.162  26.200  0.00  0.00    +0.001 C 
ENDBRANCH  17  10
ENDBRANCH  16   5
ENDBRANCH   7  16
TORSDOF 7
ENDMDL
MODEL 9
REMARK VINA RESULT:      -3.6      2.193      4.703
REMARK  Name = 75536571
REMARK  7 active torsions:
REMARK  status: ('A' for Active; 'I' for Inactive)
REMARK    1  A    between atoms: O_3  and  C_8
REMARK    2  A    between atoms: N_5  and  C_16
REMARK    3  A    between atoms: N_6  and  C_9
REMARK    4  A    between atoms: N_6  and  C_18
REMARK    5  A    between atoms: C_7  and  C_16
REMARK    6  A    between atoms: C_10  and  C_17
REMARK    7  A    between atoms: C_18  and  C_19
REMARK                            x       y       z     vdW  Elec       q    Type
REMARK                         _______ _______ _______ _____ _____    ______ ____
ROOT
ATOM      2  O   UNL     1      -2.143  -2.528  24.257  0.00  0.00    -0.371 OA
ATOM      7  C   UNL     1      -2.262  -2.007  25.592  0.00  0.00    +0.165 C 
ATOM      8  C   UNL     1      -1.386  -0.762  25.636  0.00  0.00    +0.164 C 
ATOM      9  C   UNL     1      -0.248  -1.173  24.720  0.00  0.00    +0.111 C 
ATOM     15  C   UNL     1      -0.995  -1.927  23.633  0.00  0.00    +0.181 C 
ENDROOT
BRANCH   8   3
ATOM      3  O   UNL     1      -0.951  -0.471  26.950  0.00  0.00    -0.388 OA
ATOM     25  H   UNL     1      -0.950  -1.297  27.463  0.00  0.00    +0.210 HD
ENDBRANCH   8   3
BRANCH   9   6
ATOM      6  N   UNL     1       0.519  -0.050  24.205  0.00  0.00    -0.304 NA
ATOM     24  H   UNL     1       1.268  -0.405  23.610  0.00  0.00    +0.123 HD
BRANCH   6  18
ATOM     18  C   UNL     1      -0.325   0.846  23.422  0.00  0.00    +0.124 C 
BRANCH  18  19
ATOM      1  S   UNL     1       0.075   2.393  25.699  0.00  0.00    -0.100 S 
ATOM     19  C   UNL     1      -0.524   2.171  24.111  0.00  0.00    +0.004 A 
ATOM     20  C   UNL     1      -1.152   3.300  23.632  0.00  0.00    +0.012 A 
ATOM     21  C   UNL     1      -1.141   4.362  24.581  0.00  0.00    +0.008 A 
ATOM     22  C   UNL     1      -0.505   4.003  25.750  0.00  0.00    +0.045 A 
ENDBRANCH  18  19
ENDBRANCH   6  18
ENDBRANCH   9   6
BRANCH   7  16
ATOM     16  C   UNL     1      -3.721  -1.726  25.904  0.00  0.00    +0.138 C 
BRANCH  16   5
ATOM      4  O   UNL     1      -4.305  -0.593  23.296  0.00  0.00    -0.276 OA
ATOM      5  N   UNL     1      -4.068  -0.367  25.603  0.00  0.00    -0.313 N 
ATOM     17  C   UNL     1      -4.333   0.090  24.316  0.00  0.00    +0.216 C 
ATOM     23  H   UNL     1      -4.121   0.286  26.379  0.00  0.00    +0.149 HD
BRANCH  17  10
ATOM     10  C   UNL     1      -4.693   1.544  24.285  0.00  0.00    +0.075 C 
ATOM     11  C   UNL     1      -6.164   1.744  24.653  0.00  0.00    +0.013 C 
ATOM     12  C   UNL     1      -3.880   2.316  25.331  0.00  0.00    +0.013 C 
ATOM     13  C   UNL     1      -6.141   2.150  26.119  0.00  0.00    +0.001 C 
ATOM     14  C   UNL     1      -4.903   3.022  26.214  0.00  0.00    +0.001 C 
ENDBRANCH  17  10
ENDBRANCH  16   5
ENDBRANCH   7  16
TORSDOF 7
ENDMDL
MODEL 10
REMARK VINA RESULT:      -3.3      2.587      5.017
REMARK  Name = 75536571
REMARK  7 active torsions:
REMARK  status: ('A' for Active; 'I' for Inactive)
REMARK    1  A    between atoms: O_3  and  C_8
REMARK    2  A    between atoms: N_5  and  C_16
REMARK    3  A    between atoms: N_6  and  C_9
REMARK    4  A    between atoms: N_6  and  C_18
REMARK    5  A    between atoms: C_7  and  C_16
REMARK    6  A    between atoms: C_10  and  C_17
REMARK    7  A    between atoms: C_18  and  C_19
REMARK                            x       y       z     vdW  Elec       q    Type
REMARK                         _______ _______ _______ _____ _____    ______ ____
ROOT
ATOM      2  O   UNL     1      -2.820  -1.124  25.021  0.00  0.00    -0.371 OA
ATOM      7  C   UNL     1      -1.781  -0.514  24.237  0.00  0.00    +0.165 C 
ATOM      8  C   UNL     1      -2.230   0.920  23.988  0.00  0.00    +0.164 C 
ATOM      9  C   UNL     1      -3.732   0.738  23.863  0.00  0.00    +0.111 C 
ATOM     15  C   UNL     1      -3.999  -0.304  24.936  0.00  0.00    +0.181 C 
ENDROOT
BRANCH   8   3
ATOM      3  O   UNL     1      -1.646   1.459  22.818  0.00  0.00    -0.388 OA
ATOM     25  H   UNL     1      -0.732   1.134  22.754  0.00  0.00    +0.210 HD
ENDBRANCH   8   3
BRANCH   9   6
ATOM      6  N   UNL     1      -4.485   1.965  24.066  0.00  0.00    -0.304 NA
ATOM     24  H   UNL     1      -5.482   1.751  24.036  0.00  0.00    +0.123 HD
BRANCH   6  18
ATOM     18  C   UNL     1      -4.167   2.569  25.355  0.00  0.00    +0.124 C 
BRANCH  18  19
ATOM      1  S   UNL     1      -1.486   2.991  25.966  0.00  0.00    -0.100 S 
ATOM     19  C   UNL     1      -2.971   3.480  25.266  0.00  0.00    +0.004 A 
ATOM     20  C   UNL     1      -2.881   4.722  24.676  0.00  0.00    +0.012 A 
ATOM     21  C   UNL     1      -1.576   5.278  24.798  0.00  0.00    +0.008 A 
ATOM     22  C   UNL     1      -0.718   4.442  25.478  0.00  0.00    +0.045 A 
ENDBRANCH  18  19
ENDBRANCH   6  18
ENDBRANCH   9   6
BRANCH   7  16
ATOM     16  C   UNL     1      -0.458  -0.610  24.975  0.00  0.00    +0.138 C 
BRANCH  16   5
ATOM      4  O   UNL     1       1.225   1.545  24.002  0.00  0.00    -0.276 OA
ATOM      5  N   UNL     1       0.644  -0.710  24.063  0.00  0.00    -0.313 N 
ATOM     17  C   UNL     1       1.399   0.382  23.648  0.00  0.00    +0.216 C 
ATOM     23  H   UNL     1       0.875  -1.633  23.708  0.00  0.00    +0.149 HD
BRANCH  17  10
ATOM     10  C   UNL     1       2.504  -0.004  22.713  0.00  0.00    +0.075 C 
ATOM     11  C   UNL     1       3.481   1.157  22.524  0.00  0.00    +0.013 C 
ATOM     12  C   UNL     1       3.320  -1.160  23.302  0.00  0.00    +0.013 C 
ATOM     13  C   UNL     1       4.642   0.838  23.454  0.00  0.00    +0.001 C 
ATOM     14  C   UNL     1       4.763  -0.671  23.343  0.00  0.00    +0.001 C 
ENDBRANCH  17  10
ENDBRANCH  16   5
ENDBRANCH   7  16
TORSDOF 7
ENDMDL
