MODEL 1
REMARK VINA RESULT:      -3.8      0.000      0.000
REMARK  Name = 75537066
REMARK  3 active torsions:
REMARK  status: ('A' for Active; 'I' for Inactive)
REMARK    1  A    between atoms: N_3  and  C_12
REMARK    2  A    between atoms: N_4  and  C_13
REMARK    3  A    between atoms: C_12  and  C_14
REMARK                            x       y       z     vdW  Elec       q    Type
REMARK                         _______ _______ _______ _____ _____    ______ ____
ROOT
ATOM      1  O   UNL     1      -0.533  -1.671  23.725  0.00  0.00    -0.252 OA
ATOM      2  N   UNL     1      -1.021   0.436  24.642  0.00  0.00    -0.278 N 
ATOM      3  N   UNL     1       0.763   0.251  23.289  0.00  0.00    -0.279 N 
ATOM      4  N   UNL     1      -2.546   2.656  25.455  0.00  0.00    -0.302 NA
ATOM      6  C   UNL     1      -0.394   1.740  24.689  0.00  0.00    +0.109 C 
ATOM      7  C   UNL     1       0.672   1.668  23.596  0.00  0.00    +0.133 C 
ATOM      8  C   UNL     1      -1.437   2.840  24.497  0.00  0.00    +0.108 C 
ATOM      9  C   UNL     1      -2.209   0.193  25.432  0.00  0.00    +0.125 C 
ATOM     10  C   UNL     1      -3.200   1.347  25.257  0.00  0.00    +0.103 C 
ATOM     11  C   UNL     1      -0.293  -0.480  23.871  0.00  0.00    +0.305 C 
ATOM     13  C   UNL     1      -3.520   3.738  25.320  0.00  0.00    +0.105 C 
ENDROOT
BRANCH   3  12
ATOM     12  C   UNL     1       1.746  -0.272  22.367  0.00  0.00    +0.146 C 
BRANCH  12  14
ATOM      5  N   UNL     1       4.895  -1.375  24.148  0.00  0.00    -0.263 NA
ATOM     14  C   UNL     1       3.131  -0.239  22.946  0.00  0.00    -0.012 A 
ATOM     15  C   UNL     1       3.927   0.896  22.837  0.00  0.00    +0.008 A 
ATOM     16  C   UNL     1       3.658  -1.339  23.604  0.00  0.00    +0.115 A 
ATOM     17  C   UNL     1       5.206   0.897  23.383  0.00  0.00    +0.020 A 
ATOM     18  C   UNL     1       5.638  -0.253  24.022  0.00  0.00    +0.111 A 
ENDBRANCH  12  14
ENDBRANCH   3  12
TORSDOF 2
ENDMDL
MODEL 2
REMARK VINA RESULT:      -3.0     15.966     17.493
REMARK  Name = 75537066
REMARK  3 active torsions:
REMARK  status: ('A' for Active; 'I' for Inactive)
REMARK    1  A    between atoms: N_3  and  C_12
REMARK    2  A    between atoms: N_4  and  C_13
REMARK    3  A    between atoms: C_12  and  C_14
REMARK                            x       y       z     vdW  Elec       q    Type
REMARK                         _______ _______ _______ _____ _____    ______ ____
ROOT
ATOM      1  O   UNL     1      17.213  -2.939  29.334  0.00  0.00    -0.252 OA
ATOM      2  N   UNL     1      17.282  -3.344  27.021  0.00  0.00    -0.278 N 
ATOM      3  N   UNL     1      17.180  -5.108  28.408  0.00  0.00    -0.279 N 
ATOM      4  N   UNL     1      16.682  -3.062  24.287  0.00  0.00    -0.302 NA
ATOM      6  C   UNL     1      17.403  -4.497  26.153  0.00  0.00    +0.109 C 
ATOM      7  C   UNL     1      17.103  -5.678  27.074  0.00  0.00    +0.133 C 
ATOM      8  C   UNL     1      16.464  -4.362  24.955  0.00  0.00    +0.108 C 
ATOM      9  C   UNL     1      17.331  -2.017  26.447  0.00  0.00    +0.125 C 
ATOM     10  C   UNL     1      16.424  -1.944  25.216  0.00  0.00    +0.103 C 
ATOM     11  C   UNL     1      17.228  -3.699  28.376  0.00  0.00    +0.305 C 
ATOM     13  C   UNL     1      15.831  -2.949  23.104  0.00  0.00    +0.105 C 
ENDROOT
BRANCH   3  12
ATOM     12  C   UNL     1      17.064  -5.923  29.597  0.00  0.00    +0.146 C 
BRANCH  12  14
ATOM      5  N   UNL     1      14.406  -4.794  32.040  0.00  0.00    -0.263 NA
ATOM     14  C   UNL     1      15.726  -5.761  30.260  0.00  0.00    -0.012 A 
ATOM     15  C   UNL     1      14.594  -6.389  29.752  0.00  0.00    +0.008 A 
ATOM     16  C   UNL     1      15.580  -4.981  31.395  0.00  0.00    +0.115 A 
ATOM     17  C   UNL     1      13.369  -6.222  30.387  0.00  0.00    +0.020 A 
ATOM     18  C   UNL     1      13.329  -5.421  31.517  0.00  0.00    +0.111 A 
ENDBRANCH  12  14
ENDBRANCH   3  12
TORSDOF 2
ENDMDL
MODEL 3
REMARK VINA RESULT:      -2.7     15.911     18.581
REMARK  Name = 75537066
REMARK  3 active torsions:
REMARK  status: ('A' for Active; 'I' for Inactive)
REMARK    1  A    between atoms: N_3  and  C_12
REMARK    2  A    between atoms: N_4  and  C_13
REMARK    3  A    between atoms: C_12  and  C_14
REMARK                            x       y       z     vdW  Elec       q    Type
REMARK                         _______ _______ _______ _____ _____    ______ ____
ROOT
ATOM      1  O   UNL     1      16.842  -5.451  28.470  0.00  0.00    -0.252 OA
ATOM      2  N   UNL     1      16.967  -7.650  27.656  0.00  0.00    -0.278 N 
ATOM      3  N   UNL     1      16.305  -7.338  29.779  0.00  0.00    -0.279 N 
ATOM      4  N   UNL     1      16.659  -9.816  25.887  0.00  0.00    -0.302 NA
ATOM      6  C   UNL     1      16.842  -8.987  28.197  0.00  0.00    +0.109 C 
ATOM      7  C   UNL     1      16.176  -8.768  29.555  0.00  0.00    +0.133 C 
ATOM      8  C   UNL     1      16.059  -9.880  27.235  0.00  0.00    +0.108 C 
ATOM      9  C   UNL     1      17.405  -7.479  26.287  0.00  0.00    +0.125 C 
ATOM     10  C   UNL     1      16.640  -8.433  25.368  0.00  0.00    +0.103 C 
ATOM     11  C   UNL     1      16.724  -6.660  28.617  0.00  0.00    +0.305 C 
ATOM     13  C   UNL     1      15.955 -10.714  24.972  0.00  0.00    +0.105 C 
ENDROOT
BRANCH   3  12
ATOM     12  C   UNL     1      15.893  -6.717  31.019  0.00  0.00    +0.146 C 
BRANCH  12  14
ATOM      5  N   UNL     1      12.645  -7.742  32.663  0.00  0.00    -0.263 NA
ATOM     14  C   UNL     1      14.421  -6.881  31.267  0.00  0.00    -0.012 A 
ATOM     15  C   UNL     1      13.483  -6.355  30.386  0.00  0.00    +0.008 A 
ATOM     16  C   UNL     1      13.955  -7.559  32.381  0.00  0.00    +0.115 A 
ATOM     17  C   UNL     1      12.126  -6.522  30.641  0.00  0.00    +0.020 A 
ATOM     18  C   UNL     1      11.764  -7.218  31.783  0.00  0.00    +0.111 A 
ENDBRANCH  12  14
ENDBRANCH   3  12
TORSDOF 2
ENDMDL
MODEL 4
REMARK VINA RESULT:      -2.7      2.049      2.880
REMARK  Name = 75537066
REMARK  3 active torsions:
REMARK  status: ('A' for Active; 'I' for Inactive)
REMARK    1  A    between atoms: N_3  and  C_12
REMARK    2  A    between atoms: N_4  and  C_13
REMARK    3  A    between atoms: C_12  and  C_14
REMARK                            x       y       z     vdW  Elec       q    Type
REMARK                         _______ _______ _______ _____ _____    ______ ____
ROOT
ATOM      1  O   UNL     1       0.473   2.226  25.830  0.00  0.00    -0.252 OA
ATOM      2  N   UNL     1      -1.649   2.822  25.019  0.00  0.00    -0.278 N 
ATOM      3  N   UNL     1      -0.775   0.858  24.368  0.00  0.00    -0.279 N 
ATOM      4  N   UNL     1      -4.289   3.793  25.039  0.00  0.00    -0.302 NA
ATOM      6  C   UNL     1      -2.595   2.307  24.051  0.00  0.00    +0.109 C 
ATOM      7  C   UNL     1      -2.108   0.881  23.793  0.00  0.00    +0.133 C 
ATOM      8  C   UNL     1      -4.020   2.411  24.591  0.00  0.00    +0.108 C 
ATOM      9  C   UNL     1      -1.897   4.108  25.636  0.00  0.00    +0.125 C 
ATOM     10  C   UNL     1      -3.350   4.192  26.107  0.00  0.00    +0.103 C 
ATOM     11  C   UNL     1      -0.522   2.001  25.155  0.00  0.00    +0.305 C 
ATOM     13  C   UNL     1      -5.671   3.918  25.502  0.00  0.00    +0.105 C 
ENDROOT
BRANCH   3  12
ATOM     12  C   UNL     1       0.094  -0.292  24.244  0.00  0.00    +0.146 C 
BRANCH  12  14
ATOM      5  N   UNL     1       2.191  -0.355  21.097  0.00  0.00    -0.263 NA
ATOM     14  C   UNL     1       1.227  -0.039  23.293  0.00  0.00    -0.012 A 
ATOM     15  C   UNL     1       2.333   0.710  23.678  0.00  0.00    +0.008 A 
ATOM     16  C   UNL     1       1.205  -0.544  22.002  0.00  0.00    +0.115 A 
ATOM     17  C   UNL     1       3.369   0.927  22.775  0.00  0.00    +0.020 A 
ATOM     18  C   UNL     1       3.250   0.378  21.509  0.00  0.00    +0.111 A 
ENDBRANCH  12  14
ENDBRANCH   3  12
TORSDOF 2
ENDMDL
MODEL 5
REMARK VINA RESULT:      -2.7      4.829      6.296
REMARK  Name = 75537066
REMARK  3 active torsions:
REMARK  status: ('A' for Active; 'I' for Inactive)
REMARK    1  A    between atoms: N_3  and  C_12
REMARK    2  A    between atoms: N_4  and  C_13
REMARK    3  A    between atoms: C_12  and  C_14
REMARK                            x       y       z     vdW  Elec       q    Type
REMARK                         _______ _______ _______ _____ _____    ______ ____
ROOT
ATOM      1  O   UNL     1      -5.461   3.288  25.782  0.00  0.00    -0.252 OA
ATOM      2  N   UNL     1      -3.134   3.536  25.576  0.00  0.00    -0.278 N 
ATOM      3  N   UNL     1      -4.047   1.561  25.019  0.00  0.00    -0.279 N 
ATOM      4  N   UNL     1      -0.668   4.722  24.924  0.00  0.00    -0.302 NA
ATOM      6  C   UNL     1      -2.002   2.684  25.279  0.00  0.00    +0.109 C 
ATOM      7  C   UNL     1      -2.640   1.429  24.685  0.00  0.00    +0.133 C 
ATOM      8  C   UNL     1      -1.021   3.405  24.355  0.00  0.00    +0.108 C 
ATOM      9  C   UNL     1      -2.901   4.901  26.000  0.00  0.00    +0.125 C 
ATOM     10  C   UNL     1      -1.870   5.565  25.085  0.00  0.00    +0.103 C 
ATOM     11  C   UNL     1      -4.354   2.851  25.499  0.00  0.00    +0.305 C 
ATOM     13  C   UNL     1       0.317   5.394  24.077  0.00  0.00    +0.105 C 
ENDROOT
BRANCH   3  12
ATOM     12  C   UNL     1      -5.005   0.517  24.730  0.00  0.00    +0.146 C 
BRANCH  12  14
ATOM      5  N   UNL     1      -3.056  -2.505  25.902  0.00  0.00    -0.263 NA
ATOM     14  C   UNL     1      -4.370  -0.844  24.735  0.00  0.00    -0.012 A 
ATOM     15  C   UNL     1      -4.486  -1.693  23.641  0.00  0.00    +0.008 A 
ATOM     16  C   UNL     1      -3.652  -1.293  25.832  0.00  0.00    +0.115 A 
ATOM     17  C   UNL     1      -3.887  -2.948  23.675  0.00  0.00    +0.020 A 
ATOM     18  C   UNL     1      -3.190  -3.302  24.818  0.00  0.00    +0.111 A 
ENDBRANCH  12  14
ENDBRANCH   3  12
TORSDOF 2
ENDMDL
MODEL 6
REMARK VINA RESULT:      -2.5      3.651      5.124
REMARK  Name = 75537066
REMARK  3 active torsions:
REMARK  status: ('A' for Active; 'I' for Inactive)
REMARK    1  A    between atoms: N_3  and  C_12
REMARK    2  A    between atoms: N_4  and  C_13
REMARK    3  A    between atoms: C_12  and  C_14
REMARK                            x       y       z     vdW  Elec       q    Type
REMARK                         _______ _______ _______ _____ _____    ______ ____
ROOT
ATOM      1  O   UNL     1      -0.009   2.408  26.135  0.00  0.00    -0.252 OA
ATOM      2  N   UNL     1      -2.006   3.242  25.222  0.00  0.00    -0.278 N 
ATOM      3  N   UNL     1      -1.347   1.177  24.632  0.00  0.00    -0.279 N 
ATOM      4  N   UNL     1      -4.507   4.524  25.111  0.00  0.00    -0.302 NA
ATOM      6  C   UNL     1      -2.963   2.829  24.217  0.00  0.00    +0.109 C 
ATOM      7  C   UNL     1      -2.642   1.352  23.997  0.00  0.00    +0.133 C 
ATOM      8  C   UNL     1      -4.388   3.113  24.690  0.00  0.00    +0.108 C 
ATOM      9  C   UNL     1      -2.123   4.558  25.813  0.00  0.00    +0.125 C 
ATOM     10  C   UNL     1      -3.575   4.824  26.216  0.00  0.00    +0.103 C 
ATOM     11  C   UNL     1      -0.993   2.293  25.418  0.00  0.00    +0.305 C 
ATOM     13  C   UNL     1      -5.883   4.822  25.508  0.00  0.00    +0.105 C 
ENDROOT
BRANCH   3  12
ATOM     12  C   UNL     1      -0.620  -0.071  24.560  0.00  0.00    +0.146 C 
BRANCH  12  14
ATOM      5  N   UNL     1      -2.094  -3.471  23.804  0.00  0.00    -0.263 NA
ATOM     14  C   UNL     1      -1.537  -1.258  24.606  0.00  0.00    -0.012 A 
ATOM     15  C   UNL     1      -2.643  -1.278  25.448  0.00  0.00    +0.008 A 
ATOM     16  C   UNL     1      -1.308  -2.371  23.812  0.00  0.00    +0.115 A 
ATOM     17  C   UNL     1      -3.475  -2.392  25.470  0.00  0.00    +0.020 A 
ATOM     18  C   UNL     1      -3.159  -3.452  24.636  0.00  0.00    +0.111 A 
ENDBRANCH  12  14
ENDBRANCH   3  12
TORSDOF 2
ENDMDL
MODEL 7
REMARK VINA RESULT:      -2.0     15.891     17.585
REMARK  Name = 75537066
REMARK  3 active torsions:
REMARK  status: ('A' for Active; 'I' for Inactive)
REMARK    1  A    between atoms: N_3  and  C_12
REMARK    2  A    between atoms: N_4  and  C_13
REMARK    3  A    between atoms: C_12  and  C_14
REMARK                            x       y       z     vdW  Elec       q    Type
REMARK                         _______ _______ _______ _____ _____    ______ ____
ROOT
ATOM      1  O   UNL     1      17.401  -2.128  28.425  0.00  0.00    -0.252 OA
ATOM      2  N   UNL     1      17.299  -2.742  26.160  0.00  0.00    -0.278 N 
ATOM      3  N   UNL     1      17.389  -4.373  27.702  0.00  0.00    -0.279 N 
ATOM      4  N   UNL     1      16.466  -2.735  23.473  0.00  0.00    -0.302 NA
ATOM      6  C   UNL     1      17.399  -3.965  25.390  0.00  0.00    +0.109 C 
ATOM      7  C   UNL     1      17.228  -5.066  26.435  0.00  0.00    +0.133 C 
ATOM      8  C   UNL     1      16.361  -3.975  24.270  0.00  0.00    +0.108 C 
ATOM      9  C   UNL     1      17.243  -1.472  25.468  0.00  0.00    +0.125 C 
ATOM     10  C   UNL     1      16.236  -1.546  24.318  0.00  0.00    +0.103 C 
ATOM     11  C   UNL     1      17.371  -2.973  27.540  0.00  0.00    +0.305 C 
ATOM     13  C   UNL     1      15.517  -2.762  22.361  0.00  0.00    +0.105 C 
ENDROOT
BRANCH   3  12
ATOM     12  C   UNL     1      17.405  -5.079  28.964  0.00  0.00    +0.146 C 
BRANCH  12  14
ATOM      5  N   UNL     1      16.346  -8.639  28.253  0.00  0.00    -0.263 NA
ATOM     14  C   UNL     1      16.571  -6.326  28.922  0.00  0.00    -0.012 A 
ATOM     15  C   UNL     1      15.298  -6.356  29.479  0.00  0.00    +0.008 A 
ATOM     16  C   UNL     1      17.045  -7.484  28.326  0.00  0.00    +0.115 A 
ATOM     17  C   UNL     1      14.548  -7.526  29.425  0.00  0.00    +0.020 A 
ATOM     18  C   UNL     1      15.113  -8.629  28.806  0.00  0.00    +0.111 A 
ENDBRANCH  12  14
ENDBRANCH   3  12
TORSDOF 2
ENDMDL
MODEL 8
REMARK VINA RESULT:      -1.9     15.992     18.455
REMARK  Name = 75537066
REMARK  3 active torsions:
REMARK  status: ('A' for Active; 'I' for Inactive)
REMARK    1  A    between atoms: N_3  and  C_12
REMARK    2  A    between atoms: N_4  and  C_13
REMARK    3  A    between atoms: C_12  and  C_14
REMARK                            x       y       z     vdW  Elec       q    Type
REMARK                         _______ _______ _______ _____ _____    ______ ____
ROOT
ATOM      1  O   UNL     1      16.313  -4.261  30.244  0.00  0.00    -0.252 OA
ATOM      2  N   UNL     1      17.083  -5.847  28.692  0.00  0.00    -0.278 N 
ATOM      3  N   UNL     1      16.422  -6.571  30.713  0.00  0.00    -0.279 N 
ATOM      4  N   UNL     1      17.402  -7.171  26.231  0.00  0.00    -0.302 NA
ATOM      6  C   UNL     1      17.391  -7.262  28.690  0.00  0.00    +0.109 C 
ATOM      7  C   UNL     1      16.731  -7.778  29.968  0.00  0.00    +0.133 C 
ATOM      8  C   UNL     1      16.892  -7.914  27.401  0.00  0.00    +0.108 C 
ATOM      9  C   UNL     1      17.405  -5.050  27.527  0.00  0.00    +0.125 C 
ATOM     10  C   UNL     1      16.943  -5.767  26.257  0.00  0.00    +0.103 C 
ATOM     11  C   UNL     1      16.577  -5.412  29.924  0.00  0.00    +0.305 C 
ATOM     13  C   UNL     1      16.980  -7.822  24.991  0.00  0.00    +0.105 C 
ENDROOT
BRANCH   3  12
ATOM     12  C   UNL     1      15.877  -6.615  32.052  0.00  0.00    +0.146 C 
BRANCH  12  14
ATOM      5  N   UNL     1      12.201  -6.197  31.266  0.00  0.00    -0.263 NA
ATOM     14  C   UNL     1      14.394  -6.851  32.047  0.00  0.00    -0.012 A 
ATOM     15  C   UNL     1      13.831  -7.891  32.778  0.00  0.00    +0.008 A 
ATOM     16  C   UNL     1      13.543  -6.040  31.314  0.00  0.00    +0.115 A 
ATOM     17  C   UNL     1      12.455  -8.085  32.755  0.00  0.00    +0.020 A 
ATOM     18  C   UNL     1      11.692  -7.219  31.990  0.00  0.00    +0.111 A 
ENDBRANCH  12  14
ENDBRANCH   3  12
TORSDOF 2
ENDMDL
MODEL 9
REMARK VINA RESULT:      -1.8      3.171      5.563
REMARK  Name = 75537066
REMARK  3 active torsions:
REMARK  status: ('A' for Active; 'I' for Inactive)
REMARK    1  A    between atoms: N_3  and  C_12
REMARK    2  A    between atoms: N_4  and  C_13
REMARK    3  A    between atoms: C_12  and  C_14
REMARK                            x       y       z     vdW  Elec       q    Type
REMARK                         _______ _______ _______ _____ _____    ______ ____
ROOT
ATOM      1  O   UNL     1       0.855  -0.768  24.192  0.00  0.00    -0.252 OA
ATOM      2  N   UNL     1      -1.404  -1.272  24.596  0.00  0.00    -0.278 N 
ATOM      3  N   UNL     1      -0.768   0.881  24.652  0.00  0.00    -0.279 N 
ATOM      4  N   UNL     1      -3.922  -2.484  24.270  0.00  0.00    -0.302 NA
ATOM      6  C   UNL     1      -2.589  -0.555  25.018  0.00  0.00    +0.109 C 
ATOM      7  C   UNL     1      -2.209   0.913  24.830  0.00  0.00    +0.133 C 
ATOM      8  C   UNL     1      -3.804  -1.012  24.212  0.00  0.00    +0.108 C 
ATOM      9  C   UNL     1      -1.455  -2.713  24.473  0.00  0.00    +0.125 C 
ATOM     10  C   UNL     1      -2.716  -3.130  23.713  0.00  0.00    +0.103 C 
ATOM     11  C   UNL     1      -0.293  -0.431  24.451  0.00  0.00    +0.305 C 
ATOM     13  C   UNL     1      -5.116  -2.927  23.552  0.00  0.00    +0.105 C 
ENDROOT
BRANCH   3  12
ATOM     12  C   UNL     1       0.018   2.091  24.548  0.00  0.00    +0.146 C 
BRANCH  12  14
ATOM      5  N   UNL     1      -2.660   4.284  26.072  0.00  0.00    -0.263 NA
ATOM     14  C   UNL     1      -0.781   3.312  24.900  0.00  0.00    -0.012 A 
ATOM     15  C   UNL     1      -0.424   4.566  24.417  0.00  0.00    +0.008 A 
ATOM     16  C   UNL     1      -1.897   3.226  25.717  0.00  0.00    +0.115 A 
ATOM     17  C   UNL     1      -1.184   5.679  24.760  0.00  0.00    +0.020 A 
ATOM     18  C   UNL     1      -2.281   5.486  25.582  0.00  0.00    +0.111 A 
ENDBRANCH  12  14
ENDBRANCH   3  12
TORSDOF 2
ENDMDL
MODEL 10
REMARK VINA RESULT:      -1.6      1.307      6.639
REMARK  Name = 75537066
REMARK  3 active torsions:
REMARK  status: ('A' for Active; 'I' for Inactive)
REMARK    1  A    between atoms: N_3  and  C_12
REMARK    2  A    between atoms: N_4  and  C_13
REMARK    3  A    between atoms: C_12  and  C_14
REMARK                            x       y       z     vdW  Elec       q    Type
REMARK                         _______ _______ _______ _____ _____    ______ ____
ROOT
ATOM      1  O   UNL     1      -1.304  -1.607  23.717  0.00  0.00    -0.252 OA
ATOM      2  N   UNL     1       0.412  -0.086  23.209  0.00  0.00    -0.278 N 
ATOM      3  N   UNL     1      -1.052   0.461  24.822  0.00  0.00    -0.279 N 
ATOM      4  N   UNL     1       2.995   0.855  22.613  0.00  0.00    -0.302 NA
ATOM      6  C   UNL     1       0.770   1.267  23.581  0.00  0.00    +0.109 C 
ATOM      7  C   UNL     1      -0.076   1.537  24.825  0.00  0.00    +0.133 C 
ATOM      8  C   UNL     1       2.279   1.379  23.794  0.00  0.00    +0.108 C 
ATOM      9  C   UNL     1       1.153  -0.751  22.159  0.00  0.00    +0.125 C 
ATOM     10  C   UNL     1       2.656  -0.563  22.378  0.00  0.00    +0.103 C 
ATOM     11  C   UNL     1      -0.724  -0.544  23.890  0.00  0.00    +0.305 C 
ATOM     13  C   UNL     1       4.439   1.012  22.782  0.00  0.00    +0.105 C 
ENDROOT
BRANCH   3  12
ATOM     12  C   UNL     1      -2.128   0.401  25.787  0.00  0.00    +0.146 C 
BRANCH  12  14
ATOM      5  N   UNL     1      -4.058   3.541  24.940  0.00  0.00    -0.263 NA
ATOM     14  C   UNL     1      -3.267   1.306  25.415  0.00  0.00    -0.012 A 
ATOM     15  C   UNL     1      -4.544   0.801  25.202  0.00  0.00    +0.008 A 
ATOM     16  C   UNL     1      -3.078   2.672  25.272  0.00  0.00    +0.115 A 
ATOM     17  C   UNL     1      -5.580   1.664  24.859  0.00  0.00    +0.020 A 
ATOM     18  C   UNL     1      -5.286   3.013  24.742  0.00  0.00    +0.111 A 
ENDBRANCH  12  14
ENDBRANCH   3  12
TORSDOF 2
ENDMDL
