MODEL 1
REMARK VINA RESULT:      -6.7      0.000      0.000
REMARK  Name = 75536558
REMARK  7 active torsions:
REMARK  status: ('A' for Active; 'I' for Inactive)
REMARK    1  A    between atoms: O_2  and  C_8
REMARK    2  A    between atoms: N_4  and  C_16
REMARK    3  A    between atoms: N_5  and  C_10
REMARK    4  A    between atoms: N_5  and  C_18
REMARK    5  A    between atoms: C_7  and  C_16
REMARK    6  A    between atoms: C_9  and  C_17
REMARK    7  A    between atoms: C_18  and  C_19
REMARK                            x       y       z     vdW  Elec       q    Type
REMARK                         _______ _______ _______ _____ _____    ______ ____
ROOT
ATOM      1  O   UNL     1       0.104   2.741  23.445  0.00  0.00    -0.371 OA
ATOM      7  C   UNL     1       0.315   1.692  24.405  0.00  0.00    +0.165 C 
ATOM      8  C   UNL     1      -0.656   1.965  25.547  0.00  0.00    +0.164 C 
ATOM     10  C   UNL     1      -0.663   3.483  25.568  0.00  0.00    +0.111 C 
ATOM     15  C   UNL     1      -0.626   3.804  24.083  0.00  0.00    +0.181 C 
ENDROOT
BRANCH   8   2
ATOM      2  O   UNL     1      -0.207   1.404  26.765  0.00  0.00    -0.388 OA
ATOM     26  H   UNL     1      -0.778   1.731  27.481  0.00  0.00    +0.210 HD
ENDBRANCH   8   2
BRANCH  10   5
ATOM      5  N   UNL     1      -1.818   4.051  26.242  0.00  0.00    -0.303 NA
ATOM     25  H   UNL     1      -1.518   4.846  26.808  0.00  0.00    +0.123 HD
BRANCH   5  18
ATOM     18  C   UNL     1      -2.816   4.505  25.282  0.00  0.00    +0.137 C 
BRANCH  18  19
ATOM      6  N   UNL     1      -4.821   3.542  26.267  0.00  0.00    -0.259 NA
ATOM     19  C   UNL     1      -3.988   3.564  25.203  0.00  0.00    +0.055 A 
ATOM     20  C   UNL     1      -4.156   2.782  24.071  0.00  0.00    +0.024 A 
ATOM     21  C   UNL     1      -5.248   1.924  24.029  0.00  0.00    +0.003 A 
ATOM     22  C   UNL     1      -5.872   2.695  26.191  0.00  0.00    +0.111 A 
ATOM     23  C   UNL     1      -6.128   1.874  25.105  0.00  0.00    +0.020 A 
ENDBRANCH  18  19
ENDBRANCH   5  18
ENDBRANCH  10   5
BRANCH   7  16
ATOM     16  C   UNL     1       0.101   0.342  23.744  0.00  0.00    +0.138 C 
BRANCH  16   4
ATOM      3  O   UNL     1      -0.046  -2.009  25.442  0.00  0.00    -0.276 OA
ATOM      4  N   UNL     1      -1.080  -0.302  24.242  0.00  0.00    -0.313 N 
ATOM     17  C   UNL     1      -1.056  -1.430  25.054  0.00  0.00    +0.216 C 
ATOM     24  H   UNL     1      -1.976   0.101  23.982  0.00  0.00    +0.149 HD
BRANCH  17   9
ATOM      9  C   UNL     1      -2.428  -1.882  25.452  0.00  0.00    +0.075 C 
ATOM     11  C   UNL     1      -2.894  -3.028  24.547  0.00  0.00    +0.013 C 
ATOM     12  C   UNL     1      -3.443  -0.752  25.269  0.00  0.00    +0.013 C 
ATOM     13  C   UNL     1      -4.217  -2.569  23.943  0.00  0.00    +0.001 C 
ATOM     14  C   UNL     1      -4.119  -1.055  23.940  0.00  0.00    +0.001 C 
ENDBRANCH  17   9
ENDBRANCH  16   4
ENDBRANCH   7  16
TORSDOF 7
ENDMDL
MODEL 2
REMARK VINA RESULT:      -6.3      2.136      4.784
REMARK  Name = 75536558
REMARK  7 active torsions:
REMARK  status: ('A' for Active; 'I' for Inactive)
REMARK    1  A    between atoms: O_2  and  C_8
REMARK    2  A    between atoms: N_4  and  C_16
REMARK    3  A    between atoms: N_5  and  C_10
REMARK    4  A    between atoms: N_5  and  C_18
REMARK    5  A    between atoms: C_7  and  C_16
REMARK    6  A    between atoms: C_9  and  C_17
REMARK    7  A    between atoms: C_18  and  C_19
REMARK                            x       y       z     vdW  Elec       q    Type
REMARK                         _______ _______ _______ _____ _____    ______ ____
ROOT
ATOM      1  O   UNL     1      -4.113   3.796  25.791  0.00  0.00    -0.371 OA
ATOM      7  C   UNL     1      -4.300   3.052  24.575  0.00  0.00    +0.165 C 
ATOM      8  C   UNL     1      -2.916   2.570  24.160  0.00  0.00    +0.164 C 
ATOM     10  C   UNL     1      -2.054   3.736  24.609  0.00  0.00    +0.111 C 
ATOM     15  C   UNL     1      -2.715   4.111  25.924  0.00  0.00    +0.181 C 
ENDROOT
BRANCH   8   2
ATOM      2  O   UNL     1      -2.836   2.335  22.768  0.00  0.00    -0.388 OA
ATOM     26  H   UNL     1      -3.299   1.504  22.570  0.00  0.00    +0.210 HD
ENDBRANCH   8   2
BRANCH  10   5
ATOM      5  N   UNL     1      -0.648   3.397  24.758  0.00  0.00    -0.303 NA
ATOM     25  H   UNL     1      -0.244   3.969  25.501  0.00  0.00    +0.123 HD
BRANCH   5  18
ATOM     18  C   UNL     1      -0.480   1.991  25.101  0.00  0.00    +0.137 C 
BRANCH  18  19
ATOM      6  N   UNL     1       1.686   1.789  24.011  0.00  0.00    -0.259 NA
ATOM     19  C   UNL     1       0.438   1.285  24.139  0.00  0.00    +0.055 A 
ATOM     20  C   UNL     1      -0.026   0.179  23.445  0.00  0.00    +0.024 A 
ATOM     21  C   UNL     1       0.847  -0.450  22.565  0.00  0.00    +0.003 A 
ATOM     22  C   UNL     1       2.507   1.151  23.146  0.00  0.00    +0.111 A 
ATOM     23  C   UNL     1       2.139   0.038  22.407  0.00  0.00    +0.020 A 
ENDBRANCH  18  19
ENDBRANCH   5  18
ENDBRANCH  10   5
BRANCH   7  16
ATOM     16  C   UNL     1      -5.284   1.921  24.813  0.00  0.00    +0.138 C 
BRANCH  16   4
ATOM      3  O   UNL     1      -4.230  -0.433  23.479  0.00  0.00    -0.276 OA
ATOM      4  N   UNL     1      -4.643   0.790  25.418  0.00  0.00    -0.313 N 
ATOM     17  C   UNL     1      -4.167  -0.300  24.697  0.00  0.00    +0.216 C 
ATOM     24  H   UNL     1      -4.536   0.799  26.428  0.00  0.00    +0.149 HD
BRANCH  17   9
ATOM      9  C   UNL     1      -3.519  -1.330  25.572  0.00  0.00    +0.075 C 
ATOM     11  C   UNL     1      -2.089  -0.906  25.923  0.00  0.00    +0.013 C 
ATOM     12  C   UNL     1      -3.402  -2.665  24.836  0.00  0.00    +0.013 C 
ATOM     13  C   UNL     1      -1.192  -2.054  25.472  0.00  0.00    +0.001 C 
ATOM     14  C   UNL     1      -1.964  -2.705  24.339  0.00  0.00    +0.001 C 
ENDBRANCH  17   9
ENDBRANCH  16   4
ENDBRANCH   7  16
TORSDOF 7
ENDMDL
MODEL 3
REMARK VINA RESULT:      -5.8      1.628      4.822
REMARK  Name = 75536558
REMARK  7 active torsions:
REMARK  status: ('A' for Active; 'I' for Inactive)
REMARK    1  A    between atoms: O_2  and  C_8
REMARK    2  A    between atoms: N_4  and  C_16
REMARK    3  A    between atoms: N_5  and  C_10
REMARK    4  A    between atoms: N_5  and  C_18
REMARK    5  A    between atoms: C_7  and  C_16
REMARK    6  A    between atoms: C_9  and  C_17
REMARK    7  A    between atoms: C_18  and  C_19
REMARK                            x       y       z     vdW  Elec       q    Type
REMARK                         _______ _______ _______ _____ _____    ______ ____
ROOT
ATOM      1  O   UNL     1       0.204   3.729  25.972  0.00  0.00    -0.371 OA
ATOM      7  C   UNL     1      -0.514   3.686  24.727  0.00  0.00    +0.165 C 
ATOM      8  C   UNL     1      -1.170   2.312  24.668  0.00  0.00    +0.164 C 
ATOM     10  C   UNL     1      -0.122   1.458  25.357  0.00  0.00    +0.111 C 
ATOM     15  C   UNL     1       0.338   2.386  26.469  0.00  0.00    +0.181 C 
ENDROOT
BRANCH   8   2
ATOM      2  O   UNL     1      -1.418   1.904  23.336  0.00  0.00    -0.388 OA
ATOM     26  H   UNL     1      -0.756   1.235  23.093  0.00  0.00    +0.210 HD
ENDBRANCH   8   2
BRANCH  10   5
ATOM      5  N   UNL     1      -0.637   0.192  25.853  0.00  0.00    -0.303 NA
ATOM     25  H   UNL     1      -1.616   0.308  26.114  0.00  0.00    +0.123 HD
BRANCH   5  18
ATOM     18  C   UNL     1      -0.539  -0.849  24.837  0.00  0.00    +0.137 C 
BRANCH  18  19
ATOM      6  N   UNL     1      -2.765  -0.628  23.882  0.00  0.00    -0.259 NA
ATOM     19  C   UNL     1      -1.884  -1.439  24.508  0.00  0.00    +0.055 A 
ATOM     20  C   UNL     1      -2.150  -2.755  24.851  0.00  0.00    +0.024 A 
ATOM     21  C   UNL     1      -3.402  -3.270  24.533  0.00  0.00    +0.003 A 
ATOM     22  C   UNL     1      -3.972  -1.163  23.588  0.00  0.00    +0.111 A 
ATOM     23  C   UNL     1      -4.335  -2.466  23.888  0.00  0.00    +0.020 A 
ENDBRANCH  18  19
ENDBRANCH   5  18
ENDBRANCH  10   5
BRANCH   7  16
ATOM     16  C   UNL     1      -1.510   4.830  24.669  0.00  0.00    +0.138 C 
BRANCH  16   4
ATOM      3  O   UNL     1      -3.388   4.247  26.805  0.00  0.00    -0.276 OA
ATOM      4  N   UNL     1      -2.854   4.346  24.540  0.00  0.00    -0.313 N 
ATOM     17  C   UNL     1      -3.686   4.093  25.625  0.00  0.00    +0.216 C 
ATOM     24  H   UNL     1      -3.205   4.187  23.600  0.00  0.00    +0.149 HD
BRANCH  17   9
ATOM      9  C   UNL     1      -5.046   3.620  25.209  0.00  0.00    +0.075 C 
ATOM     11  C   UNL     1      -5.817   3.085  26.421  0.00  0.00    +0.013 C 
ATOM     12  C   UNL     1      -4.934   2.454  24.225  0.00  0.00    +0.013 C 
ATOM     13  C   UNL     1      -6.217   1.658  26.062  0.00  0.00    +0.001 C 
ATOM     14  C   UNL     1      -5.155   1.211  25.074  0.00  0.00    +0.001 C 
ENDBRANCH  17   9
ENDBRANCH  16   4
ENDBRANCH   7  16
TORSDOF 7
ENDMDL
MODEL 4
REMARK VINA RESULT:      -5.0      2.853      5.192
REMARK  Name = 75536558
REMARK  7 active torsions:
REMARK  status: ('A' for Active; 'I' for Inactive)
REMARK    1  A    between atoms: O_2  and  C_8
REMARK    2  A    between atoms: N_4  and  C_16
REMARK    3  A    between atoms: N_5  and  C_10
REMARK    4  A    between atoms: N_5  and  C_18
REMARK    5  A    between atoms: C_7  and  C_16
REMARK    6  A    between atoms: C_9  and  C_17
REMARK    7  A    between atoms: C_18  and  C_19
REMARK                            x       y       z     vdW  Elec       q    Type
REMARK                         _______ _______ _______ _____ _____    ______ ____
ROOT
ATOM      1  O   UNL     1      -0.312   0.537  25.121  0.00  0.00    -0.371 OA
ATOM      7  C   UNL     1      -0.264  -0.621  24.271  0.00  0.00    +0.165 C 
ATOM      8  C   UNL     1      -1.671  -1.206  24.278  0.00  0.00    +0.164 C 
ATOM     10  C   UNL     1      -2.103  -0.910  25.702  0.00  0.00    +0.111 C 
ATOM     15  C   UNL     1      -1.509   0.472  25.917  0.00  0.00    +0.181 C 
ENDROOT
BRANCH   8   2
ATOM      2  O   UNL     1      -1.668  -2.590  23.985  0.00  0.00    -0.388 OA
ATOM     26  H   UNL     1      -2.391  -2.772  23.362  0.00  0.00    +0.210 HD
ENDBRANCH   8   2
BRANCH  10   5
ATOM      5  N   UNL     1      -3.544  -0.943  25.893  0.00  0.00    -0.303 NA
ATOM     25  H   UNL     1      -3.790  -0.347  26.685  0.00  0.00    +0.123 HD
BRANCH   5  18
ATOM     18  C   UNL     1      -4.242  -0.462  24.707  0.00  0.00    +0.137 C 
BRANCH  18  19
ATOM      6  N   UNL     1      -3.682   1.759  23.887  0.00  0.00    -0.259 NA
ATOM     19  C   UNL     1      -4.438   1.030  24.738  0.00  0.00    +0.055 A 
ATOM     20  C   UNL     1      -5.362   1.576  25.615  0.00  0.00    +0.024 A 
ATOM     21  C   UNL     1      -5.519   2.957  25.619  0.00  0.00    +0.003 A 
ATOM     22  C   UNL     1      -3.862   3.099  23.918  0.00  0.00    +0.111 A 
ATOM     23  C   UNL     1      -4.760   3.741  24.757  0.00  0.00    +0.020 A 
ENDBRANCH  18  19
ENDBRANCH   5  18
ENDBRANCH  10   5
BRANCH   7  16
ATOM     16  C   UNL     1       0.214  -0.223  22.886  0.00  0.00    +0.138 C 
BRANCH  16   4
ATOM      3  O   UNL     1       2.475   1.542  23.338  0.00  0.00    -0.276 OA
ATOM      4  N   UNL     1       1.605  -0.524  22.708  0.00  0.00    -0.313 N 
ATOM     17  C   UNL     1       2.626   0.388  22.949  0.00  0.00    +0.216 C 
ATOM     24  H   UNL     1       1.843  -1.459  22.389  0.00  0.00    +0.149 HD
BRANCH  17   9
ATOM      9  C   UNL     1       3.986  -0.193  22.708  0.00  0.00    +0.075 C 
ATOM     11  C   UNL     1       4.241  -1.365  23.662  0.00  0.00    +0.013 C 
ATOM     12  C   UNL     1       5.074   0.842  23.000  0.00  0.00    +0.013 C 
ATOM     13  C   UNL     1       5.526  -1.022  24.408  0.00  0.00    +0.001 C 
ATOM     14  C   UNL     1       5.569   0.495  24.397  0.00  0.00    +0.001 C 
ENDBRANCH  17   9
ENDBRANCH  16   4
ENDBRANCH   7  16
TORSDOF 7
ENDMDL
MODEL 5
REMARK VINA RESULT:      -4.3      1.600      4.646
REMARK  Name = 75536558
REMARK  7 active torsions:
REMARK  status: ('A' for Active; 'I' for Inactive)
REMARK    1  A    between atoms: O_2  and  C_8
REMARK    2  A    between atoms: N_4  and  C_16
REMARK    3  A    between atoms: N_5  and  C_10
REMARK    4  A    between atoms: N_5  and  C_18
REMARK    5  A    between atoms: C_7  and  C_16
REMARK    6  A    between atoms: C_9  and  C_17
REMARK    7  A    between atoms: C_18  and  C_19
REMARK                            x       y       z     vdW  Elec       q    Type
REMARK                         _______ _______ _______ _____ _____    ______ ____
ROOT
ATOM      1  O   UNL     1      -1.000  -0.633  26.249  0.00  0.00    -0.371 OA
ATOM      7  C   UNL     1      -0.571  -1.319  25.061  0.00  0.00    +0.165 C 
ATOM      8  C   UNL     1      -1.838  -1.632  24.276  0.00  0.00    +0.164 C 
ATOM     10  C   UNL     1      -2.820  -1.902  25.401  0.00  0.00    +0.111 C 
ATOM     15  C   UNL     1      -2.413  -0.846  26.415  0.00  0.00    +0.181 C 
ENDROOT
BRANCH   8   2
ATOM      2  O   UNL     1      -1.667  -2.747  23.422  0.00  0.00    -0.388 OA
ATOM     26  H   UNL     1      -2.477  -2.857  22.896  0.00  0.00    +0.210 HD
ENDBRANCH   8   2
BRANCH  10   5
ATOM      5  N   UNL     1      -4.213  -1.794  24.998  0.00  0.00    -0.303 NA
ATOM     25  H   UNL     1      -4.769  -1.488  25.798  0.00  0.00    +0.123 HD
BRANCH   5  18
ATOM     18  C   UNL     1      -4.373  -0.831  23.916  0.00  0.00    +0.137 C 
BRANCH  18  19
ATOM      6  N   UNL     1      -5.527   0.622  25.489  0.00  0.00    -0.259 NA
ATOM     19  C   UNL     1      -4.687   0.547  24.433  0.00  0.00    +0.055 A 
ATOM     20  C   UNL     1      -4.115   1.649  23.818  0.00  0.00    +0.024 A 
ATOM     21  C   UNL     1      -4.426   2.908  24.320  0.00  0.00    +0.003 A 
ATOM     22  C   UNL     1      -5.806   1.862  25.950  0.00  0.00    +0.111 A 
ATOM     23  C   UNL     1      -5.286   3.026  25.407  0.00  0.00    +0.020 A 
ENDBRANCH  18  19
ENDBRANCH   5  18
ENDBRANCH  10   5
BRANCH   7  16
ATOM     16  C   UNL     1       0.412  -0.452  24.294  0.00  0.00    +0.138 C 
BRANCH  16   4
ATOM      3  O   UNL     1      -1.142   1.812  23.350  0.00  0.00    -0.276 OA
ATOM      4  N   UNL     1       0.429   0.890  24.801  0.00  0.00    -0.313 N 
ATOM     17  C   UNL     1      -0.353   1.916  24.284  0.00  0.00    +0.216 C 
ATOM     24  H   UNL     1       1.050   1.086  25.582  0.00  0.00    +0.149 HD
BRANCH  17   9
ATOM      9  C   UNL     1      -0.159   3.211  25.014  0.00  0.00    +0.075 C 
ATOM     11  C   UNL     1      -1.229   3.375  26.099  0.00  0.00    +0.013 C 
ATOM     12  C   UNL     1      -0.327   4.397  24.064  0.00  0.00    +0.013 C 
ATOM     13  C   UNL     1      -1.920   4.702  25.804  0.00  0.00    +0.001 C 
ATOM     14  C   UNL     1      -1.747   4.886  24.307  0.00  0.00    +0.001 C 
ENDBRANCH  17   9
ENDBRANCH  16   4
ENDBRANCH   7  16
TORSDOF 7
ENDMDL
MODEL 6
REMARK VINA RESULT:      -4.1     14.416     16.548
REMARK  Name = 75536558
REMARK  7 active torsions:
REMARK  status: ('A' for Active; 'I' for Inactive)
REMARK    1  A    between atoms: O_2  and  C_8
REMARK    2  A    between atoms: N_4  and  C_16
REMARK    3  A    between atoms: N_5  and  C_10
REMARK    4  A    between atoms: N_5  and  C_18
REMARK    5  A    between atoms: C_7  and  C_16
REMARK    6  A    between atoms: C_9  and  C_17
REMARK    7  A    between atoms: C_18  and  C_19
REMARK                            x       y       z     vdW  Elec       q    Type
REMARK                         _______ _______ _______ _____ _____    ______ ____
ROOT
ATOM      1  O   UNL     1      -3.056 -10.296  16.290  0.00  0.00    -0.371 OA
ATOM      7  C   UNL     1      -4.449 -10.033  16.048  0.00  0.00    +0.165 C 
ATOM      8  C   UNL     1      -4.714 -10.463  14.611  0.00  0.00    +0.164 C 
ATOM     10  C   UNL     1      -3.400 -10.094  13.948  0.00  0.00    +0.111 C 
ATOM     15  C   UNL     1      -2.400 -10.486  15.024  0.00  0.00    +0.181 C 
ENDROOT
BRANCH   8   2
ATOM      2  O   UNL     1      -5.818  -9.779  14.052  0.00  0.00    -0.388 OA
ATOM     26  H   UNL     1      -5.490  -9.185  13.356  0.00  0.00    +0.210 HD
ENDBRANCH   8   2
BRANCH  10   5
ATOM      5  N   UNL     1      -3.171 -10.779  12.686  0.00  0.00    -0.303 NA
ATOM     25  H   UNL     1      -3.997 -11.329  12.450  0.00  0.00    +0.123 HD
BRANCH   5  18
ATOM     18  C   UNL     1      -2.913  -9.828  11.612  0.00  0.00    +0.137 C 
BRANCH  18  19
ATOM      6  N   UNL     1      -5.260  -9.302  11.250  0.00  0.00    -0.259 NA
ATOM     19  C   UNL     1      -4.093  -9.691  10.689  0.00  0.00    +0.055 A 
ATOM     20  C   UNL     1      -3.935  -9.962   9.339  0.00  0.00    +0.024 A 
ATOM     21  C   UNL     1      -5.046  -9.826   8.514  0.00  0.00    +0.003 A 
ATOM     22  C   UNL     1      -6.318  -9.180  10.417  0.00  0.00    +0.111 A 
ATOM     23  C   UNL     1      -6.263  -9.427   9.054  0.00  0.00    +0.020 A 
ENDBRANCH  18  19
ENDBRANCH   5  18
ENDBRANCH  10   5
BRANCH   7  16
ATOM     16  C   UNL     1      -5.295 -10.779  17.064  0.00  0.00    +0.138 C 
BRANCH  16   4
ATOM      3  O   UNL     1      -7.332  -9.359  18.570  0.00  0.00    -0.276 OA
ATOM      4  N   UNL     1      -6.692 -10.675  16.757  0.00  0.00    -0.313 N 
ATOM     17  C   UNL     1      -7.600  -9.970  17.539  0.00  0.00    +0.216 C 
ATOM     24  H   UNL     1      -7.022 -11.144  15.919  0.00  0.00    +0.149 HD
BRANCH  17   9
ATOM      9  C   UNL     1      -8.989 -10.001  16.978  0.00  0.00    +0.075 C 
ATOM     11  C   UNL     1      -8.964  -9.683  15.478  0.00  0.00    +0.013 C 
ATOM     12  C   UNL     1      -9.859  -8.924  17.629  0.00  0.00    +0.013 C 
ATOM     13  C   UNL     1      -9.900  -8.494  15.290  0.00  0.00    +0.001 C 
ATOM     14  C   UNL     1      -9.866  -7.778  16.628  0.00  0.00    +0.001 C 
ENDBRANCH  17   9
ENDBRANCH  16   4
ENDBRANCH   7  16
TORSDOF 7
ENDMDL
MODEL 7
REMARK VINA RESULT:      -4.1      2.070      4.309
REMARK  Name = 75536558
REMARK  7 active torsions:
REMARK  status: ('A' for Active; 'I' for Inactive)
REMARK    1  A    between atoms: O_2  and  C_8
REMARK    2  A    between atoms: N_4  and  C_16
REMARK    3  A    between atoms: N_5  and  C_10
REMARK    4  A    between atoms: N_5  and  C_18
REMARK    5  A    between atoms: C_7  and  C_16
REMARK    6  A    between atoms: C_9  and  C_17
REMARK    7  A    between atoms: C_18  and  C_19
REMARK                            x       y       z     vdW  Elec       q    Type
REMARK                         _______ _______ _______ _____ _____    ______ ____
ROOT
ATOM      1  O   UNL     1      -4.878   3.604  26.591  0.00  0.00    -0.371 OA
ATOM      7  C   UNL     1      -5.216   3.372  25.213  0.00  0.00    +0.165 C 
ATOM      8  C   UNL     1      -3.907   3.462  24.438  0.00  0.00    +0.164 C 
ATOM     10  C   UNL     1      -3.178   4.540  25.220  0.00  0.00    +0.111 C 
ATOM     15  C   UNL     1      -3.564   4.189  26.647  0.00  0.00    +0.181 C 
ENDROOT
BRANCH   8   2
ATOM      2  O   UNL     1      -4.119   3.818  23.085  0.00  0.00    -0.388 OA
ATOM     26  H   UNL     1      -4.452   4.731  23.058  0.00  0.00    +0.210 HD
ENDBRANCH   8   2
BRANCH  10   5
ATOM      5  N   UNL     1      -1.740   4.543  25.007  0.00  0.00    -0.303 NA
ATOM     25  H   UNL     1      -1.351   5.417  25.361  0.00  0.00    +0.123 HD
BRANCH   5  18
ATOM     18  C   UNL     1      -1.104   3.429  25.700  0.00  0.00    +0.137 C 
BRANCH  18  19
ATOM      6  N   UNL     1      -1.418   2.287  23.575  0.00  0.00    -0.259 NA
ATOM     19  C   UNL     1      -0.768   2.303  24.760  0.00  0.00    +0.055 A 
ATOM     20  C   UNL     1       0.170   1.357  25.141  0.00  0.00    +0.024 A 
ATOM     21  C   UNL     1       0.459   0.330  24.250  0.00  0.00    +0.003 A 
ATOM     22  C   UNL     1      -1.112   1.273  22.734  0.00  0.00    +0.111 A 
ATOM     23  C   UNL     1      -0.189   0.280  23.021  0.00  0.00    +0.020 A 
ENDBRANCH  18  19
ENDBRANCH   5  18
ENDBRANCH  10   5
BRANCH   7  16
ATOM     16  C   UNL     1      -5.905   2.027  25.073  0.00  0.00    +0.138 C 
BRANCH  16   4
ATOM      3  O   UNL     1      -4.332  -0.032  26.383  0.00  0.00    -0.276 OA
ATOM      4  N   UNL     1      -5.044   1.061  24.454  0.00  0.00    -0.313 N 
ATOM     17  C   UNL     1      -4.325   0.107  25.164  0.00  0.00    +0.216 C 
ATOM     24  H   UNL     1      -4.967   1.086  23.441  0.00  0.00    +0.149 HD
BRANCH  17   9
ATOM      9  C   UNL     1      -3.525  -0.793  24.271  0.00  0.00    +0.075 C 
ATOM     11  C   UNL     1      -4.433  -1.846  23.626  0.00  0.00    +0.013 C 
ATOM     12  C   UNL     1      -2.480  -1.564  25.079  0.00  0.00    +0.013 C 
ATOM     13  C   UNL     1      -3.829  -3.197  23.995  0.00  0.00    +0.001 C 
ATOM     14  C   UNL     1      -3.102  -2.935  25.302  0.00  0.00    +0.001 C 
ENDBRANCH  17   9
ENDBRANCH  16   4
ENDBRANCH   7  16
TORSDOF 7
ENDMDL
MODEL 8
REMARK VINA RESULT:      -4.0      2.222      4.345
REMARK  Name = 75536558
REMARK  7 active torsions:
REMARK  status: ('A' for Active; 'I' for Inactive)
REMARK    1  A    between atoms: O_2  and  C_8
REMARK    2  A    between atoms: N_4  and  C_16
REMARK    3  A    between atoms: N_5  and  C_10
REMARK    4  A    between atoms: N_5  and  C_18
REMARK    5  A    between atoms: C_7  and  C_16
REMARK    6  A    between atoms: C_9  and  C_17
REMARK    7  A    between atoms: C_18  and  C_19
REMARK                            x       y       z     vdW  Elec       q    Type
REMARK                         _______ _______ _______ _____ _____    ______ ____
ROOT
ATOM      1  O   UNL     1      -6.031   2.451  25.808  0.00  0.00    -0.371 OA
ATOM      7  C   UNL     1      -5.372   1.627  24.832  0.00  0.00    +0.165 C 
ATOM      8  C   UNL     1      -4.110   2.380  24.428  0.00  0.00    +0.164 C 
ATOM     10  C   UNL     1      -4.591   3.817  24.501  0.00  0.00    +0.111 C 
ATOM     15  C   UNL     1      -5.474   3.776  25.738  0.00  0.00    +0.181 C 
ENDROOT
BRANCH   8   2
ATOM      2  O   UNL     1      -3.672   2.016  23.134  0.00  0.00    -0.388 OA
ATOM     26  H   UNL     1      -4.454   1.831  22.586  0.00  0.00    +0.210 HD
ENDBRANCH   8   2
BRANCH  10   5
ATOM      5  N   UNL     1      -3.514   4.788  24.606  0.00  0.00    -0.303 NA
ATOM     25  H   UNL     1      -3.914   5.723  24.687  0.00  0.00    +0.123 HD
BRANCH   5  18
ATOM     18  C   UNL     1      -2.684   4.527  25.775  0.00  0.00    +0.137 C 
BRANCH  18  19
ATOM      6  N   UNL     1      -1.125   3.637  24.134  0.00  0.00    -0.259 NA
ATOM     19  C   UNL     1      -1.487   3.681  25.436  0.00  0.00    +0.055 A 
ATOM     20  C   UNL     1      -0.826   3.002  26.446  0.00  0.00    +0.024 A 
ATOM     21  C   UNL     1       0.276   2.229  26.099  0.00  0.00    +0.003 A 
ATOM     22  C   UNL     1      -0.048   2.876  23.834  0.00  0.00    +0.111 A 
ATOM     23  C   UNL     1       0.680   2.160  24.770  0.00  0.00    +0.020 A 
ENDBRANCH  18  19
ENDBRANCH   5  18
ENDBRANCH  10   5
BRANCH   7  16
ATOM     16  C   UNL     1      -5.091   0.257  25.422  0.00  0.00    +0.138 C 
BRANCH  16   4
ATOM      3  O   UNL     1      -4.604  -2.086  23.778  0.00  0.00    -0.276 OA
ATOM      4  N   UNL     1      -3.824  -0.251  24.983  0.00  0.00    -0.313 N 
ATOM     17  C   UNL     1      -3.684  -1.387  24.193  0.00  0.00    +0.216 C 
ATOM     24  H   UNL     1      -2.992   0.257  25.269  0.00  0.00    +0.149 HD
BRANCH  17   9
ATOM      9  C   UNL     1      -2.254  -1.682  23.857  0.00  0.00    +0.075 C 
ATOM     11  C   UNL     1      -1.786  -2.948  24.583  0.00  0.00    +0.013 C 
ATOM     12  C   UNL     1      -1.343  -0.551  24.339  0.00  0.00    +0.013 C 
ATOM     13  C   UNL     1      -0.557  -2.538  25.386  0.00  0.00    +0.001 C 
ATOM     14  C   UNL     1      -0.763  -1.058  25.652  0.00  0.00    +0.001 C 
ENDBRANCH  17   9
ENDBRANCH  16   4
ENDBRANCH   7  16
TORSDOF 7
ENDMDL
MODEL 9
REMARK VINA RESULT:      -3.9     14.418     16.733
REMARK  Name = 75536558
REMARK  7 active torsions:
REMARK  status: ('A' for Active; 'I' for Inactive)
REMARK    1  A    between atoms: O_2  and  C_8
REMARK    2  A    between atoms: N_4  and  C_16
REMARK    3  A    between atoms: N_5  and  C_10
REMARK    4  A    between atoms: N_5  and  C_18
REMARK    5  A    between atoms: C_7  and  C_16
REMARK    6  A    between atoms: C_9  and  C_17
REMARK    7  A    between atoms: C_18  and  C_19
REMARK                            x       y       z     vdW  Elec       q    Type
REMARK                         _______ _______ _______ _____ _____    ______ ____
ROOT
ATOM      1  O   UNL     1      -5.056  -9.942  17.356  0.00  0.00    -0.371 OA
ATOM      7  C   UNL     1      -6.289  -9.458  16.797  0.00  0.00    +0.165 C 
ATOM      8  C   UNL     1      -6.340  -9.984  15.368  0.00  0.00    +0.164 C 
ATOM     10  C   UNL     1      -4.871  -9.934  14.987  0.00  0.00    +0.111 C 
ATOM     15  C   UNL     1      -4.209 -10.383  16.279  0.00  0.00    +0.181 C 
ENDROOT
BRANCH   8   2
ATOM      2  O   UNL     1      -7.147  -9.174  14.537  0.00  0.00    -0.388 OA
ATOM     26  H   UNL     1      -6.643  -8.376  14.304  0.00  0.00    +0.210 HD
ENDBRANCH   8   2
BRANCH  10   5
ATOM      5  N   UNL     1      -4.534 -10.781  13.854  0.00  0.00    -0.303 NA
ATOM     25  H   UNL     1      -5.392 -11.053  13.373  0.00  0.00    +0.123 HD
BRANCH   5  18
ATOM     18  C   UNL     1      -3.667 -10.081  12.915  0.00  0.00    +0.137 C 
BRANCH  18  19
ATOM      6  N   UNL     1      -5.655  -9.381  11.698  0.00  0.00    -0.259 NA
ATOM     19  C   UNL     1      -4.369  -9.789  11.615  0.00  0.00    +0.055 A 
ATOM     20  C   UNL     1      -3.682  -9.948  10.423  0.00  0.00    +0.024 A 
ATOM     21  C   UNL     1      -4.358  -9.670   9.240  0.00  0.00    +0.003 A 
ATOM     22  C   UNL     1      -6.280  -9.121  10.528  0.00  0.00    +0.111 A 
ATOM     23  C   UNL     1      -5.682  -9.247   9.285  0.00  0.00    +0.020 A 
ENDBRANCH  18  19
ENDBRANCH   5  18
ENDBRANCH  10   5
BRANCH   7  16
ATOM     16  C   UNL     1      -7.456  -9.923  17.650  0.00  0.00    +0.138 C 
BRANCH  16   4
ATOM      3  O   UNL     1      -9.428  -7.837  17.211  0.00  0.00    -0.276 OA
ATOM      4  N   UNL     1      -8.663 -10.012  16.880  0.00  0.00    -0.313 N 
ATOM     17  C   UNL     1      -9.554  -8.956  16.723  0.00  0.00    +0.216 C 
ATOM     24  H   UNL     1      -8.864 -10.899  16.428  0.00  0.00    +0.149 HD
BRANCH  17   9
ATOM      9  C   UNL     1     -10.718  -9.311  15.849  0.00  0.00    +0.075 C 
ATOM     11  C   UNL     1     -10.636 -10.781  15.423  0.00  0.00    +0.013 C 
ATOM     12  C   UNL     1     -10.695  -8.489  14.559  0.00  0.00    +0.013 C 
ATOM     13  C   UNL     1     -10.669 -10.774  13.899  0.00  0.00    +0.001 C 
ATOM     14  C   UNL     1     -10.091  -9.423  13.520  0.00  0.00    +0.001 C 
ENDBRANCH  17   9
ENDBRANCH  16   4
ENDBRANCH   7  16
TORSDOF 7
ENDMDL
MODEL 10
REMARK VINA RESULT:      -3.8     18.395     20.293
REMARK  Name = 75536558
REMARK  7 active torsions:
REMARK  status: ('A' for Active; 'I' for Inactive)
REMARK    1  A    between atoms: O_2  and  C_8
REMARK    2  A    between atoms: N_4  and  C_16
REMARK    3  A    between atoms: N_5  and  C_10
REMARK    4  A    between atoms: N_5  and  C_18
REMARK    5  A    between atoms: C_7  and  C_16
REMARK    6  A    between atoms: C_9  and  C_17
REMARK    7  A    between atoms: C_18  and  C_19
REMARK                            x       y       z     vdW  Elec       q    Type
REMARK                         _______ _______ _______ _____ _____    ______ ____
ROOT
ATOM      1  O   UNL     1      16.802  -5.819  27.964  0.00  0.00    -0.371 OA
ATOM      7  C   UNL     1      17.383  -6.883  27.192  0.00  0.00    +0.165 C 
ATOM      8  C   UNL     1      16.541  -8.120  27.478  0.00  0.00    +0.164 C 
ATOM     10  C   UNL     1      16.180  -7.896  28.936  0.00  0.00    +0.111 C 
ATOM     15  C   UNL     1      15.936  -6.396  28.958  0.00  0.00    +0.181 C 
ENDROOT
BRANCH   8   2
ATOM      2  O   UNL     1      17.271  -9.314  27.275  0.00  0.00    -0.388 OA
ATOM     26  H   UNL     1      17.904  -9.166  26.552  0.00  0.00    +0.210 HD
ENDBRANCH   8   2
BRANCH  10   5
ATOM      5  N   UNL     1      15.026  -8.663  29.375  0.00  0.00    -0.303 NA
ATOM     25  H   UNL     1      15.122  -9.626  29.051  0.00  0.00    +0.123 HD
BRANCH   5  18
ATOM     18  C   UNL     1      14.917  -8.662  30.828  0.00  0.00    +0.137 C 
BRANCH  18  19
ATOM      6  N   UNL     1      12.858  -9.082  32.054  0.00  0.00    -0.259 NA
ATOM     19  C   UNL     1      13.556  -8.213  31.289  0.00  0.00    +0.055 A 
ATOM     20  C   UNL     1      13.093  -6.961  30.918  0.00  0.00    +0.024 A 
ATOM     21  C   UNL     1      11.832  -6.577  31.360  0.00  0.00    +0.003 A 
ATOM     22  C   UNL     1      11.636  -8.673  32.465  0.00  0.00    +0.111 A 
ATOM     23  C   UNL     1      11.084  -7.442  32.150  0.00  0.00    +0.020 A 
ENDBRANCH  18  19
ENDBRANCH   5  18
ENDBRANCH  10   5
BRANCH   7  16
ATOM     16  C   UNL     1      17.405  -6.499  25.723  0.00  0.00    +0.138 C 
BRANCH  16   4
ATOM      3  O   UNL     1      17.366  -4.979  23.249  0.00  0.00    -0.276 OA
ATOM      4  N   UNL     1      16.902  -5.170  25.524  0.00  0.00    -0.313 N 
ATOM     17  C   UNL     1      16.924  -4.517  24.297  0.00  0.00    +0.216 C 
ATOM     24  H   UNL     1      16.509  -4.694  26.330  0.00  0.00    +0.149 HD
BRANCH  17   9
ATOM      9  C   UNL     1      16.313  -3.150  24.362  0.00  0.00    +0.075 C 
ATOM     11  C   UNL     1      15.409  -2.913  23.147  0.00  0.00    +0.013 C 
ATOM     12  C   UNL     1      17.397  -2.072  24.306  0.00  0.00    +0.013 C 
ATOM     13  C   UNL     1      15.933  -1.646  22.480  0.00  0.00    +0.001 C 
ATOM     14  C   UNL     1      17.403  -1.607  22.857  0.00  0.00    +0.001 C 
ENDBRANCH  17   9
ENDBRANCH  16   4
ENDBRANCH   7  16
TORSDOF 7
ENDMDL
