MODEL 1
REMARK VINA RESULT:      -6.3      0.000      0.000
REMARK  Name = 75536966
REMARK  1 active torsions:
REMARK  status: ('A' for Active; 'I' for Inactive)
REMARK    1  A    between atoms: C_12  and  C_13
REMARK                            x       y       z     vdW  Elec       q    Type
REMARK                         _______ _______ _______ _____ _____    ______ ____
ROOT
ATOM      2  O   UNL     1      -0.661  -1.415  25.044  0.00  0.00    -0.275 OA
ATOM      3  O   UNL     1      -0.139   5.527  24.688  0.00  0.00    -0.253 OA
ATOM      4  N   UNL     1      -1.036   3.399  25.146  0.00  0.00    -0.278 N 
ATOM      5  N   UNL     1      -1.583   0.699  24.768  0.00  0.00    -0.298 N 
ATOM      6  N   UNL     1      -2.379   5.195  25.301  0.00  0.00    -0.297 N 
ATOM      7  C   UNL     1      -2.291   2.877  25.655  0.00  0.00    +0.112 C 
ATOM      8  C   UNL     1      -2.714   1.643  24.864  0.00  0.00    +0.132 C 
ATOM      9  C   UNL     1       0.091   2.507  24.948  0.00  0.00    +0.128 C 
ATOM     10  C   UNL     1      -0.360   1.265  24.181  0.00  0.00    +0.127 C 
ATOM     11  C   UNL     1      -3.244   4.065  25.548  0.00  0.00    +0.129 C 
ATOM     13  C   UNL     1      -1.614  -0.639  25.157  0.00  0.00    +0.219 C 
ATOM     14  C   UNL     1      -1.063   4.792  25.008  0.00  0.00    +0.303 C 
ATOM     19  H   UNL     1      -2.695   6.159  25.264  0.00  0.00    +0.150 HD
ENDROOT
BRANCH  13  12
ATOM      1  O   UNL     1      -4.531  -2.566  23.844  0.00  0.00    -0.380 OA
ATOM     12  C   UNL     1      -2.900  -1.136  25.750  0.00  0.00    +0.079 C 
ATOM     15  C   UNL     1      -4.104  -0.501  25.055  0.00  0.00    +0.041 C 
ATOM     16  C   UNL     1      -2.953  -2.662  25.687  0.00  0.00    +0.041 C 
ATOM     17  C   UNL     1      -4.409  -1.152  23.709  0.00  0.00    +0.160 C 
ATOM     18  C   UNL     1      -3.318  -3.166  24.295  0.00  0.00    +0.160 C 
ENDBRANCH  13  12
TORSDOF 1
ENDMDL
MODEL 2
REMARK VINA RESULT:      -5.2      1.829      6.197
REMARK  Name = 75536966
REMARK  1 active torsions:
REMARK  status: ('A' for Active; 'I' for Inactive)
REMARK    1  A    between atoms: C_12  and  C_13
REMARK                            x       y       z     vdW  Elec       q    Type
REMARK                         _______ _______ _______ _____ _____    ______ ____
ROOT
ATOM      2  O   UNL     1      -4.273   3.441  25.050  0.00  0.00    -0.275 OA
ATOM      3  O   UNL     1      -3.542  -3.401  23.939  0.00  0.00    -0.253 OA
ATOM      4  N   UNL     1      -3.097  -1.233  24.740  0.00  0.00    -0.278 N 
ATOM      5  N   UNL     1      -2.973   1.545  24.719  0.00  0.00    -0.298 N 
ATOM      6  N   UNL     1      -1.501  -2.804  24.931  0.00  0.00    -0.297 N 
ATOM      7  C   UNL     1      -2.034  -0.589  25.491  0.00  0.00    +0.112 C 
ATOM      8  C   UNL     1      -1.722   0.783  24.902  0.00  0.00    +0.132 C 
ATOM      9  C   UNL     1      -4.320  -0.508  24.453  0.00  0.00    +0.128 C 
ATOM     10  C   UNL     1      -3.986   0.873  23.892  0.00  0.00    +0.127 C 
ATOM     11  C   UNL     1      -0.887  -1.593  25.421  0.00  0.00    +0.129 C 
ATOM     13  C   UNL     1      -3.228   2.814  25.236  0.00  0.00    +0.219 C 
ATOM     14  C   UNL     1      -2.812  -2.577  24.472  0.00  0.00    +0.303 C 
ATOM     19  H   UNL     1      -1.023  -3.696  24.850  0.00  0.00    +0.150 HD
ENDROOT
BRANCH  13  12
ATOM      1  O   UNL     1      -0.472   5.247  24.578  0.00  0.00    -0.380 OA
ATOM     12  C   UNL     1      -2.142   3.428  26.073  0.00  0.00    +0.079 C 
ATOM     15  C   UNL     1      -0.761   3.037  25.549  0.00  0.00    +0.041 C 
ATOM     16  C   UNL     1      -2.316   4.945  26.128  0.00  0.00    +0.041 C 
ATOM     17  C   UNL     1      -0.352   3.849  24.324  0.00  0.00    +0.160 C 
ATOM     18  C   UNL     1      -1.818   5.625  24.858  0.00  0.00    +0.160 C 
ENDBRANCH  13  12
TORSDOF 1
ENDMDL
MODEL 3
REMARK VINA RESULT:      -4.7     16.524     18.543
REMARK  Name = 75536966
REMARK  1 active torsions:
REMARK  status: ('A' for Active; 'I' for Inactive)
REMARK    1  A    between atoms: C_12  and  C_13
REMARK                            x       y       z     vdW  Elec       q    Type
REMARK                         _______ _______ _______ _____ _____    ______ ____
ROOT
ATOM      2  O   UNL     1      -6.861  -8.548   8.603  0.00  0.00    -0.275 OA
ATOM      3  O   UNL     1      -1.687 -10.353  12.911  0.00  0.00    -0.253 OA
ATOM      4  N   UNL     1      -3.867 -10.107  12.057  0.00  0.00    -0.278 N 
ATOM      5  N   UNL     1      -5.991  -8.901  10.727  0.00  0.00    -0.298 N 
ATOM      6  N   UNL     1      -3.610 -10.757  14.193  0.00  0.00    -0.297 N 
ATOM      7  C   UNL     1      -5.214 -10.387  12.521  0.00  0.00    +0.112 C 
ATOM      8  C   UNL     1      -6.153  -9.242  12.154  0.00  0.00    +0.132 C 
ATOM      9  C   UNL     1      -3.649  -9.684  10.687  0.00  0.00    +0.128 C 
ATOM     10  C   UNL     1      -4.618  -8.558  10.330  0.00  0.00    +0.127 C 
ATOM     11  C   UNL     1      -5.037 -10.616  14.020  0.00  0.00    +0.129 C 
ATOM     13  C   UNL     1      -7.018  -8.860   9.786  0.00  0.00    +0.219 C 
ATOM     14  C   UNL     1      -2.904 -10.400  13.029  0.00  0.00    +0.303 C 
ATOM     19  H   UNL     1      -3.163 -11.006  15.070  0.00  0.00    +0.150 HD
ENDROOT
BRANCH  13  12
ATOM      1  O   UNL     1     -10.203  -9.879   8.124  0.00  0.00    -0.380 OA
ATOM     12  C   UNL     1      -8.390  -9.227  10.273  0.00  0.00    +0.079 C 
ATOM     15  C   UNL     1      -9.437  -8.244   9.752  0.00  0.00    +0.041 C 
ATOM     16  C   UNL     1      -8.721 -10.666   9.878  0.00  0.00    +0.041 C 
ATOM     17  C   UNL     1      -9.820  -8.517   8.301  0.00  0.00    +0.160 C 
ATOM     18  C   UNL     1      -9.134 -10.777   8.415  0.00  0.00    +0.160 C 
ENDBRANCH  13  12
TORSDOF 1
ENDMDL
MODEL 4
REMARK VINA RESULT:      -4.6      2.356      5.473
REMARK  Name = 75536966
REMARK  1 active torsions:
REMARK  status: ('A' for Active; 'I' for Inactive)
REMARK    1  A    between atoms: C_12  and  C_13
REMARK                            x       y       z     vdW  Elec       q    Type
REMARK                         _______ _______ _______ _____ _____    ______ ____
ROOT
ATOM      2  O   UNL     1      -5.769   1.477  25.376  0.00  0.00    -0.275 OA
ATOM      3  O   UNL     1      -0.293  -2.834  25.265  0.00  0.00    -0.253 OA
ATOM      4  N   UNL     1      -1.557  -0.862  25.035  0.00  0.00    -0.278 N 
ATOM      5  N   UNL     1      -3.766   0.730  24.468  0.00  0.00    -0.298 N 
ATOM      6  N   UNL     1       0.508  -0.931  24.151  0.00  0.00    -0.297 N 
ATOM      7  C   UNL     1      -1.324   0.483  24.540  0.00  0.00    +0.112 C 
ATOM      8  C   UNL     1      -2.516   0.962  23.718  0.00  0.00    +0.132 C 
ATOM      9  C   UNL     1      -2.803  -1.178  25.707  0.00  0.00    +0.128 C 
ATOM     10  C   UNL     1      -3.982  -0.664  24.884  0.00  0.00    +0.127 C 
ATOM     11  C   UNL     1      -0.018   0.357  23.760  0.00  0.00    +0.129 C 
ATOM     13  C   UNL     1      -4.720   1.701  24.768  0.00  0.00    +0.219 C 
ATOM     14  C   UNL     1      -0.437  -1.684  24.872  0.00  0.00    +0.303 C 
ATOM     19  H   UNL     1       1.418  -1.284  23.874  0.00  0.00    +0.150 HD
ENDROOT
BRANCH  13  12
ATOM      1  O   UNL     1      -2.993   4.642  26.289  0.00  0.00    -0.380 OA
ATOM     12  C   UNL     1      -4.420   3.099  24.310  0.00  0.00    +0.079 C 
ATOM     15  C   UNL     1      -5.109   4.127  25.207  0.00  0.00    +0.041 C 
ATOM     16  C   UNL     1      -2.910   3.322  24.253  0.00  0.00    +0.041 C 
ATOM     17  C   UNL     1      -4.367   4.340  26.523  0.00  0.00    +0.160 C 
ATOM     18  C   UNL     1      -2.315   3.572  25.635  0.00  0.00    +0.160 C 
ENDBRANCH  13  12
TORSDOF 1
ENDMDL
MODEL 5
REMARK VINA RESULT:      -4.2     15.234     17.291
REMARK  Name = 75536966
REMARK  1 active torsions:
REMARK  status: ('A' for Active; 'I' for Inactive)
REMARK    1  A    between atoms: C_12  and  C_13
REMARK                            x       y       z     vdW  Elec       q    Type
REMARK                         _______ _______ _______ _____ _____    ______ ____
ROOT
ATOM      2  O   UNL     1      -6.840  -9.682  15.694  0.00  0.00    -0.275 OA
ATOM      3  O   UNL     1      -5.703  -8.887   8.864  0.00  0.00    -0.253 OA
ATOM      4  N   UNL     1      -6.861  -9.202  10.889  0.00  0.00    -0.278 N 
ATOM      5  N   UNL     1      -7.333 -10.127  13.469  0.00  0.00    -0.298 N 
ATOM      6  N   UNL     1      -7.958  -9.528   8.955  0.00  0.00    -0.297 N 
ATOM      7  C   UNL     1      -8.234  -9.460  11.284  0.00  0.00    +0.112 C 
ATOM      8  C   UNL     1      -8.281 -10.499  12.400  0.00  0.00    +0.132 C 
ATOM      9  C   UNL     1      -5.861  -8.914  11.900  0.00  0.00    +0.128 C 
ATOM     10  C   UNL     1      -5.944  -9.947  13.021  0.00  0.00    +0.127 C 
ATOM     11  C   UNL     1      -8.908  -9.887   9.982  0.00  0.00    +0.129 C 
ATOM     13  C   UNL     1      -7.656  -9.971  14.816  0.00  0.00    +0.219 C 
ATOM     14  C   UNL     1      -6.711  -9.167   9.498  0.00  0.00    +0.303 C 
ATOM     19  H   UNL     1      -8.139  -9.602   7.959  0.00  0.00    +0.150 HD
ENDROOT
BRANCH  13  12
ATOM      1  O   UNL     1      -9.878  -8.627  17.499  0.00  0.00    -0.380 OA
ATOM     12  C   UNL     1      -9.097 -10.169  15.188  0.00  0.00    +0.079 C 
ATOM     15  C   UNL     1      -9.222 -10.781  16.582  0.00  0.00    +0.041 C 
ATOM     16  C   UNL     1      -9.854  -8.847  15.081  0.00  0.00    +0.041 C 
ATOM     17  C   UNL     1      -9.022  -9.751  17.689  0.00  0.00    +0.160 C 
ATOM     18  C   UNL     1      -9.597  -7.942  16.281  0.00  0.00    +0.160 C 
ENDBRANCH  13  12
TORSDOF 1
ENDMDL
MODEL 6
REMARK VINA RESULT:      -4.1     16.766     19.120
REMARK  Name = 75536966
REMARK  1 active torsions:
REMARK  status: ('A' for Active; 'I' for Inactive)
REMARK    1  A    between atoms: C_12  and  C_13
REMARK                            x       y       z     vdW  Elec       q    Type
REMARK                         _______ _______ _______ _____ _____    ______ ____
ROOT
ATOM      2  O   UNL     1      14.394   7.697  22.028  0.00  0.00    -0.275 OA
ATOM      3  O   UNL     1       9.920   8.220  16.708  0.00  0.00    -0.253 OA
ATOM      4  N   UNL     1      11.960   8.128  17.878  0.00  0.00    -0.278 N 
ATOM      5  N   UNL     1      13.756   8.543  19.961  0.00  0.00    -0.298 N 
ATOM      6  N   UNL     1      11.975   8.791  15.731  0.00  0.00    -0.297 N 
ATOM      7  C   UNL     1      13.366   8.283  17.550  0.00  0.00    +0.112 C 
ATOM      8  C   UNL     1      14.079   9.092  18.629  0.00  0.00    +0.132 C 
ATOM      9  C   UNL     1      11.573   7.673  19.200  0.00  0.00    +0.128 C 
ATOM     10  C   UNL     1      12.319   8.475  20.264  0.00  0.00    +0.127 C 
ATOM     11  C   UNL     1      13.343   8.934  16.170  0.00  0.00    +0.129 C 
ATOM     13  C   UNL     1      14.688   8.131  20.911  0.00  0.00    +0.219 C 
ATOM     14  C   UNL     1      11.134   8.357  16.772  0.00  0.00    +0.303 C 
ATOM     19  H   UNL     1      11.642   9.048  14.807  0.00  0.00    +0.150 HD
ENDROOT
BRANCH  13  12
ATOM      1  O   UNL     1      17.401   5.649  20.257  0.00  0.00    -0.380 OA
ATOM     12  C   UNL     1      16.135   8.230  20.520  0.00  0.00    +0.079 C 
ATOM     15  C   UNL     1      17.036   7.640  21.604  0.00  0.00    +0.041 C 
ATOM     16  C   UNL     1      16.361   7.554  19.169  0.00  0.00    +0.041 C 
ATOM     17  C   UNL     1      17.073   6.116  21.564  0.00  0.00    +0.160 C 
ATOM     18  C   UNL     1      16.426   6.036  19.291  0.00  0.00    +0.160 C 
ENDBRANCH  13  12
TORSDOF 1
ENDMDL
MODEL 7
REMARK VINA RESULT:      -3.9      1.839      5.927
REMARK  Name = 75536966
REMARK  1 active torsions:
REMARK  status: ('A' for Active; 'I' for Inactive)
REMARK    1  A    between atoms: C_12  and  C_13
REMARK                            x       y       z     vdW  Elec       q    Type
REMARK                         _______ _______ _______ _____ _____    ______ ____
ROOT
ATOM      2  O   UNL     1       0.497   2.112  25.054  0.00  0.00    -0.275 OA
ATOM      3  O   UNL     1      -3.109  -3.852  25.158  0.00  0.00    -0.253 OA
ATOM      4  N   UNL     1      -2.521  -1.634  24.632  0.00  0.00    -0.278 N 
ATOM      5  N   UNL     1      -1.496   0.922  25.024  0.00  0.00    -0.298 N 
ATOM      6  N   UNL     1      -4.584  -2.359  24.109  0.00  0.00    -0.297 N 
ATOM      7  C   UNL     1      -3.123  -0.535  23.900  0.00  0.00    +0.112 C 
ATOM      8  C   UNL     1      -2.917   0.780  24.646  0.00  0.00    +0.132 C 
ATOM      9  C   UNL     1      -1.155  -1.523  25.106  0.00  0.00    +0.128 C 
ATOM     10  C   UNL     1      -0.961  -0.190  25.824  0.00  0.00    +0.127 C 
ATOM     11  C   UNL     1      -4.581  -0.961  23.745  0.00  0.00    +0.129 C 
ATOM     13  C   UNL     1      -0.682   2.006  24.706  0.00  0.00    +0.219 C 
ATOM     14  C   UNL     1      -3.363  -2.751  24.691  0.00  0.00    +0.303 C 
ATOM     19  H   UNL     1      -5.392  -2.968  24.030  0.00  0.00    +0.150 HD
ENDROOT
BRANCH  13  12
ATOM      1  O   UNL     1      -1.821   5.492  25.410  0.00  0.00    -0.380 OA
ATOM     12  C   UNL     1      -1.306   3.096  23.884  0.00  0.00    +0.079 C 
ATOM     15  C   UNL     1      -2.694   3.454  24.413  0.00  0.00    +0.041 C 
ATOM     16  C   UNL     1      -0.386   4.316  23.843  0.00  0.00    +0.041 C 
ATOM     17  C   UNL     1      -2.633   4.346  25.649  0.00  0.00    +0.160 C 
ATOM     18  C   UNL     1      -0.469   5.139  25.124  0.00  0.00    +0.160 C 
ENDBRANCH  13  12
TORSDOF 1
ENDMDL
MODEL 8
REMARK VINA RESULT:      -3.7      2.406      5.422
REMARK  Name = 75536966
REMARK  1 active torsions:
REMARK  status: ('A' for Active; 'I' for Inactive)
REMARK    1  A    between atoms: C_12  and  C_13
REMARK                            x       y       z     vdW  Elec       q    Type
REMARK                         _______ _______ _______ _____ _____    ______ ____
ROOT
ATOM      2  O   UNL     1      -1.975   3.906  24.675  0.00  0.00    -0.275 OA
ATOM      3  O   UNL     1       0.366  -2.616  25.431  0.00  0.00    -0.253 OA
ATOM      4  N   UNL     1      -1.050  -0.832  24.837  0.00  0.00    -0.278 N 
ATOM      5  N   UNL     1      -2.309   1.639  25.053  0.00  0.00    -0.298 N 
ATOM      6  N   UNL     1      -1.861  -2.927  24.759  0.00  0.00    -0.297 N 
ATOM      7  C   UNL     1      -2.382  -0.690  24.277  0.00  0.00    +0.112 C 
ATOM      8  C   UNL     1      -3.144   0.423  24.990  0.00  0.00    +0.132 C 
ATOM      9  C   UNL     1      -0.210   0.339  25.006  0.00  0.00    +0.128 C 
ATOM     10  C   UNL     1      -0.999   1.450  25.693  0.00  0.00    +0.127 C 
ATOM     11  C   UNL     1      -2.987  -2.083  24.434  0.00  0.00    +0.129 C 
ATOM     13  C   UNL     1      -2.683   2.899  24.589  0.00  0.00    +0.219 C 
ATOM     14  C   UNL     1      -0.710  -2.172  25.054  0.00  0.00    +0.303 C 
ATOM     19  H   UNL     1      -1.910  -3.937  24.845  0.00  0.00    +0.150 HD
ENDROOT
BRANCH  13  12
ATOM      1  O   UNL     1      -6.084   3.870  25.786  0.00  0.00    -0.380 OA
ATOM     12  C   UNL     1      -4.035   3.004  23.946  0.00  0.00    +0.079 C 
ATOM     15  C   UNL     1      -5.025   2.036  24.593  0.00  0.00    +0.041 C 
ATOM     16  C   UNL     1      -4.536   4.446  24.007  0.00  0.00    +0.041 C 
ATOM     17  C   UNL     1      -5.558   2.553  25.925  0.00  0.00    +0.160 C 
ATOM     18  C   UNL     1      -5.085   4.804  25.383  0.00  0.00    +0.160 C 
ENDBRANCH  13  12
TORSDOF 1
ENDMDL
MODEL 9
REMARK VINA RESULT:      -3.7      1.518      2.702
REMARK  Name = 75536966
REMARK  1 active torsions:
REMARK  status: ('A' for Active; 'I' for Inactive)
REMARK    1  A    between atoms: C_12  and  C_13
REMARK                            x       y       z     vdW  Elec       q    Type
REMARK                         _______ _______ _______ _____ _____    ______ ____
ROOT
ATOM      2  O   UNL     1      -5.308   0.146  24.591  0.00  0.00    -0.275 OA
ATOM      3  O   UNL     1      -1.963   6.195  25.495  0.00  0.00    -0.253 OA
ATOM      4  N   UNL     1      -2.392   3.992  24.786  0.00  0.00    -0.278 N 
ATOM      5  N   UNL     1      -3.373   1.392  24.906  0.00  0.00    -0.298 N 
ATOM      6  N   UNL     1      -0.302   4.799  24.602  0.00  0.00    -0.297 N 
ATOM      7  C   UNL     1      -1.653   2.948  24.098  0.00  0.00    +0.112 C 
ATOM      8  C   UNL     1      -1.919   1.592  24.744  0.00  0.00    +0.132 C 
ATOM      9  C   UNL     1      -3.808   3.819  25.051  0.00  0.00    +0.128 C 
ATOM     10  C   UNL     1      -4.056   2.446  25.671  0.00  0.00    +0.127 C 
ATOM     11  C   UNL     1      -0.205   3.422  24.176  0.00  0.00    +0.129 C 
ATOM     13  C   UNL     1      -4.096   0.303  24.422  0.00  0.00    +0.219 C 
ATOM     14  C   UNL     1      -1.606   5.126  25.018  0.00  0.00    +0.303 C 
ATOM     19  H   UNL     1       0.487   5.434  24.670  0.00  0.00    +0.150 HD
ENDROOT
BRANCH  13  12
ATOM      1  O   UNL     1      -2.286  -2.838  25.323  0.00  0.00    -0.380 OA
ATOM     12  C   UNL     1      -3.323  -0.726  23.649  0.00  0.00    +0.079 C 
ATOM     15  C   UNL     1      -1.866  -0.774  24.108  0.00  0.00    +0.041 C 
ATOM     16  C   UNL     1      -3.998  -2.091  23.770  0.00  0.00    +0.041 C 
ATOM     17  C   UNL     1      -1.692  -1.545  25.412  0.00  0.00    +0.160 C 
ATOM     18  C   UNL     1      -3.694  -2.764  25.104  0.00  0.00    +0.160 C 
ENDBRANCH  13  12
TORSDOF 1
ENDMDL
MODEL 10
REMARK VINA RESULT:      -3.5     15.585     18.256
REMARK  Name = 75536966
REMARK  1 active torsions:
REMARK  status: ('A' for Active; 'I' for Inactive)
REMARK    1  A    between atoms: C_12  and  C_13
REMARK                            x       y       z     vdW  Elec       q    Type
REMARK                         _______ _______ _______ _____ _____    ______ ____
ROOT
ATOM      2  O   UNL     1      11.435   9.094  19.324  0.00  0.00    -0.275 OA
ATOM      3  O   UNL     1      17.249   5.707  17.503  0.00  0.00    -0.253 OA
ATOM      4  N   UNL     1      15.544   6.598  18.860  0.00  0.00    -0.278 N 
ATOM      5  N   UNL     1      13.620   8.415  19.718  0.00  0.00    -0.298 N 
ATOM      6  N   UNL     1      17.404   5.807  19.842  0.00  0.00    -0.297 N 
ATOM      7  C   UNL     1      15.275   6.690  20.283  0.00  0.00    +0.112 C 
ATOM      8  C   UNL     1      14.726   8.070  20.634  0.00  0.00    +0.132 C 
ATOM      9  C   UNL     1      14.528   7.003  17.906  0.00  0.00    +0.128 C 
ATOM     10  C   UNL     1      13.971   8.372  18.291  0.00  0.00    +0.127 C 
ATOM     11  C   UNL     1      16.619   6.354  20.925  0.00  0.00    +0.129 C 
ATOM     13  C   UNL     1      12.335   8.787  20.109  0.00  0.00    +0.219 C 
ATOM     14  C   UNL     1      16.781   6.001  18.595  0.00  0.00    +0.303 C 
ATOM     19  H   UNL     1      18.328   5.403  19.954  0.00  0.00    +0.150 HD
ENDROOT
BRANCH  13  12
ATOM      1  O   UNL     1      10.196   6.752  22.395  0.00  0.00    -0.380 OA
ATOM     12  C   UNL     1      12.060   8.802  21.585  0.00  0.00    +0.079 C 
ATOM     15  C   UNL     1      10.586   9.092  21.863  0.00  0.00    +0.041 C 
ATOM     16  C   UNL     1      12.505   7.483  22.215  0.00  0.00    +0.041 C 
ATOM     17  C   UNL     1       9.703   7.866  21.655  0.00  0.00    +0.160 C 
ATOM     18  C   UNL     1      11.500   6.363  21.968  0.00  0.00    +0.160 C 
ENDBRANCH  13  12
TORSDOF 1
ENDMDL
