MODEL 1
REMARK VINA RESULT:      17.2      0.000      0.000
REMARK  Name = 9424632
REMARK  4 active torsions:
REMARK  status: ('A' for Active; 'I' for Inactive)
REMARK    1  A    between atoms: N_5  and  C_15
REMARK    2  A    between atoms: N_8  and  C_22
REMARK    3  A    between atoms: N_9  and  C_29
REMARK    4  A    between atoms: C_26  and  C_27
REMARK                            x       y       z     vdW  Elec       q    Type
REMARK                         _______ _______ _______ _____ _____    ______ ____
ROOT
ATOM      2  O   UNL     1      -4.046   5.036  26.921  0.00  0.00    -0.268 OA
ATOM      5  N   UNL     1      -3.705   0.732  24.363  0.00  0.00    -0.298 NA
ATOM      6  N   UNL     1      -3.375   3.839  25.024  0.00  0.00    -0.310 N 
ATOM     10  C   UNL     1      -5.055   2.655  23.491  0.00  0.00    +0.024 C 
ATOM     11  C   UNL     1      -2.662   2.539  22.992  0.00  0.00    +0.052 C 
ATOM     12  C   UNL     1      -4.021   2.919  22.409  0.00  0.00    +0.017 C 
ATOM     13  C   UNL     1      -5.028   1.169  23.905  0.00  0.00    +0.090 C 
ATOM     14  C   UNL     1      -2.665   1.040  23.370  0.00  0.00    +0.094 C 
ATOM     16  C   UNL     1      -4.780   3.601  24.663  0.00  0.00    +0.130 C 
ATOM     17  C   UNL     1      -2.317   3.394  24.210  0.00  0.00    +0.047 A 
ATOM     22  C   UNL     1      -1.043   3.709  24.537  0.00  0.00    +0.055 A 
ATOM     23  C   UNL     1      -3.160   4.608  26.181  0.00  0.00    +0.252 A 
ATOM     24  C   UNL     1      -0.769   4.498  25.714  0.00  0.00    +0.030 A 
ATOM     25  C   UNL     1      -1.749   4.927  26.511  0.00  0.00    +0.072 A 
ENDROOT
BRANCH   5  15
ATOM      3  O   UNL     1      -1.447  -4.864  23.252  0.00  0.00    -0.276 OA
ATOM      7  N   UNL     1      -3.130  -3.439  23.983  0.00  0.00    -0.302 N 
ATOM     15  C   UNL     1      -3.707  -0.691  24.693  0.00  0.00    +0.060 C 
ATOM     18  C   UNL     1      -2.273  -1.235  24.685  0.00  0.00    +0.038 C 
ATOM     19  C   UNL     1      -4.578  -1.463  23.693  0.00  0.00    +0.038 C 
ATOM     20  C   UNL     1      -2.260  -2.744  24.934  0.00  0.00    +0.109 C 
ATOM     21  C   UNL     1      -4.520  -2.966  23.961  0.00  0.00    +0.109 C 
ATOM     26  C   UNL     1      -2.621  -4.486  23.216  0.00  0.00    +0.212 C 
ATOM     27  C   UNL     1      -3.591  -5.181  22.293  0.00  0.00    +0.109 C 
ENDBRANCH   5  15
BRANCH  22   8
ATOM      4  O   UNL     1       0.659   1.524  25.184  0.00  0.00    -0.252 OA
ATOM      8  N   UNL     1       0.049   3.298  23.821  0.00  0.00    -0.268 N 
ATOM      9  N   UNL     1       1.885   2.052  23.254  0.00  0.00    -0.269 N 
ATOM     28  C   UNL     1       0.854   2.214  24.186  0.00  0.00    +0.308 C 
ATOM     35  H   UNL     1       0.156   3.633  22.871  0.00  0.00    +0.156 HD
ATOM     36  H   UNL     1       1.909   2.712  22.481  0.00  0.00    +0.156 HD
BRANCH   9  29
ATOM      1 CL   UNL     1       6.170  -2.013  23.258  0.00  0.00    -0.084 Cl
ATOM     29  C   UNL     1       2.911   1.078  23.254  0.00  0.00    +0.035 A 
ATOM     30  C   UNL     1       2.573  -0.263  23.327  0.00  0.00    +0.025 A 
ATOM     31  C   UNL     1       4.233   1.486  23.183  0.00  0.00    +0.025 A 
ATOM     32  C   UNL     1       3.585  -1.223  23.328  0.00  0.00    +0.022 A 
ATOM     33  C   UNL     1       5.245   0.526  23.184  0.00  0.00    +0.022 A 
ATOM     34  C   UNL     1       4.921  -0.829  23.257  0.00  0.00    +0.041 A 
ENDBRANCH   9  29
ENDBRANCH  22   8
TORSDOF 3
ENDMDL
