MODEL 1
REMARK VINA RESULT:      -2.2      0.000      0.000
REMARK  Name = 11912245
REMARK  10 active torsions:
REMARK  status: ('A' for Active; 'I' for Inactive)
REMARK    1  A    between atoms: S_1  and  C_26
REMARK    2  A    between atoms: S_1  and  C_27
REMARK    3  A    between atoms: O_6  and  C_25
REMARK    4  A    between atoms: O_6  and  C_28
REMARK    5  A    between atoms: O_7  and  C_29
REMARK    6  A    between atoms: N_11  and  C_17
REMARK    7  A    between atoms: C_13  and  C_18
REMARK    8  A    between atoms: C_21  and  C_25
REMARK    9  A    between atoms: C_24  and  C_26
REMARK   10  A    between atoms: C_27  and  C_29
REMARK                            x       y       z     vdW  Elec       q    Type
REMARK                         _______ _______ _______ _____ _____    ______ ____
ROOT
ATOM      3  O   UNL     1      -3.624   4.082  27.176  0.00  0.00    -0.273 OA
ATOM      5  O   UNL     1       1.938   1.148  24.634  0.00  0.00    -0.275 OA
ATOM      9  N   UNL     1      -2.460   3.181  25.375  0.00  0.00    -0.285 N 
ATOM     10  N   UNL     1       0.025   2.399  24.224  0.00  0.00    -0.297 N 
ATOM     13  C   UNL     1      -2.423   2.738  23.971  0.00  0.00    +0.179 C 
ATOM     14  C   UNL     1      -1.037   2.879  23.334  0.00  0.00    +0.139 C 
ATOM     15  C   UNL     1      -1.345   2.743  26.225  0.00  0.00    +0.127 C 
ATOM     16  C   UNL     1       0.002   2.990  25.560  0.00  0.00    +0.127 C 
ATOM     21  C   UNL     1      -3.541   3.840  25.970  0.00  0.00    +0.242 C 
ATOM     24  C   UNL     1       1.030   1.500  23.876  0.00  0.00    +0.226 C 
ENDROOT
BRANCH  13  18
ATOM      2  O   UNL     1      -3.616   0.873  23.071  0.00  0.00    -0.274 OA
ATOM     11  N   UNL     1      -2.424   0.599  25.052  0.00  0.00    -0.302 N 
ATOM     18  C   UNL     1      -2.889   1.311  23.959  0.00  0.00    +0.236 C 
ATOM     30  H   UNL     1      -1.818   1.063  25.722  0.00  0.00    +0.150 HD
BRANCH  11  17
ATOM      4  O   UNL     1      -0.370  -1.194  25.235  0.00  0.00    -0.274 OA
ATOM     12  N   UNL     1      -1.722  -2.904  24.553  0.00  0.00    -0.314 N 
ATOM     17  C   UNL     1      -2.748  -0.784  25.286  0.00  0.00    +0.159 C 
ATOM     19  C   UNL     1      -3.978  -1.195  24.490  0.00  0.00    +0.033 C 
ATOM     20  C   UNL     1      -4.190  -2.695  24.619  0.00  0.00    +0.021 C 
ATOM     22  C   UNL     1      -2.983  -3.418  24.051  0.00  0.00    +0.104 C 
ATOM     23  C   UNL     1      -1.503  -1.614  24.993  0.00  0.00    +0.233 C 
ATOM     31  H   UNL     1      -0.902  -3.485  24.409  0.00  0.00    +0.149 HD
ENDBRANCH  11  17
ENDBRANCH  13  18
BRANCH  21  25
ATOM     25  C   UNL     1      -4.655   4.279  25.052  0.00  0.00    +0.255 C 
BRANCH  25   6
ATOM      6  O   UNL     1      -5.843   3.732  25.573  0.00  0.00    -0.374 OA
ATOM     28  C   UNL     1      -5.922   2.324  25.364  0.00  0.00    +0.194 C 
ENDBRANCH  25   6
ENDBRANCH  21  25
BRANCH  24  26
ATOM     26  C   UNL     1       0.976   0.934  22.479  0.00  0.00    +0.165 C 
BRANCH  26   1
ATOM      1  S   UNL     1       2.186  -0.392  22.377  0.00  0.00    -0.140 S 
BRANCH   1  27
ATOM     27  C   UNL     1       3.695   0.606  22.371  0.00  0.00    +0.189 C 
BRANCH  27  29
ATOM      8  O   UNL     1       5.803   0.479  23.533  0.00  0.00    -0.250 OA
ATOM     29  C   UNL     1       4.701  -0.004  23.304  0.00  0.00    +0.315 C 
BRANCH  29   7
ATOM      7  O   UNL     1       4.253  -1.146  23.884  0.00  0.00    -0.480 OA
ATOM     32  H   UNL     1       3.607  -0.965  24.598  0.00  0.00    +0.295 HD
ENDBRANCH  29   7
ENDBRANCH  27  29
ENDBRANCH   1  27
ENDBRANCH  26   1
ENDBRANCH  24  26
TORSDOF 9
ENDMDL
MODEL 2
REMARK VINA RESULT:      -1.0      2.343      6.354
REMARK  Name = 11912245
REMARK  10 active torsions:
REMARK  status: ('A' for Active; 'I' for Inactive)
REMARK    1  A    between atoms: S_1  and  C_26
REMARK    2  A    between atoms: S_1  and  C_27
REMARK    3  A    between atoms: O_6  and  C_25
REMARK    4  A    between atoms: O_6  and  C_28
REMARK    5  A    between atoms: O_7  and  C_29
REMARK    6  A    between atoms: N_11  and  C_17
REMARK    7  A    between atoms: C_13  and  C_18
REMARK    8  A    between atoms: C_21  and  C_25
REMARK    9  A    between atoms: C_24  and  C_26
REMARK   10  A    between atoms: C_27  and  C_29
REMARK                            x       y       z     vdW  Elec       q    Type
REMARK                         _______ _______ _______ _____ _____    ______ ____
ROOT
ATOM      3  O   UNL     1       1.113  -0.228  21.579  0.00  0.00    -0.273 OA
ATOM      5  O   UNL     1      -3.318   4.354  23.900  0.00  0.00    -0.275 OA
ATOM      9  N   UNL     1       0.245   1.036  23.328  0.00  0.00    -0.285 N 
ATOM     10  N   UNL     1      -1.277   3.284  24.190  0.00  0.00    -0.297 N 
ATOM     13  C   UNL     1       0.186   1.360  24.764  0.00  0.00    +0.179 C 
ATOM     14  C   UNL     1      -0.169   2.825  25.034  0.00  0.00    +0.139 C 
ATOM     15  C   UNL     1      -0.841   1.570  22.496  0.00  0.00    +0.127 C 
ATOM     16  C   UNL     1      -1.081   3.050  22.762  0.00  0.00    +0.127 C 
ATOM     21  C   UNL     1       1.158   0.146  22.753  0.00  0.00    +0.242 C 
ATOM     24  C   UNL     1      -2.422   3.939  24.640  0.00  0.00    +0.226 C 
ENDROOT
BRANCH  13  18
ATOM      2  O   UNL     1      -0.834   0.180  26.574  0.00  0.00    -0.274 OA
ATOM     11  N   UNL     1      -1.686  -0.098  24.426  0.00  0.00    -0.302 N 
ATOM     18  C   UNL     1      -0.824   0.430  25.372  0.00  0.00    +0.236 C 
ATOM     30  H   UNL     1      -1.590   0.189  23.456  0.00  0.00    +0.150 HD
BRANCH  11  17
ATOM      4  O   UNL     1      -0.982  -2.683  24.969  0.00  0.00    -0.274 OA
ATOM     12  N   UNL     1      -3.032  -3.442  24.309  0.00  0.00    -0.314 N 
ATOM     17  C   UNL     1      -2.731  -1.034  24.748  0.00  0.00    +0.159 C 
ATOM     19  C   UNL     1      -3.955  -0.802  23.874  0.00  0.00    +0.033 C 
ATOM     20  C   UNL     1      -4.969  -1.909  24.112  0.00  0.00    +0.021 C 
ATOM     22  C   UNL     1      -4.348  -3.241  23.733  0.00  0.00    +0.104 C 
ATOM     23  C   UNL     1      -2.148  -2.440  24.653  0.00  0.00    +0.233 C 
ATOM     31  H   UNL     1      -2.669  -4.391  24.299  0.00  0.00    +0.149 HD
ENDBRANCH  11  17
ENDBRANCH  13  18
BRANCH  21  25
ATOM     25  C   UNL     1       2.261  -0.364  23.647  0.00  0.00    +0.255 C 
BRANCH  25   6
ATOM      6  O   UNL     1       3.434  -0.374  22.870  0.00  0.00    -0.374 OA
ATOM     28  C   UNL     1       4.050   0.912  22.813  0.00  0.00    +0.194 C 
ENDBRANCH  25   6
ENDBRANCH  21  25
BRANCH  24  26
ATOM     26  C   UNL     1      -2.545   4.135  26.130  0.00  0.00    +0.165 C 
BRANCH  26   1
ATOM      1  S   UNL     1      -4.258   3.825  26.583  0.00  0.00    -0.140 S 
BRANCH   1  27
ATOM     27  C   UNL     1      -4.529   2.311  25.630  0.00  0.00    +0.189 C 
BRANCH  27  29
ATOM      8  O   UNL     1      -6.625   1.698  24.609  0.00  0.00    -0.250 OA
ATOM     29  C   UNL     1      -5.994   1.983  25.620  0.00  0.00    +0.315 C 
BRANCH  29   7
ATOM      7  O   UNL     1      -6.549   2.020  26.858  0.00  0.00    -0.480 OA
ATOM     32  H   UNL     1      -7.528   2.007  26.821  0.00  0.00    +0.295 HD
ENDBRANCH  29   7
ENDBRANCH  27  29
ENDBRANCH   1  27
ENDBRANCH  26   1
ENDBRANCH  24  26
TORSDOF 9
ENDMDL
MODEL 3
REMARK VINA RESULT:      -0.6      2.243      7.514
REMARK  Name = 11912245
REMARK  10 active torsions:
REMARK  status: ('A' for Active; 'I' for Inactive)
REMARK    1  A    between atoms: S_1  and  C_26
REMARK    2  A    between atoms: S_1  and  C_27
REMARK    3  A    between atoms: O_6  and  C_25
REMARK    4  A    between atoms: O_6  and  C_28
REMARK    5  A    between atoms: O_7  and  C_29
REMARK    6  A    between atoms: N_11  and  C_17
REMARK    7  A    between atoms: C_13  and  C_18
REMARK    8  A    between atoms: C_21  and  C_25
REMARK    9  A    between atoms: C_24  and  C_26
REMARK   10  A    between atoms: C_27  and  C_29
REMARK                            x       y       z     vdW  Elec       q    Type
REMARK                         _______ _______ _______ _____ _____    ______ ____
ROOT
ATOM      3  O   UNL     1       3.379  -1.518  23.857  0.00  0.00    -0.273 OA
ATOM      5  O   UNL     1      -3.229  -1.399  25.387  0.00  0.00    -0.275 OA
ATOM      9  N   UNL     1       1.269  -0.565  23.626  0.00  0.00    -0.285 N 
ATOM     10  N   UNL     1      -1.557  -0.806  23.888  0.00  0.00    -0.297 N 
ATOM     13  C   UNL     1       0.402   0.513  23.119  0.00  0.00    +0.179 C 
ATOM     14  C   UNL     1      -1.024   0.044  22.818  0.00  0.00    +0.139 C 
ATOM     15  C   UNL     1       0.683  -1.445  24.646  0.00  0.00    +0.127 C 
ATOM     16  C   UNL     1      -0.700  -1.936  24.240  0.00  0.00    +0.127 C 
ATOM     21  C   UNL     1       2.627  -0.699  23.322  0.00  0.00    +0.242 C 
ATOM     24  C   UNL     1      -2.787  -0.640  24.520  0.00  0.00    +0.226 C 
ENDROOT
BRANCH  13  18
ATOM      2  O   UNL     1       1.255   1.626  25.053  0.00  0.00    -0.274 OA
ATOM     11  N   UNL     1      -0.615   2.504  23.981  0.00  0.00    -0.302 N 
ATOM     18  C   UNL     1       0.416   1.598  24.156  0.00  0.00    +0.236 C 
ATOM     30  H   UNL     1      -1.247   2.387  23.194  0.00  0.00    +0.150 HD
BRANCH  11  17
ATOM      4  O   UNL     1      -2.194   2.132  26.181  0.00  0.00    -0.274 OA
ATOM     12  N   UNL     1      -2.760   4.344  26.222  0.00  0.00    -0.314 N 
ATOM     17  C   UNL     1      -0.837   3.626  24.856  0.00  0.00    +0.159 C 
ATOM     19  C   UNL     1      -1.025   4.908  24.058  0.00  0.00    +0.033 C 
ATOM     20  C   UNL     1      -1.429   6.035  24.993  0.00  0.00    +0.021 C 
ATOM     22  C   UNL     1      -2.747   5.681  25.657  0.00  0.00    +0.104 C 
ATOM     23  C   UNL     1      -2.003   3.280  25.775  0.00  0.00    +0.233 C 
ATOM     31  H   UNL     1      -3.504   4.134  26.880  0.00  0.00    +0.149 HD
ENDBRANCH  11  17
ENDBRANCH  13  18
BRANCH  21  25
ATOM     25  C   UNL     1       3.178   0.220  22.260  0.00  0.00    +0.255 C 
BRANCH  25   6
ATOM      6  O   UNL     1       3.978   1.167  22.925  0.00  0.00    -0.374 OA
ATOM     28  C   UNL     1       5.166   0.586  23.458  0.00  0.00    +0.194 C 
ENDBRANCH  25   6
ENDBRANCH  21  25
BRANCH  24  26
ATOM     26  C   UNL     1      -3.606   0.555  24.099  0.00  0.00    +0.165 C 
BRANCH  26   1
ATOM      1  S   UNL     1      -5.066   0.615  25.147  0.00  0.00    -0.140 S 
BRANCH   1  27
ATOM     27  C   UNL     1      -5.735   2.207  24.605  0.00  0.00    +0.189 C 
BRANCH  27  29
ATOM      8  O   UNL     1      -5.916   4.295  25.794  0.00  0.00    -0.250 OA
ATOM     29  C   UNL     1      -5.997   3.072  25.802  0.00  0.00    +0.315 C 
BRANCH  29   7
ATOM      7  O   UNL     1      -6.351   2.357  26.900  0.00  0.00    -0.480 OA
ATOM     32  H   UNL     1      -6.247   1.392  26.757  0.00  0.00    +0.295 HD
ENDBRANCH  29   7
ENDBRANCH  27  29
ENDBRANCH   1  27
ENDBRANCH  26   1
ENDBRANCH  24  26
TORSDOF 9
ENDMDL
MODEL 4
REMARK VINA RESULT:      -0.6      1.970      4.764
REMARK  Name = 11912245
REMARK  10 active torsions:
REMARK  status: ('A' for Active; 'I' for Inactive)
REMARK    1  A    between atoms: S_1  and  C_26
REMARK    2  A    between atoms: S_1  and  C_27
REMARK    3  A    between atoms: O_6  and  C_25
REMARK    4  A    between atoms: O_6  and  C_28
REMARK    5  A    between atoms: O_7  and  C_29
REMARK    6  A    between atoms: N_11  and  C_17
REMARK    7  A    between atoms: C_13  and  C_18
REMARK    8  A    between atoms: C_21  and  C_25
REMARK    9  A    between atoms: C_24  and  C_26
REMARK   10  A    between atoms: C_27  and  C_29
REMARK                            x       y       z     vdW  Elec       q    Type
REMARK                         _______ _______ _______ _____ _____    ______ ____
ROOT
ATOM      3  O   UNL     1      -6.887   1.379  24.178  0.00  0.00    -0.273 OA
ATOM      5  O   UNL     1      -1.701  -2.936  23.464  0.00  0.00    -0.275 OA
ATOM      9  N   UNL     1      -4.939   0.408  25.001  0.00  0.00    -0.285 N 
ATOM     10  N   UNL     1      -3.053  -1.725  24.913  0.00  0.00    -0.297 N 
ATOM     13  C   UNL     1      -3.871   0.346  26.014  0.00  0.00    +0.179 C 
ATOM     14  C   UNL     1      -3.300  -1.062  26.198  0.00  0.00    +0.139 C 
ATOM     15  C   UNL     1      -4.693  -0.325  23.752  0.00  0.00    +0.127 C 
ATOM     16  C   UNL     1      -4.205  -1.743  24.015  0.00  0.00    +0.127 C 
ATOM     21  C   UNL     1      -6.070   1.227  25.090  0.00  0.00    +0.242 C 
ATOM     24  C   UNL     1      -1.865  -2.347  24.536  0.00  0.00    +0.226 C 
ENDROOT
BRANCH  13  18
ATOM      2  O   UNL     1      -1.625   1.143  25.847  0.00  0.00    -0.274 OA
ATOM     11  N   UNL     1      -3.338   2.392  24.885  0.00  0.00    -0.302 N 
ATOM     18  C   UNL     1      -2.811   1.316  25.579  0.00  0.00    +0.236 C 
ATOM     30  H   UNL     1      -4.339   2.426  24.712  0.00  0.00    +0.150 HD
BRANCH  11  17
ATOM      4  O   UNL     1      -1.703   1.896  22.753  0.00  0.00    -0.274 OA
ATOM     12  N   UNL     1      -0.284   3.574  23.374  0.00  0.00    -0.314 N 
ATOM     17  C   UNL     1      -2.534   3.474  24.379  0.00  0.00    +0.159 C 
ATOM     19  C   UNL     1      -1.976   4.314  25.520  0.00  0.00    +0.033 C 
ATOM     20  C   UNL     1      -0.994   5.334  24.967  0.00  0.00    +0.021 C 
ATOM     22  C   UNL     1       0.155   4.605  24.297  0.00  0.00    +0.104 C 
ATOM     23  C   UNL     1      -1.473   2.879  23.459  0.00  0.00    +0.233 C 
ATOM     31  H   UNL     1       0.409   3.220  22.722  0.00  0.00    +0.149 HD
ENDBRANCH  11  17
ENDBRANCH  13  18
BRANCH  21  25
ATOM     25  C   UNL     1      -6.283   1.947  26.398  0.00  0.00    +0.255 C 
BRANCH  25   6
ATOM      6  O   UNL     1      -5.487   3.107  26.351  0.00  0.00    -0.374 OA
ATOM     28  C   UNL     1      -6.119   4.163  25.628  0.00  0.00    +0.194 C 
ENDBRANCH  25   6
ENDBRANCH  21  25
BRANCH  24  26
ATOM     26  C   UNL     1      -0.725  -2.277  25.520  0.00  0.00    +0.165 C 
BRANCH  26   1
ATOM      1  S   UNL     1       0.771  -1.890  24.599  0.00  0.00    -0.140 S 
BRANCH   1  27
ATOM     27  C   UNL     1       0.196  -0.401  23.746  0.00  0.00    +0.189 C 
BRANCH  27  29
ATOM      8  O   UNL     1       1.755  -0.206  21.918  0.00  0.00    -0.250 OA
ATOM     29  C   UNL     1       1.339   0.213  22.991  0.00  0.00    +0.315 C 
BRANCH  29   7
ATOM      7  O   UNL     1       1.857   1.300  23.618  0.00  0.00    -0.480 OA
ATOM     32  H   UNL     1       2.515   1.050  24.300  0.00  0.00    +0.295 HD
ENDBRANCH  29   7
ENDBRANCH  27  29
ENDBRANCH   1  27
ENDBRANCH  26   1
ENDBRANCH  24  26
TORSDOF 9
ENDMDL
MODEL 5
REMARK VINA RESULT:       1.0      2.523      6.265
REMARK  Name = 11912245
REMARK  10 active torsions:
REMARK  status: ('A' for Active; 'I' for Inactive)
REMARK    1  A    between atoms: S_1  and  C_26
REMARK    2  A    between atoms: S_1  and  C_27
REMARK    3  A    between atoms: O_6  and  C_25
REMARK    4  A    between atoms: O_6  and  C_28
REMARK    5  A    between atoms: O_7  and  C_29
REMARK    6  A    between atoms: N_11  and  C_17
REMARK    7  A    between atoms: C_13  and  C_18
REMARK    8  A    between atoms: C_21  and  C_25
REMARK    9  A    between atoms: C_24  and  C_26
REMARK   10  A    between atoms: C_27  and  C_29
REMARK                            x       y       z     vdW  Elec       q    Type
REMARK                         _______ _______ _______ _____ _____    ______ ____
ROOT
ATOM      3  O   UNL     1      -1.056  -3.475  25.496  0.00  0.00    -0.273 OA
ATOM      5  O   UNL     1       0.534   3.040  26.517  0.00  0.00    -0.275 OA
ATOM      9  N   UNL     1      -1.081  -1.256  24.796  0.00  0.00    -0.285 N 
ATOM     10  N   UNL     1      -0.841   1.507  25.444  0.00  0.00    -0.297 N 
ATOM     13  C   UNL     1      -1.365  -0.246  23.763  0.00  0.00    +0.179 C 
ATOM     14  C   UNL     1      -1.735   1.121  24.347  0.00  0.00    +0.139 C 
ATOM     15  C   UNL     1      -0.241  -0.819  25.920  0.00  0.00    +0.127 C 
ATOM     16  C   UNL     1      -0.719   0.505  26.500  0.00  0.00    +0.127 C 
ATOM     21  C   UNL     1      -1.419  -2.610  24.696  0.00  0.00    +0.242 C 
ATOM     24  C   UNL     1      -0.177   2.726  25.559  0.00  0.00    +0.226 C 
ENDROOT
BRANCH  13  18
ATOM      2  O   UNL     1      -0.214   0.018  21.686  0.00  0.00    -0.274 OA
ATOM     11  N   UNL     1       1.026  -0.325  23.626  0.00  0.00    -0.302 N 
ATOM     18  C   UNL     1      -0.140  -0.160  22.899  0.00  0.00    +0.236 C 
ATOM     30  H   UNL     1       0.967  -0.456  24.632  0.00  0.00    +0.150 HD
BRANCH  11  17
ATOM      4  O   UNL     1       2.810  -2.258  24.369  0.00  0.00    -0.274 OA
ATOM     12  N   UNL     1       4.578  -0.905  23.864  0.00  0.00    -0.314 N 
ATOM     17  C   UNL     1       2.336  -0.308  23.029  0.00  0.00    +0.159 C 
ATOM     19  C   UNL     1       2.852   1.118  22.894  0.00  0.00    +0.033 C 
ATOM     20  C   UNL     1       4.298   1.094  22.427  0.00  0.00    +0.021 C 
ATOM     22  C   UNL     1       5.142   0.369  23.459  0.00  0.00    +0.104 C 
ATOM     23  C   UNL     1       3.237  -1.228  23.845  0.00  0.00    +0.233 C 
ATOM     31  H   UNL     1       5.197  -1.542  24.357  0.00  0.00    +0.149 HD
ENDBRANCH  11  17
ENDBRANCH  13  18
BRANCH  21  25
ATOM     25  C   UNL     1      -2.292  -3.005  23.531  0.00  0.00    +0.255 C 
BRANCH  25   6
ATOM      6  O   UNL     1      -3.599  -3.133  24.035  0.00  0.00    -0.374 OA
ATOM     28  C   UNL     1      -4.354  -1.932  23.881  0.00  0.00    +0.194 C 
ENDBRANCH  25   6
ENDBRANCH  21  25
BRANCH  24  26
ATOM     26  C   UNL     1      -0.355   3.701  24.422  0.00  0.00    +0.165 C 
BRANCH  26   1
ATOM      1  S   UNL     1      -1.390   5.048  25.013  0.00  0.00    -0.140 S 
BRANCH   1  27
ATOM     27  C   UNL     1      -2.612   4.080  25.931  0.00  0.00    +0.189 C 
BRANCH  27  29
ATOM      8  O   UNL     1      -3.799   3.871  23.844  0.00  0.00    -0.250 OA
ATOM     29  C   UNL     1      -3.819   3.852  25.069  0.00  0.00    +0.315 C 
BRANCH  29   7
ATOM      7  O   UNL     1      -4.941   3.606  25.791  0.00  0.00    -0.480 OA
ATOM     32  H   UNL     1      -4.969   4.134  26.616  0.00  0.00    +0.295 HD
ENDBRANCH  29   7
ENDBRANCH  27  29
ENDBRANCH   1  27
ENDBRANCH  26   1
ENDBRANCH  24  26
TORSDOF 9
ENDMDL
