MODEL 1
REMARK VINA RESULT:       4.7      0.000      0.000
REMARK  Name = 11879546
REMARK  9 active torsions:
REMARK  status: ('A' for Active; 'I' for Inactive)
REMARK    1  A    between atoms: O_3  and  C_15
REMARK    2  A    between atoms: O_3  and  C_19
REMARK    3  A    between atoms: N_5  and  C_14
REMARK    4  A    between atoms: N_9  and  C_26
REMARK    5  A    between atoms: N_10  and  C_25
REMARK    6  A    between atoms: N_10  and  C_29
REMARK    7  A    between atoms: N_10  and  C_30
REMARK    8  A    between atoms: C_18  and  C_20
REMARK    9  A    between atoms: C_31  and  C_34
REMARK                            x       y       z     vdW  Elec       q    Type
REMARK                         _______ _______ _______ _____ _____    ______ ____
ROOT
ATOM      1  O   UNL     1      -2.193   3.599  24.739  0.00  0.00    -0.368 OA
ATOM      2  O   UNL     1      -3.332   2.448  22.106  0.00  0.00    -0.368 OA
ATOM     12  C   UNL     1      -3.589   2.136  23.493  0.00  0.00    +0.177 C 
ATOM     13  C   UNL     1      -2.266   2.261  24.222  0.00  0.00    +0.192 C 
ATOM     14  C   UNL     1      -4.464   3.214  24.102  0.00  0.00    +0.168 C 
ATOM     15  C   UNL     1      -1.257   2.032  23.124  0.00  0.00    +0.235 C 
ATOM     16  C   UNL     1      -3.449   4.265  24.537  0.00  0.00    +0.190 C 
ATOM     17  C   UNL     1      -1.926   2.682  21.935  0.00  0.00    +0.207 C 
ENDROOT
BRANCH  14   5
ATOM      5  N   UNL     1      -5.329   2.699  25.166  0.00  0.00    -0.217 N 
ATOM      6  N   UNL     1      -6.252   3.486  25.730  0.00  0.00    -0.043 NA
ATOM      7  N   UNL     1      -6.297   1.453  26.644  0.00  0.00    -0.108 NA
ATOM      8  N   UNL     1      -6.843   2.716  26.637  0.00  0.00    -0.023 NA
ATOM     18  C   UNL     1      -5.361   1.466  25.724  0.00  0.00    +0.182 A 
BRANCH  18  20
ATOM     20  C   UNL     1      -4.498   0.374  25.350  0.00  0.00    +0.021 A 
ATOM     21  C   UNL     1      -4.815  -0.422  24.247  0.00  0.00    +0.013 A 
ATOM     22  C   UNL     1      -3.343   0.111  26.088  0.00  0.00    +0.013 A 
ATOM     23  C   UNL     1      -3.978  -1.477  23.885  0.00  0.00    +0.024 A 
ATOM     24  C   UNL     1      -2.506  -0.945  25.725  0.00  0.00    +0.024 A 
ATOM     25  C   UNL     1      -2.824  -1.739  24.623  0.00  0.00    +0.029 A 
BRANCH  25  10
ATOM     10  N   UNL     1      -1.979  -2.806  24.256  0.00  0.00    -0.336 N 
ATOM     29  C   UNL     1      -2.478  -3.887  23.427  0.00  0.00    +0.129 C 
ATOM     30  C   UNL     1      -0.604  -2.845  24.713  0.00  0.00    +0.129 C 
ENDBRANCH  25  10
ENDBRANCH  18  20
ENDBRANCH  14   5
BRANCH  15   3
ATOM      3  O   UNL     1       0.008   2.592  23.393  0.00  0.00    -0.442 OA
BRANCH   3  19
ATOM      4  O   UNL     1       0.965   1.674  25.256  0.00  0.00    -0.226 OA
ATOM      9  N   UNL     1       1.731   1.166  23.103  0.00  0.00    -0.251 N 
ATOM     19  C   UNL     1       0.923   1.785  24.038  0.00  0.00    +0.405 C 
ATOM     35  H   UNL     1       1.540   1.387  22.128  0.00  0.00    +0.158 HD
BRANCH   9  26
ATOM     26  C   UNL     1       2.793   0.263  23.333  0.00  0.00    +0.038 A 
ATOM     27  C   UNL     1       4.098   0.726  23.304  0.00  0.00    +0.042 A 
ATOM     28  C   UNL     1       2.507  -1.070  23.583  0.00  0.00    +0.023 A 
ATOM     31  C   UNL     1       5.146  -0.166  23.530  0.00  0.00    +0.054 A 
ATOM     32  C   UNL     1       3.555  -1.963  23.810  0.00  0.00    +0.003 A 
ATOM     33  C   UNL     1       4.875  -1.510  23.784  0.00  0.00    +0.019 A 
BRANCH  31  34
ATOM     11  N   UNL     1       7.598   0.671  23.482  0.00  0.00    -0.191 NA
ATOM     34  C   UNL     1       6.498   0.296  23.504  0.00  0.00    +0.099 C 
ENDBRANCH  31  34
ENDBRANCH   9  26
ENDBRANCH   3  19
ENDBRANCH  15   3
TORSDOF 7
ENDMDL
MODEL 2
REMARK VINA RESULT:       5.4      2.298      4.613
REMARK  Name = 11879546
REMARK  9 active torsions:
REMARK  status: ('A' for Active; 'I' for Inactive)
REMARK    1  A    between atoms: O_3  and  C_15
REMARK    2  A    between atoms: O_3  and  C_19
REMARK    3  A    between atoms: N_5  and  C_14
REMARK    4  A    between atoms: N_9  and  C_26
REMARK    5  A    between atoms: N_10  and  C_25
REMARK    6  A    between atoms: N_10  and  C_29
REMARK    7  A    between atoms: N_10  and  C_30
REMARK    8  A    between atoms: C_18  and  C_20
REMARK    9  A    between atoms: C_31  and  C_34
REMARK                            x       y       z     vdW  Elec       q    Type
REMARK                         _______ _______ _______ _____ _____    ______ ____
ROOT
ATOM      1  O   UNL     1      -2.555  -0.188  24.927  0.00  0.00    -0.368 OA
ATOM      2  O   UNL     1      -4.839  -1.844  23.663  0.00  0.00    -0.368 OA
ATOM     12  C   UNL     1      -4.790  -0.990  24.827  0.00  0.00    +0.177 C 
ATOM     13  C   UNL     1      -3.429  -1.194  25.463  0.00  0.00    +0.192 C 
ATOM     14  C   UNL     1      -4.792   0.462  24.390  0.00  0.00    +0.168 C 
ATOM     15  C   UNL     1      -3.044  -2.575  24.991  0.00  0.00    +0.235 C 
ATOM     16  C   UNL     1      -3.314   0.739  24.136  0.00  0.00    +0.190 C 
ATOM     17  C   UNL     1      -3.625  -2.607  23.596  0.00  0.00    +0.207 C 
ENDROOT
BRANCH  14   5
ATOM      5  N   UNL     1      -5.435   1.341  25.370  0.00  0.00    -0.217 N 
ATOM      6  N   UNL     1      -6.578   0.977  25.961  0.00  0.00    -0.043 NA
ATOM      7  N   UNL     1      -5.927   2.980  26.693  0.00  0.00    -0.108 NA
ATOM      8  N   UNL     1      -6.875   1.986  26.771  0.00  0.00    -0.023 NA
ATOM     18  C   UNL     1      -5.044   2.558  25.817  0.00  0.00    +0.182 A 
BRANCH  18  20
ATOM     20  C   UNL     1      -3.854   3.246  25.386  0.00  0.00    +0.021 A 
ATOM     21  C   UNL     1      -2.699   3.208  26.170  0.00  0.00    +0.013 A 
ATOM     22  C   UNL     1      -3.853   3.952  24.181  0.00  0.00    +0.013 A 
ATOM     23  C   UNL     1      -1.548   3.873  25.750  0.00  0.00    +0.024 A 
ATOM     24  C   UNL     1      -2.700   4.618  23.762  0.00  0.00    +0.024 A 
ATOM     25  C   UNL     1      -1.548   4.578  24.547  0.00  0.00    +0.029 A 
BRANCH  25  10
ATOM     10  N   UNL     1      -0.383   5.251  24.124  0.00  0.00    -0.336 N 
ATOM     29  C   UNL     1       0.276   6.200  25.001  0.00  0.00    +0.129 C 
ATOM     30  C   UNL     1       0.163   5.014  22.803  0.00  0.00    +0.129 C 
ENDBRANCH  25  10
ENDBRANCH  18  20
ENDBRANCH  14   5
BRANCH  15   3
ATOM      3  O   UNL     1      -1.654  -2.805  24.992  0.00  0.00    -0.442 OA
BRANCH   3  19
ATOM      4  O   UNL     1      -0.677  -1.196  26.290  0.00  0.00    -0.226 OA
ATOM      9  N   UNL     1      -0.282  -1.324  23.986  0.00  0.00    -0.251 N 
ATOM     19  C   UNL     1      -0.841  -1.708  25.190  0.00  0.00    +0.405 C 
ATOM     35  H   UNL     1      -0.541  -1.879  23.174  0.00  0.00    +0.158 HD
BRANCH   9  26
ATOM     26  C   UNL     1       0.605  -0.252  23.742  0.00  0.00    +0.038 A 
ATOM     27  C   UNL     1       1.929  -0.521  23.436  0.00  0.00    +0.042 A 
ATOM     28  C   UNL     1       0.133   1.050  23.814  0.00  0.00    +0.023 A 
ATOM     31  C   UNL     1       2.805   0.538  23.195  0.00  0.00    +0.054 A 
ATOM     32  C   UNL     1       1.009   2.109  23.573  0.00  0.00    +0.003 A 
ATOM     33  C   UNL     1       2.345   1.852  23.263  0.00  0.00    +0.019 A 
BRANCH  31  34
ATOM     11  N   UNL     1       5.286   0.064  22.618  0.00  0.00    -0.191 NA
ATOM     34  C   UNL     1       4.174   0.276  22.877  0.00  0.00    +0.099 C 
ENDBRANCH  31  34
ENDBRANCH   9  26
ENDBRANCH   3  19
ENDBRANCH  15   3
TORSDOF 7
ENDMDL
MODEL 3
REMARK VINA RESULT:       5.6      1.840      4.452
REMARK  Name = 11879546
REMARK  9 active torsions:
REMARK  status: ('A' for Active; 'I' for Inactive)
REMARK    1  A    between atoms: O_3  and  C_15
REMARK    2  A    between atoms: O_3  and  C_19
REMARK    3  A    between atoms: N_5  and  C_14
REMARK    4  A    between atoms: N_9  and  C_26
REMARK    5  A    between atoms: N_10  and  C_25
REMARK    6  A    between atoms: N_10  and  C_29
REMARK    7  A    between atoms: N_10  and  C_30
REMARK    8  A    between atoms: C_18  and  C_20
REMARK    9  A    between atoms: C_31  and  C_34
REMARK                            x       y       z     vdW  Elec       q    Type
REMARK                         _______ _______ _______ _____ _____    ______ ____
ROOT
ATOM      1  O   UNL     1       0.257  -0.341  23.602  0.00  0.00    -0.368 OA
ATOM      2  O   UNL     1      -0.681   1.195  26.115  0.00  0.00    -0.368 OA
ATOM     12  C   UNL     1      -1.407   0.534  25.055  0.00  0.00    +0.177 C 
ATOM     13  C   UNL     1      -0.630   0.775  23.776  0.00  0.00    +0.192 C 
ATOM     14  C   UNL     1      -1.346  -0.967  25.259  0.00  0.00    +0.168 C 
ATOM     15  C   UNL     1       0.126   2.046  24.080  0.00  0.00    +0.235 C 
ATOM     16  C   UNL     1      -0.033  -1.347  24.584  0.00  0.00    +0.190 C 
ATOM     17  C   UNL     1       0.444   1.883  25.548  0.00  0.00    +0.207 C 
ENDROOT
BRANCH  14   5
ATOM      5  N   UNL     1      -2.536  -1.651  24.746  0.00  0.00    -0.217 N 
ATOM      6  N   UNL     1      -2.526  -2.974  24.549  0.00  0.00    -0.043 NA
ATOM      7  N   UNL     1      -4.510  -2.119  23.995  0.00  0.00    -0.108 NA
ATOM      8  N   UNL     1      -3.740  -3.255  24.088  0.00  0.00    -0.023 NA
ATOM     18  C   UNL     1      -3.742  -1.136  24.409  0.00  0.00    +0.182 A 
BRANCH  18  20
ATOM     20  C   UNL     1      -4.093   0.258  24.499  0.00  0.00    +0.021 A 
ATOM     21  C   UNL     1      -4.888   0.713  25.553  0.00  0.00    +0.013 A 
ATOM     22  C   UNL     1      -3.637   1.157  23.533  0.00  0.00    +0.013 A 
ATOM     23  C   UNL     1      -5.224   2.064  25.641  0.00  0.00    +0.024 A 
ATOM     24  C   UNL     1      -3.975   2.508  23.622  0.00  0.00    +0.024 A 
ATOM     25  C   UNL     1      -4.769   2.961  24.676  0.00  0.00    +0.029 A 
BRANCH  25  10
ATOM     10  N   UNL     1      -5.111   4.327  24.764  0.00  0.00    -0.336 N 
ATOM     29  C   UNL     1      -4.343   5.324  24.045  0.00  0.00    +0.129 C 
ATOM     30  C   UNL     1      -6.227   4.752  25.585  0.00  0.00    +0.129 C 
ENDBRANCH  25  10
ENDBRANCH  18  20
ENDBRANCH  14   5
BRANCH  15   3
ATOM      3  O   UNL     1       1.289   2.211  23.300  0.00  0.00    -0.442 OA
BRANCH   3  19
ATOM      4  O   UNL     1       1.563   0.241  22.173  0.00  0.00    -0.226 OA
ATOM      9  N   UNL     1       3.178   1.036  23.670  0.00  0.00    -0.251 N 
ATOM     19  C   UNL     1       1.986   1.067  22.971  0.00  0.00    +0.405 C 
ATOM     35  H   UNL     1       3.354   1.821  24.292  0.00  0.00    +0.158 HD
BRANCH   9  26
ATOM     26  C   UNL     1       4.184   0.045  23.629  0.00  0.00    +0.038 A 
ATOM     27  C   UNL     1       5.498   0.419  23.400  0.00  0.00    +0.042 A 
ATOM     28  C   UNL     1       3.837  -1.284  23.819  0.00  0.00    +0.023 A 
ATOM     31  C   UNL     1       6.491  -0.560  23.359  0.00  0.00    +0.054 A 
ATOM     32  C   UNL     1       4.830  -2.262  23.779  0.00  0.00    +0.003 A 
ATOM     33  C   UNL     1       6.157  -1.900  23.549  0.00  0.00    +0.019 A 
BRANCH  31  34
ATOM     11  N   UNL     1       8.957   0.110  22.932  0.00  0.00    -0.191 NA
ATOM     34  C   UNL     1       7.852  -0.190  23.124  0.00  0.00    +0.099 C 
ENDBRANCH  31  34
ENDBRANCH   9  26
ENDBRANCH   3  19
ENDBRANCH  15   3
TORSDOF 7
ENDMDL
MODEL 4
REMARK VINA RESULT:       6.1      2.836      7.893
REMARK  Name = 11879546
REMARK  9 active torsions:
REMARK  status: ('A' for Active; 'I' for Inactive)
REMARK    1  A    between atoms: O_3  and  C_15
REMARK    2  A    between atoms: O_3  and  C_19
REMARK    3  A    between atoms: N_5  and  C_14
REMARK    4  A    between atoms: N_9  and  C_26
REMARK    5  A    between atoms: N_10  and  C_25
REMARK    6  A    between atoms: N_10  and  C_29
REMARK    7  A    between atoms: N_10  and  C_30
REMARK    8  A    between atoms: C_18  and  C_20
REMARK    9  A    between atoms: C_31  and  C_34
REMARK                            x       y       z     vdW  Elec       q    Type
REMARK                         _______ _______ _______ _____ _____    ______ ____
ROOT
ATOM      1  O   UNL     1      -2.086  -0.443  24.574  0.00  0.00    -0.368 OA
ATOM      2  O   UNL     1      -0.935  -3.271  25.053  0.00  0.00    -0.368 OA
ATOM     12  C   UNL     1      -0.596  -2.234  24.107  0.00  0.00    +0.177 C 
ATOM     13  C   UNL     1      -1.897  -1.568  23.702  0.00  0.00    +0.192 C 
ATOM     14  C   UNL     1       0.187  -1.142  24.809  0.00  0.00    +0.168 C 
ATOM     15  C   UNL     1      -2.919  -2.650  23.959  0.00  0.00    +0.235 C 
ATOM     16  C   UNL     1      -0.912  -0.251  25.377  0.00  0.00    +0.190 C 
ATOM     17  C   UNL     1      -2.363  -3.326  25.191  0.00  0.00    +0.207 C 
ENDROOT
BRANCH  14   5
ATOM      5  N   UNL     1       1.139  -0.474  23.918  0.00  0.00    -0.217 N 
ATOM      6  N   UNL     1       2.053  -1.182  23.247  0.00  0.00    -0.043 NA
ATOM      7  N   UNL     1       2.256   0.989  22.783  0.00  0.00    -0.108 NA
ATOM      8  N   UNL     1       2.735  -0.279  22.551  0.00  0.00    -0.023 NA
ATOM     18  C   UNL     1       1.266   0.844  23.633  0.00  0.00    +0.182 A 
BRANCH  18  20
ATOM     20  C   UNL     1       0.439   1.886  24.187  0.00  0.00    +0.021 A 
ATOM     21  C   UNL     1      -0.477   2.558  23.376  0.00  0.00    +0.013 A 
ATOM     22  C   UNL     1       0.552   2.225  25.537  0.00  0.00    +0.013 A 
ATOM     23  C   UNL     1      -1.278   3.565  23.914  0.00  0.00    +0.024 A 
ATOM     24  C   UNL     1      -0.249   3.233  26.074  0.00  0.00    +0.024 A 
ATOM     25  C   UNL     1      -1.165   3.903  25.262  0.00  0.00    +0.029 A 
BRANCH  25  10
ATOM     10  N   UNL     1      -1.974   4.922  25.805  0.00  0.00    -0.336 N 
ATOM     29  C   UNL     1      -2.900   4.629  26.882  0.00  0.00    +0.129 C 
ATOM     30  C   UNL     1      -1.901   6.273  25.286  0.00  0.00    +0.129 C 
ENDBRANCH  25  10
ENDBRANCH  18  20
ENDBRANCH  14   5
BRANCH  15   3
ATOM      3  O   UNL     1      -4.222  -2.157  24.167  0.00  0.00    -0.442 OA
BRANCH   3  19
ATOM      4  O   UNL     1      -4.055  -1.063  26.169  0.00  0.00    -0.226 OA
ATOM      9  N   UNL     1      -4.835   0.013  24.242  0.00  0.00    -0.251 N 
ATOM     19  C   UNL     1      -4.347  -1.049  24.980  0.00  0.00    +0.405 C 
ATOM     35  H   UNL     1      -5.020  -0.172  23.258  0.00  0.00    +0.158 HD
BRANCH   9  26
ATOM     26  C   UNL     1      -5.110   1.326  24.684  0.00  0.00    +0.038 A 
ATOM     27  C   UNL     1      -4.632   2.404  23.955  0.00  0.00    +0.042 A 
ATOM     28  C   UNL     1      -5.853   1.511  25.839  0.00  0.00    +0.023 A 
ATOM     31  C   UNL     1      -4.905   3.700  24.392  0.00  0.00    +0.054 A 
ATOM     32  C   UNL     1      -6.125   2.808  26.277  0.00  0.00    +0.003 A 
ATOM     33  C   UNL     1      -5.651   3.902  25.553  0.00  0.00    +0.019 A 
BRANCH  31  34
ATOM     11  N   UNL     1      -4.025   5.733  23.049  0.00  0.00    -0.191 NA
ATOM     34  C   UNL     1      -4.419   4.822  23.652  0.00  0.00    +0.099 C 
ENDBRANCH  31  34
ENDBRANCH   9  26
ENDBRANCH   3  19
ENDBRANCH  15   3
TORSDOF 7
ENDMDL
MODEL 5
REMARK VINA RESULT:       6.3      1.472      2.187
REMARK  Name = 11879546
REMARK  9 active torsions:
REMARK  status: ('A' for Active; 'I' for Inactive)
REMARK    1  A    between atoms: O_3  and  C_15
REMARK    2  A    between atoms: O_3  and  C_19
REMARK    3  A    between atoms: N_5  and  C_14
REMARK    4  A    between atoms: N_9  and  C_26
REMARK    5  A    between atoms: N_10  and  C_25
REMARK    6  A    between atoms: N_10  and  C_29
REMARK    7  A    between atoms: N_10  and  C_30
REMARK    8  A    between atoms: C_18  and  C_20
REMARK    9  A    between atoms: C_31  and  C_34
REMARK                            x       y       z     vdW  Elec       q    Type
REMARK                         _______ _______ _______ _____ _____    ______ ____
ROOT
ATOM      1  O   UNL     1      -2.037   2.688  24.608  0.00  0.00    -0.368 OA
ATOM      2  O   UNL     1      -2.879   5.128  26.310  0.00  0.00    -0.368 OA
ATOM     12  C   UNL     1      -3.605   4.301  25.373  0.00  0.00    +0.177 C 
ATOM     13  C   UNL     1      -2.637   3.946  24.261  0.00  0.00    +0.192 C 
ATOM     14  C   UNL     1      -3.941   2.974  26.023  0.00  0.00    +0.168 C 
ATOM     15  C   UNL     1      -1.637   5.076  24.317  0.00  0.00    +0.235 C 
ATOM     16  C   UNL     1      -2.687   2.146  25.767  0.00  0.00    +0.190 C 
ATOM     17  C   UNL     1      -1.557   5.357  25.800  0.00  0.00    +0.207 C 
ENDROOT
BRANCH  14   5
ATOM      5  N   UNL     1      -5.188   2.399  25.511  0.00  0.00    -0.217 N 
ATOM      6  N   UNL     1      -6.316   3.117  25.510  0.00  0.00    -0.043 NA
ATOM      7  N   UNL     1      -6.684   1.086  24.665  0.00  0.00    -0.108 NA
ATOM      8  N   UNL     1      -7.231   2.306  24.990  0.00  0.00    -0.023 NA
ATOM     18  C   UNL     1      -5.416   1.167  24.997  0.00  0.00    +0.182 A 
BRANCH  18  20
ATOM     20  C   UNL     1      -4.415   0.141  24.852  0.00  0.00    +0.021 A 
ATOM     21  C   UNL     1      -3.767  -0.037  23.628  0.00  0.00    +0.013 A 
ATOM     22  C   UNL     1      -4.091  -0.677  25.936  0.00  0.00    +0.013 A 
ATOM     23  C   UNL     1      -2.797  -1.030  23.490  0.00  0.00    +0.024 A 
ATOM     24  C   UNL     1      -3.121  -1.670  25.797  0.00  0.00    +0.024 A 
ATOM     25  C   UNL     1      -2.474  -1.846  24.574  0.00  0.00    +0.029 A 
BRANCH  25  10
ATOM     10  N   UNL     1      -1.494  -2.851  24.433  0.00  0.00    -0.336 N 
ATOM     29  C   UNL     1      -0.371  -2.914  25.348  0.00  0.00    +0.129 C 
ATOM     30  C   UNL     1      -1.589  -3.825  23.364  0.00  0.00    +0.129 C 
ENDBRANCH  25  10
ENDBRANCH  18  20
ENDBRANCH  14   5
BRANCH  15   3
ATOM      3  O   UNL     1      -0.380   4.744  23.771  0.00  0.00    -0.442 OA
BRANCH   3  19
ATOM      4  O   UNL     1       0.392   3.384  25.440  0.00  0.00    -0.226 OA
ATOM      9  N   UNL     1       0.574   2.787  23.183  0.00  0.00    -0.251 N 
ATOM     19  C   UNL     1       0.222   3.597  24.246  0.00  0.00    +0.405 C 
ATOM     35  H   UNL     1       0.349   3.139  22.256  0.00  0.00    +0.158 HD
BRANCH   9  26
ATOM     26  C   UNL     1       1.212   1.527  23.224  0.00  0.00    +0.038 A 
ATOM     27  C   UNL     1       2.595   1.463  23.188  0.00  0.00    +0.042 A 
ATOM     28  C   UNL     1       0.440   0.378  23.298  0.00  0.00    +0.023 A 
ATOM     31  C   UNL     1       3.224   0.218  23.227  0.00  0.00    +0.054 A 
ATOM     32  C   UNL     1       1.069  -0.867  23.337  0.00  0.00    +0.003 A 
ATOM     33  C   UNL     1       2.461  -0.946  23.302  0.00  0.00    +0.019 A 
BRANCH  31  34
ATOM     11  N   UNL     1       5.810   0.068  23.163  0.00  0.00    -0.191 NA
ATOM     34  C   UNL     1       4.651   0.136  23.191  0.00  0.00    +0.099 C 
ENDBRANCH  31  34
ENDBRANCH   9  26
ENDBRANCH   3  19
ENDBRANCH  15   3
TORSDOF 7
ENDMDL
MODEL 6
REMARK VINA RESULT:       7.3      1.737      4.476
REMARK  Name = 11879546
REMARK  9 active torsions:
REMARK  status: ('A' for Active; 'I' for Inactive)
REMARK    1  A    between atoms: O_3  and  C_15
REMARK    2  A    between atoms: O_3  and  C_19
REMARK    3  A    between atoms: N_5  and  C_14
REMARK    4  A    between atoms: N_9  and  C_26
REMARK    5  A    between atoms: N_10  and  C_25
REMARK    6  A    between atoms: N_10  and  C_29
REMARK    7  A    between atoms: N_10  and  C_30
REMARK    8  A    between atoms: C_18  and  C_20
REMARK    9  A    between atoms: C_31  and  C_34
REMARK                            x       y       z     vdW  Elec       q    Type
REMARK                         _______ _______ _______ _____ _____    ______ ____
ROOT
ATOM      1  O   UNL     1      -0.855   0.451  24.118  0.00  0.00    -0.368 OA
ATOM      2  O   UNL     1      -0.948  -0.390  27.092  0.00  0.00    -0.368 OA
ATOM     12  C   UNL     1      -1.944  -0.415  26.045  0.00  0.00    +0.177 C 
ATOM     13  C   UNL     1      -1.722   0.825  25.201  0.00  0.00    +0.192 C 
ATOM     14  C   UNL     1      -1.663  -1.571  25.105  0.00  0.00    +0.168 C 
ATOM     15  C   UNL     1      -1.038   1.766  26.163  0.00  0.00    +0.235 C 
ATOM     16  C   UNL     1      -0.660  -0.971  24.125  0.00  0.00    +0.190 C 
ATOM     17  C   UNL     1      -0.187   0.821  26.980  0.00  0.00    +0.207 C 
ENDROOT
BRANCH  14   5
ATOM      5  N   UNL     1      -2.883  -2.112  24.502  0.00  0.00    -0.217 N 
ATOM      6  N   UNL     1      -2.985  -3.419  24.234  0.00  0.00    -0.043 NA
ATOM      7  N   UNL     1      -4.851  -2.353  23.638  0.00  0.00    -0.108 NA
ATOM      8  N   UNL     1      -4.194  -3.560  23.703  0.00  0.00    -0.023 NA
ATOM     18  C   UNL     1      -4.018  -1.470  24.139  0.00  0.00    +0.182 A 
BRANCH  18  20
ATOM     20  C   UNL     1      -4.243  -0.054  24.290  0.00  0.00    +0.021 A 
ATOM     21  C   UNL     1      -3.711   0.842  23.360  0.00  0.00    +0.013 A 
ATOM     22  C   UNL     1      -4.995   0.423  25.364  0.00  0.00    +0.013 A 
ATOM     23  C   UNL     1      -3.931   2.211  23.506  0.00  0.00    +0.024 A 
ATOM     24  C   UNL     1      -5.214   1.794  25.510  0.00  0.00    +0.024 A 
ATOM     25  C   UNL     1      -4.682   2.687  24.580  0.00  0.00    +0.029 A 
BRANCH  25  10
ATOM     10  N   UNL     1      -4.903   4.072  24.728  0.00  0.00    -0.336 N 
ATOM     29  C   UNL     1      -5.971   4.559  25.580  0.00  0.00    +0.129 C 
ATOM     30  C   UNL     1      -4.076   5.028  24.019  0.00  0.00    +0.129 C 
ENDBRANCH  25  10
ENDBRANCH  18  20
ENDBRANCH  14   5
BRANCH  15   3
ATOM      3  O   UNL     1      -0.268   2.761  25.528  0.00  0.00    -0.442 OA
BRANCH   3  19
ATOM      4  O   UNL     1      -0.074   2.884  23.253  0.00  0.00    -0.226 OA
ATOM      9  N   UNL     1       1.341   1.531  24.536  0.00  0.00    -0.251 N 
ATOM     19  C   UNL     1       0.310   2.426  24.321  0.00  0.00    +0.405 C 
ATOM     35  H   UNL     1       1.511   1.266  25.504  0.00  0.00    +0.158 HD
BRANCH   9  26
ATOM     26  C   UNL     1       2.191   0.936  23.577  0.00  0.00    +0.038 A 
ATOM     27  C   UNL     1       3.544   0.814  23.848  0.00  0.00    +0.042 A 
ATOM     28  C   UNL     1       1.653   0.485  22.381  0.00  0.00    +0.023 A 
ATOM     31  C   UNL     1       4.382   0.227  22.900  0.00  0.00    +0.054 A 
ATOM     32  C   UNL     1       2.491  -0.102  21.433  0.00  0.00    +0.003 A 
ATOM     33  C   UNL     1       3.856  -0.232  21.693  0.00  0.00    +0.019 A 
BRANCH  31  34
ATOM     11  N   UNL     1       6.916  -0.016  23.381  0.00  0.00    -0.191 NA
ATOM     34  C   UNL     1       5.780   0.093  23.166  0.00  0.00    +0.099 C 
ENDBRANCH  31  34
ENDBRANCH   9  26
ENDBRANCH   3  19
ENDBRANCH  15   3
TORSDOF 7
ENDMDL
MODEL 7
REMARK VINA RESULT:       8.1      1.276      1.719
REMARK  Name = 11879546
REMARK  9 active torsions:
REMARK  status: ('A' for Active; 'I' for Inactive)
REMARK    1  A    between atoms: O_3  and  C_15
REMARK    2  A    between atoms: O_3  and  C_19
REMARK    3  A    between atoms: N_5  and  C_14
REMARK    4  A    between atoms: N_9  and  C_26
REMARK    5  A    between atoms: N_10  and  C_25
REMARK    6  A    between atoms: N_10  and  C_29
REMARK    7  A    between atoms: N_10  and  C_30
REMARK    8  A    between atoms: C_18  and  C_20
REMARK    9  A    between atoms: C_31  and  C_34
REMARK                            x       y       z     vdW  Elec       q    Type
REMARK                         _______ _______ _______ _____ _____    ______ ____
ROOT
ATOM      1  O   UNL     1      -1.771   1.405  24.835  0.00  0.00    -0.368 OA
ATOM      2  O   UNL     1      -1.020   4.326  24.157  0.00  0.00    -0.368 OA
ATOM     12  C   UNL     1      -2.285   3.629  24.174  0.00  0.00    +0.177 C 
ATOM     13  C   UNL     1      -2.016   2.221  23.679  0.00  0.00    +0.192 C 
ATOM     14  C   UNL     1      -2.744   3.447  25.607  0.00  0.00    +0.168 C 
ATOM     15  C   UNL     1      -0.769   2.394  22.845  0.00  0.00    +0.235 C 
ATOM     16  C   UNL     1      -2.040   2.160  26.026  0.00  0.00    +0.190 C 
ATOM     17  C   UNL     1      -0.017   3.455  23.614  0.00  0.00    +0.207 C 
ENDROOT
BRANCH  14   5
ATOM      5  N   UNL     1      -4.204   3.431  25.730  0.00  0.00    -0.217 N 
ATOM      6  N   UNL     1      -4.870   4.547  26.049  0.00  0.00    -0.043 NA
ATOM      7  N   UNL     1      -6.285   2.846  25.775  0.00  0.00    -0.108 NA
ATOM      8  N   UNL     1      -6.146   4.182  26.075  0.00  0.00    -0.023 NA
ATOM     18  C   UNL     1      -5.068   2.402  25.565  0.00  0.00    +0.182 A 
BRANCH  18  20
ATOM     20  C   UNL     1      -4.684   1.057  25.217  0.00  0.00    +0.021 A 
ATOM     21  C   UNL     1      -4.705   0.646  23.883  0.00  0.00    +0.013 A 
ATOM     22  C   UNL     1      -4.288   0.164  26.214  0.00  0.00    +0.013 A 
ATOM     23  C   UNL     1      -4.331  -0.655  23.548  0.00  0.00    +0.024 A 
ATOM     24  C   UNL     1      -3.914  -1.138  25.878  0.00  0.00    +0.024 A 
ATOM     25  C   UNL     1      -3.936  -1.547  24.545  0.00  0.00    +0.029 A 
BRANCH  25  10
ATOM     10  N   UNL     1      -3.559  -2.863  24.205  0.00  0.00    -0.336 N 
ATOM     29  C   UNL     1      -2.195  -3.311  24.407  0.00  0.00    +0.129 C 
ATOM     30  C   UNL     1      -4.527  -3.781  23.638  0.00  0.00    +0.129 C 
ENDBRANCH  25  10
ENDBRANCH  18  20
ENDBRANCH  14   5
BRANCH  15   3
ATOM      3  O   UNL     1      -0.018   1.210  22.700  0.00  0.00    -0.442 OA
BRANCH   3  19
ATOM      4  O   UNL     1       1.216   1.621  24.580  0.00  0.00    -0.226 OA
ATOM      9  N   UNL     1       2.042   0.302  22.831  0.00  0.00    -0.251 N 
ATOM     19  C   UNL     1       1.111   1.089  23.482  0.00  0.00    +0.405 C 
ATOM     35  H   UNL     1       1.769  -0.053  21.917  0.00  0.00    +0.158 HD
BRANCH   9  26
ATOM     26  C   UNL     1       3.330  -0.072  23.276  0.00  0.00    +0.038 A 
ATOM     27  C   UNL     1       4.291   0.906  23.475  0.00  0.00    +0.042 A 
ATOM     28  C   UNL     1       3.607  -1.411  23.505  0.00  0.00    +0.023 A 
ATOM     31  C   UNL     1       5.563   0.536  23.914  0.00  0.00    +0.054 A 
ATOM     32  C   UNL     1       4.878  -1.781  23.944  0.00  0.00    +0.003 A 
ATOM     33  C   UNL     1       5.856  -0.807  24.149  0.00  0.00    +0.019 A 
BRANCH  31  34
ATOM     11  N   UNL     1       7.381   2.342  24.295  0.00  0.00    -0.191 NA
ATOM     34  C   UNL     1       6.565   1.533  24.124  0.00  0.00    +0.099 C 
ENDBRANCH  31  34
ENDBRANCH   9  26
ENDBRANCH   3  19
ENDBRANCH  15   3
TORSDOF 7
ENDMDL
MODEL 8
REMARK VINA RESULT:       8.5      2.928      4.042
REMARK  Name = 11879546
REMARK  9 active torsions:
REMARK  status: ('A' for Active; 'I' for Inactive)
REMARK    1  A    between atoms: O_3  and  C_15
REMARK    2  A    between atoms: O_3  and  C_19
REMARK    3  A    between atoms: N_5  and  C_14
REMARK    4  A    between atoms: N_9  and  C_26
REMARK    5  A    between atoms: N_10  and  C_25
REMARK    6  A    between atoms: N_10  and  C_29
REMARK    7  A    between atoms: N_10  and  C_30
REMARK    8  A    between atoms: C_18  and  C_20
REMARK    9  A    between atoms: C_31  and  C_34
REMARK                            x       y       z     vdW  Elec       q    Type
REMARK                         _______ _______ _______ _____ _____    ______ ____
ROOT
ATOM      1  O   UNL     1      -2.563   3.755  25.343  0.00  0.00    -0.368 OA
ATOM      2  O   UNL     1      -3.304   2.513  22.611  0.00  0.00    -0.368 OA
ATOM     12  C   UNL     1      -3.649   2.151  23.967  0.00  0.00    +0.177 C 
ATOM     13  C   UNL     1      -2.424   2.426  24.818  0.00  0.00    +0.192 C 
ATOM     14  C   UNL     1      -4.701   3.107  24.494  0.00  0.00    +0.168 C 
ATOM     15  C   UNL     1      -1.297   2.336  23.818  0.00  0.00    +0.235 C 
ATOM     16  C   UNL     1      -3.866   4.266  25.026  0.00  0.00    +0.190 C 
ATOM     17  C   UNL     1      -1.928   2.918  22.574  0.00  0.00    +0.207 C 
ENDROOT
BRANCH  14   5
ATOM      5  N   UNL     1      -5.592   2.475  25.471  0.00  0.00    -0.217 N 
ATOM      6  N   UNL     1      -6.561   3.183  26.062  0.00  0.00    -0.043 NA
ATOM      7  N   UNL     1      -6.579   1.076  26.792  0.00  0.00    -0.108 NA
ATOM      8  N   UNL     1      -7.163   2.319  26.871  0.00  0.00    -0.023 NA
ATOM     18  C   UNL     1      -5.607   1.197  25.917  0.00  0.00    +0.182 A 
BRANCH  18  20
ATOM     20  C   UNL     1      -4.697   0.167  25.485  0.00  0.00    +0.021 A 
ATOM     21  C   UNL     1      -3.668  -0.256  26.329  0.00  0.00    +0.013 A 
ATOM     22  C   UNL     1      -4.843  -0.410  24.223  0.00  0.00    +0.013 A 
ATOM     23  C   UNL     1      -2.789  -1.255  25.911  0.00  0.00    +0.024 A 
ATOM     24  C   UNL     1      -3.962  -1.409  23.805  0.00  0.00    +0.024 A 
ATOM     25  C   UNL     1      -2.935  -1.831  24.649  0.00  0.00    +0.029 A 
BRANCH  25  10
ATOM     10  N   UNL     1      -2.045  -2.840  24.227  0.00  0.00    -0.336 N 
ATOM     29  C   UNL     1      -2.517  -3.940  23.409  0.00  0.00    +0.129 C 
ATOM     30  C   UNL     1      -0.649  -2.797  24.615  0.00  0.00    +0.129 C 
ENDBRANCH  25  10
ENDBRANCH  18  20
ENDBRANCH  14   5
BRANCH  15   3
ATOM      3  O   UNL     1      -0.141   3.042  24.207  0.00  0.00    -0.442 OA
BRANCH   3  19
ATOM      4  O   UNL     1       1.319   1.437  24.932  0.00  0.00    -0.226 OA
ATOM      9  N   UNL     1       0.590   3.162  26.337  0.00  0.00    -0.251 N 
ATOM     19  C   UNL     1       0.663   2.446  25.157  0.00  0.00    +0.405 C 
ATOM     35  H   UNL     1      -0.015   3.979  26.330  0.00  0.00    +0.158 HD
BRANCH   9  26
ATOM     26  C   UNL     1       1.253   2.898  27.557  0.00  0.00    +0.038 A 
ATOM     27  C   UNL     1       0.513   2.788  28.723  0.00  0.00    +0.042 A 
ATOM     28  C   UNL     1       2.632   2.755  27.563  0.00  0.00    +0.023 A 
ATOM     31  C   UNL     1       1.167   2.528  29.927  0.00  0.00    +0.054 A 
ATOM     32  C   UNL     1       3.286   2.495  28.767  0.00  0.00    +0.003 A 
ATOM     33  C   UNL     1       2.554   2.381  29.949  0.00  0.00    +0.019 A 
BRANCH  31  34
ATOM     11  N   UNL     1      -0.192   2.316  32.123  0.00  0.00    -0.191 NA
ATOM     34  C   UNL     1       0.418   2.410  31.139  0.00  0.00    +0.099 C 
ENDBRANCH  31  34
ENDBRANCH   9  26
ENDBRANCH   3  19
ENDBRANCH  15   3
TORSDOF 7
ENDMDL
