MODEL 1
REMARK VINA RESULT:      -3.0      0.000      0.000
REMARK  Name = 75536899
REMARK  4 active torsions:
REMARK  status: ('A' for Active; 'I' for Inactive)
REMARK    1  A    between atoms: O_2  and  C_8
REMARK    2  A    between atoms: O_2  and  C_15
REMARK    3  A    between atoms: C_13  and  C_14
REMARK    4  A    between atoms: C_21  and  C_24
REMARK                            x       y       z     vdW  Elec       q    Type
REMARK                         _______ _______ _______ _____ _____    ______ ____
ROOT
ATOM      1  O   UNL     1       1.400  -0.911  23.079  0.00  0.00    -0.375 OA
ATOM      3  O   UNL     1       0.270   3.772  23.388  0.00  0.00    -0.270 OA
ATOM      4  N   UNL     1       0.217   1.665  24.414  0.00  0.00    -0.292 N 
ATOM      8  C   UNL     1      -0.076  -0.798  25.018  0.00  0.00    +0.218 C 
ATOM      9  C   UNL     1      -0.541   0.654  25.161  0.00  0.00    +0.155 C 
ATOM     10  C   UNL     1       1.586   1.347  24.007  0.00  0.00    +0.136 C 
ATOM     11  C   UNL     1       0.101  -1.232  23.564  0.00  0.00    +0.206 C 
ATOM     12  C   UNL     1       1.597   0.464  22.765  0.00  0.00    +0.179 C 
ATOM     13  C   UNL     1      -0.318   2.909  24.040  0.00  0.00    +0.247 C 
ENDROOT
BRANCH  13  14
ATOM     14  C   UNL     1      -1.694   3.229  24.451  0.00  0.00    +0.037 A 
ATOM     16  C   UNL     1      -2.769   2.831  23.656  0.00  0.00    +0.014 A 
ATOM     17  C   UNL     1      -1.923   3.928  25.636  0.00  0.00    +0.014 A 
ATOM     18  C   UNL     1      -4.074   3.134  24.047  0.00  0.00    +0.019 A 
ATOM     19  C   UNL     1      -3.228   4.230  26.026  0.00  0.00    +0.019 A 
ATOM     21  C   UNL     1      -4.304   3.834  25.232  0.00  0.00    +0.052 A 
BRANCH  21  24
ATOM      7  N   UNL     1      -6.725   4.394  25.956  0.00  0.00    -0.191 NA
ATOM     24  C   UNL     1      -5.640   4.143  25.631  0.00  0.00    +0.099 C 
ENDBRANCH  21  24
ENDBRANCH  13  14
BRANCH   8   2
ATOM      2  O   UNL     1      -1.078  -1.613  25.628  0.00  0.00    -0.468 OA
BRANCH   2  15
ATOM      5  N   UNL     1      -3.027  -0.498  25.027  0.00  0.00    -0.219 NA
ATOM      6  N   UNL     1      -3.965  -2.849  23.820  0.00  0.00    -0.256 NA
ATOM     15  C   UNL     1      -2.302  -1.634  25.022  0.00  0.00    +0.234 A 
ATOM     20  C   UNL     1      -2.764  -2.790  24.428  0.00  0.00    +0.177 A 
ATOM     22  C   UNL     1      -4.228  -0.557  24.420  0.00  0.00    +0.134 A 
ATOM     23  C   UNL     1      -4.689  -1.712  23.826  0.00  0.00    +0.130 A 
ENDBRANCH   2  15
ENDBRANCH   8   2
TORSDOF 4
ENDMDL
MODEL 2
REMARK VINA RESULT:      -2.9      2.085      5.299
REMARK  Name = 75536899
REMARK  4 active torsions:
REMARK  status: ('A' for Active; 'I' for Inactive)
REMARK    1  A    between atoms: O_2  and  C_8
REMARK    2  A    between atoms: O_2  and  C_15
REMARK    3  A    between atoms: C_13  and  C_14
REMARK    4  A    between atoms: C_21  and  C_24
REMARK                            x       y       z     vdW  Elec       q    Type
REMARK                         _______ _______ _______ _____ _____    ______ ____
ROOT
ATOM      1  O   UNL     1      -1.199   5.627  24.922  0.00  0.00    -0.375 OA
ATOM      3  O   UNL     1      -5.288   3.065  25.078  0.00  0.00    -0.270 OA
ATOM      4  N   UNL     1      -3.036   3.214  25.711  0.00  0.00    -0.292 N 
ATOM      8  C   UNL     1      -0.499   3.471  25.825  0.00  0.00    +0.218 C 
ATOM      9  C   UNL     1      -1.729   2.561  25.856  0.00  0.00    +0.155 C 
ATOM     10  C   UNL     1      -3.141   4.637  26.036  0.00  0.00    +0.136 C 
ATOM     11  C   UNL     1      -0.487   4.428  24.635  0.00  0.00    +0.206 C 
ATOM     12  C   UNL     1      -2.617   5.499  24.895  0.00  0.00    +0.179 C 
ATOM     13  C   UNL     1      -4.182   2.549  25.244  0.00  0.00    +0.247 C 
ENDROOT
BRANCH  13  14
ATOM     14  C   UNL     1      -4.076   1.119  24.919  0.00  0.00    +0.037 A 
ATOM     16  C   UNL     1      -3.891   0.716  23.595  0.00  0.00    +0.014 A 
ATOM     17  C   UNL     1      -4.159   0.165  25.933  0.00  0.00    +0.014 A 
ATOM     18  C   UNL     1      -3.790  -0.641  23.287  0.00  0.00    +0.019 A 
ATOM     19  C   UNL     1      -4.057  -1.191  25.624  0.00  0.00    +0.019 A 
ATOM     21  C   UNL     1      -3.872  -1.595  24.302  0.00  0.00    +0.052 A 
BRANCH  21  24
ATOM      7  N   UNL     1      -3.683  -4.113  23.730  0.00  0.00    -0.191 NA
ATOM     24  C   UNL     1      -3.768  -2.984  23.986  0.00  0.00    +0.099 C 
ENDBRANCH  21  24
ENDBRANCH  13  14
BRANCH   8   2
ATOM      2  O   UNL     1       0.644   2.617  25.748  0.00  0.00    -0.468 OA
BRANCH   2  15
ATOM      5  N   UNL     1       1.356   1.496  23.840  0.00  0.00    -0.219 NA
ATOM      6  N   UNL     1      -0.487  -0.546  24.389  0.00  0.00    -0.256 NA
ATOM     15  C   UNL     1       0.545   1.537  24.916  0.00  0.00    +0.234 A 
ATOM     20  C   UNL     1      -0.361   0.534  25.185  0.00  0.00    +0.177 A 
ATOM     22  C   UNL     1       1.230   0.416  23.044  0.00  0.00    +0.134 A 
ATOM     23  C   UNL     1       0.325  -0.587  23.314  0.00  0.00    +0.130 A 
ENDBRANCH   2  15
ENDBRANCH   8   2
TORSDOF 4
ENDMDL
MODEL 3
REMARK VINA RESULT:      -2.4      2.600      6.627
REMARK  Name = 75536899
REMARK  4 active torsions:
REMARK  status: ('A' for Active; 'I' for Inactive)
REMARK    1  A    between atoms: O_2  and  C_8
REMARK    2  A    between atoms: O_2  and  C_15
REMARK    3  A    between atoms: C_13  and  C_14
REMARK    4  A    between atoms: C_21  and  C_24
REMARK                            x       y       z     vdW  Elec       q    Type
REMARK                         _______ _______ _______ _____ _____    ______ ____
ROOT
ATOM      1  O   UNL     1      -6.495   3.249  25.348  0.00  0.00    -0.375 OA
ATOM      3  O   UNL     1      -4.571  -0.976  24.025  0.00  0.00    -0.270 OA
ATOM      4  N   UNL     1      -4.359   0.956  25.335  0.00  0.00    -0.292 N 
ATOM      8  C   UNL     1      -4.229   3.335  26.250  0.00  0.00    +0.218 C 
ATOM      9  C   UNL     1      -3.513   2.051  25.825  0.00  0.00    +0.155 C 
ATOM     10  C   UNL     1      -5.770   0.941  25.723  0.00  0.00    +0.136 C 
ATOM     11  C   UNL     1      -5.213   3.851  25.202  0.00  0.00    +0.206 C 
ATOM     12  C   UNL     1      -6.582   1.909  24.873  0.00  0.00    +0.179 C 
ATOM     13  C   UNL     1      -3.890  -0.059  24.484  0.00  0.00    +0.247 C 
ENDROOT
BRANCH  13  14
ATOM     14  C   UNL     1      -2.472  -0.044  24.095  0.00  0.00    +0.037 A 
ATOM     16  C   UNL     1      -1.600  -1.011  24.597  0.00  0.00    +0.014 A 
ATOM     17  C   UNL     1      -1.998   0.936  23.222  0.00  0.00    +0.014 A 
ATOM     18  C   UNL     1      -0.255  -0.997  24.227  0.00  0.00    +0.019 A 
ATOM     19  C   UNL     1      -0.654   0.950  22.853  0.00  0.00    +0.019 A 
ATOM     21  C   UNL     1       0.218  -0.017  23.354  0.00  0.00    +0.052 A 
BRANCH  21  24
ATOM      7  N   UNL     1       2.715   0.009  22.668  0.00  0.00    -0.191 NA
ATOM     24  C   UNL     1       1.596  -0.003  22.975  0.00  0.00    +0.099 C 
ENDBRANCH  21  24
ENDBRANCH  13  14
BRANCH   8   2
ATOM      2  O   UNL     1      -3.217   4.320  26.463  0.00  0.00    -0.468 OA
BRANCH   2  15
ATOM      5  N   UNL     1      -1.269   3.056  26.365  0.00  0.00    -0.219 NA
ATOM      6  N   UNL     1      -0.363   4.670  24.259  0.00  0.00    -0.256 NA
ATOM     15  C   UNL     1      -2.001   4.082  25.887  0.00  0.00    +0.234 A 
ATOM     20  C   UNL     1      -1.555   4.875  24.852  0.00  0.00    +0.177 A 
ATOM     22  C   UNL     1      -0.077   2.851  25.772  0.00  0.00    +0.134 A 
ATOM     23  C   UNL     1       0.369   3.644  24.737  0.00  0.00    +0.130 A 
ENDBRANCH   2  15
ENDBRANCH   8   2
TORSDOF 4
ENDMDL
MODEL 4
REMARK VINA RESULT:      -2.4      2.046      4.476
REMARK  Name = 75536899
REMARK  4 active torsions:
REMARK  status: ('A' for Active; 'I' for Inactive)
REMARK    1  A    between atoms: O_2  and  C_8
REMARK    2  A    between atoms: O_2  and  C_15
REMARK    3  A    between atoms: C_13  and  C_14
REMARK    4  A    between atoms: C_21  and  C_24
REMARK                            x       y       z     vdW  Elec       q    Type
REMARK                         _______ _______ _______ _____ _____    ______ ____
ROOT
ATOM      1  O   UNL     1      -3.775  -3.206  23.672  0.00  0.00    -0.375 OA
ATOM      3  O   UNL     1       0.384  -1.090  24.910  0.00  0.00    -0.270 OA
ATOM      4  N   UNL     1      -1.946  -1.145  25.164  0.00  0.00    -0.292 N 
ATOM      8  C   UNL     1      -4.479  -1.189  24.851  0.00  0.00    +0.218 C 
ATOM      9  C   UNL     1      -3.216  -0.412  25.233  0.00  0.00    +0.155 C 
ATOM     10  C   UNL     1      -1.982  -2.606  25.227  0.00  0.00    +0.136 C 
ATOM     11  C   UNL     1      -4.357  -1.916  23.513  0.00  0.00    +0.206 C 
ATOM     12  C   UNL     1      -2.366  -3.204  23.880  0.00  0.00    +0.179 C 
ATOM     13  C   UNL     1      -0.701  -0.514  25.005  0.00  0.00    +0.247 C 
ENDROOT
BRANCH  13  14
ATOM     14  C   UNL     1      -0.665   0.955  24.942  0.00  0.00    +0.037 A 
ATOM     16  C   UNL     1      -0.627   1.600  23.705  0.00  0.00    +0.014 A 
ATOM     17  C   UNL     1      -0.671   1.704  26.119  0.00  0.00    +0.014 A 
ATOM     18  C   UNL     1      -0.593   2.993  23.646  0.00  0.00    +0.019 A 
ATOM     19  C   UNL     1      -0.639   3.096  26.059  0.00  0.00    +0.019 A 
ATOM     21  C   UNL     1      -0.600   3.742  24.823  0.00  0.00    +0.052 A 
BRANCH  21  24
ATOM      7  N   UNL     1      -0.540   6.328  24.713  0.00  0.00    -0.191 NA
ATOM     24  C   UNL     1      -0.566   5.169  24.762  0.00  0.00    +0.099 C 
ENDBRANCH  21  24
ENDBRANCH  13  14
BRANCH   8   2
ATOM      2  O   UNL     1      -5.540  -0.236  24.767  0.00  0.00    -0.468 OA
BRANCH   2  15
ATOM      5  N   UNL     1      -4.338   1.610  24.023  0.00  0.00    -0.219 NA
ATOM      6  N   UNL     1      -5.397   3.115  26.139  0.00  0.00    -0.256 NA
ATOM     15  C   UNL     1      -5.194   1.078  24.918  0.00  0.00    +0.234 A 
ATOM     20  C   UNL     1      -5.714   1.819  25.958  0.00  0.00    +0.177 A 
ATOM     22  C   UNL     1      -4.021   2.907  24.204  0.00  0.00    +0.134 A 
ATOM     23  C   UNL     1      -4.542   3.647  25.244  0.00  0.00    +0.130 A 
ENDBRANCH   2  15
ENDBRANCH   8   2
TORSDOF 4
ENDMDL
MODEL 5
REMARK VINA RESULT:      -2.3      1.693      4.273
REMARK  Name = 75536899
REMARK  4 active torsions:
REMARK  status: ('A' for Active; 'I' for Inactive)
REMARK    1  A    between atoms: O_2  and  C_8
REMARK    2  A    between atoms: O_2  and  C_15
REMARK    3  A    between atoms: C_13  and  C_14
REMARK    4  A    between atoms: C_21  and  C_24
REMARK                            x       y       z     vdW  Elec       q    Type
REMARK                         _______ _______ _______ _____ _____    ______ ____
ROOT
ATOM      1  O   UNL     1      -0.216  -2.500  25.233  0.00  0.00    -0.375 OA
ATOM      3  O   UNL     1      -4.832  -1.575  24.163  0.00  0.00    -0.270 OA
ATOM      4  N   UNL     1      -2.603  -0.862  24.033  0.00  0.00    -0.292 N 
ATOM      8  C   UNL     1      -0.182  -0.182  24.472  0.00  0.00    +0.218 C 
ATOM      9  C   UNL     1      -1.625   0.225  24.165  0.00  0.00    +0.155 C 
ATOM     10  C   UNL     1      -2.111  -2.202  23.713  0.00  0.00    +0.136 C 
ATOM     11  C   UNL     1      -0.066  -1.147  25.650  0.00  0.00    +0.206 C 
ATOM     12  C   UNL     1      -1.555  -2.893  24.952  0.00  0.00    +0.179 C 
ATOM     13  C   UNL     1      -3.982  -0.687  24.233  0.00  0.00    +0.247 C 
ENDROOT
BRANCH  13  14
ATOM     14  C   UNL     1      -4.475   0.662  24.554  0.00  0.00    +0.037 A 
ATOM     16  C   UNL     1      -5.394   0.840  25.588  0.00  0.00    +0.014 A 
ATOM     17  C   UNL     1      -4.022   1.762  23.825  0.00  0.00    +0.014 A 
ATOM     18  C   UNL     1      -5.861   2.119  25.893  0.00  0.00    +0.019 A 
ATOM     19  C   UNL     1      -4.489   3.040  24.131  0.00  0.00    +0.019 A 
ATOM     21  C   UNL     1      -5.408   3.219  25.164  0.00  0.00    +0.052 A 
BRANCH  21  24
ATOM      7  N   UNL     1      -6.275   5.593  25.730  0.00  0.00    -0.191 NA
ATOM     24  C   UNL     1      -5.887   4.529  25.477  0.00  0.00    +0.099 C 
ENDBRANCH  21  24
ENDBRANCH  13  14
BRANCH   8   2
ATOM      2  O   UNL     1       0.528   1.018  24.782  0.00  0.00    -0.468 OA
BRANCH   2  15
ATOM      5  N   UNL     1      -0.204   3.081  23.998  0.00  0.00    -0.219 NA
ATOM      6  N   UNL     1      -1.732   3.392  26.328  0.00  0.00    -0.256 NA
ATOM     15  C   UNL     1      -0.226   2.144  24.967  0.00  0.00    +0.234 A 
ATOM     20  C   UNL     1      -0.977   2.297  26.112  0.00  0.00    +0.177 A 
ATOM     22  C   UNL     1      -0.959   4.175  24.214  0.00  0.00    +0.134 A 
ATOM     23  C   UNL     1      -1.710   4.328  25.359  0.00  0.00    +0.130 A 
ENDBRANCH   2  15
ENDBRANCH   8   2
TORSDOF 4
ENDMDL
MODEL 6
REMARK VINA RESULT:      -2.1      2.376      5.269
REMARK  Name = 75536899
REMARK  4 active torsions:
REMARK  status: ('A' for Active; 'I' for Inactive)
REMARK    1  A    between atoms: O_2  and  C_8
REMARK    2  A    between atoms: O_2  and  C_15
REMARK    3  A    between atoms: C_13  and  C_14
REMARK    4  A    between atoms: C_21  and  C_24
REMARK                            x       y       z     vdW  Elec       q    Type
REMARK                         _______ _______ _______ _____ _____    ______ ____
ROOT
ATOM      1  O   UNL     1      -6.218   2.724  26.474  0.00  0.00    -0.375 OA
ATOM      3  O   UNL     1      -2.090   4.758  25.016  0.00  0.00    -0.270 OA
ATOM      4  N   UNL     1      -3.756   3.167  24.586  0.00  0.00    -0.292 N 
ATOM      8  C   UNL     1      -5.457   1.265  24.672  0.00  0.00    +0.218 C 
ATOM      9  C   UNL     1      -4.110   1.800  24.182  0.00  0.00    +0.155 C 
ATOM     10  C   UNL     1      -4.834   4.076  24.975  0.00  0.00    +0.136 C 
ATOM     11  C   UNL     1      -5.666   1.446  26.174  0.00  0.00    +0.206 C 
ATOM     12  C   UNL     1      -5.294   3.805  26.402  0.00  0.00    +0.179 C 
ATOM     13  C   UNL     1      -2.433   3.633  24.653  0.00  0.00    +0.247 C 
ENDROOT
BRANCH  13  14
ATOM     14  C   UNL     1      -1.350   2.718  24.261  0.00  0.00    +0.037 A 
ATOM     16  C   UNL     1      -1.572   1.754  23.277  0.00  0.00    +0.014 A 
ATOM     17  C   UNL     1      -0.100   2.815  24.873  0.00  0.00    +0.014 A 
ATOM     18  C   UNL     1      -0.544   0.887  22.905  0.00  0.00    +0.019 A 
ATOM     19  C   UNL     1       0.927   1.948  24.501  0.00  0.00    +0.019 A 
ATOM     21  C   UNL     1       0.706   0.984  23.517  0.00  0.00    +0.052 A 
BRANCH  21  24
ATOM      7  N   UNL     1       2.614  -0.624  22.825  0.00  0.00    -0.191 NA
ATOM     24  C   UNL     1       1.759   0.097  23.135  0.00  0.00    +0.099 C 
ENDBRANCH  21  24
ENDBRANCH  13  14
BRANCH   8   2
ATOM      2  O   UNL     1      -5.484  -0.129  24.363  0.00  0.00    -0.468 OA
BRANCH   2  15
ATOM      5  N   UNL     1      -3.442  -0.339  25.454  0.00  0.00    -0.219 NA
ATOM      6  N   UNL     1      -2.932  -2.674  23.987  0.00  0.00    -0.256 NA
ATOM     15  C   UNL     1      -4.319  -0.819  24.550  0.00  0.00    +0.234 A 
ATOM     20  C   UNL     1      -4.068  -1.967  23.830  0.00  0.00    +0.177 A 
ATOM     22  C   UNL     1      -2.306  -1.046  25.611  0.00  0.00    +0.134 A 
ATOM     23  C   UNL     1      -2.055  -2.193  24.891  0.00  0.00    +0.130 A 
ENDBRANCH   2  15
ENDBRANCH   8   2
TORSDOF 4
ENDMDL
MODEL 7
REMARK VINA RESULT:      -1.0      1.939      5.393
REMARK  Name = 75536899
REMARK  4 active torsions:
REMARK  status: ('A' for Active; 'I' for Inactive)
REMARK    1  A    between atoms: O_2  and  C_8
REMARK    2  A    between atoms: O_2  and  C_15
REMARK    3  A    between atoms: C_13  and  C_14
REMARK    4  A    between atoms: C_21  and  C_24
REMARK                            x       y       z     vdW  Elec       q    Type
REMARK                         _______ _______ _______ _____ _____    ______ ____
ROOT
ATOM      1  O   UNL     1      -1.530   5.673  25.134  0.00  0.00    -0.375 OA
ATOM      3  O   UNL     1       0.982   1.558  24.887  0.00  0.00    -0.270 OA
ATOM      4  N   UNL     1      -0.845   2.796  24.098  0.00  0.00    -0.292 N 
ATOM      8  C   UNL     1      -2.958   4.200  23.813  0.00  0.00    +0.218 C 
ATOM      9  C   UNL     1      -2.266   2.837  23.730  0.00  0.00    +0.155 C 
ATOM     10  C   UNL     1      -0.075   4.038  24.036  0.00  0.00    +0.136 C 
ATOM     11  C   UNL     1      -2.732   4.910  25.146  0.00  0.00    +0.206 C 
ATOM     12  C   UNL     1      -0.336   4.906  25.260  0.00  0.00    +0.179 C 
ATOM     13  C   UNL     1      -0.197   1.630  24.539  0.00  0.00    +0.247 C 
ENDROOT
BRANCH  13  14
ATOM     14  C   UNL     1      -0.971   0.381  24.600  0.00  0.00    +0.037 A 
ATOM     16  C   UNL     1      -2.123   0.312  25.384  0.00  0.00    +0.014 A 
ATOM     17  C   UNL     1      -0.554  -0.734  23.874  0.00  0.00    +0.014 A 
ATOM     18  C   UNL     1      -2.858  -0.873  25.441  0.00  0.00    +0.019 A 
ATOM     19  C   UNL     1      -1.288  -1.918  23.931  0.00  0.00    +0.019 A 
ATOM     21  C   UNL     1      -2.441  -1.988  24.714  0.00  0.00    +0.052 A 
BRANCH  21  24
ATOM      7  N   UNL     1      -3.805  -4.187  24.820  0.00  0.00    -0.191 NA
ATOM     24  C   UNL     1      -3.194  -3.201  24.773  0.00  0.00    +0.099 C 
ENDBRANCH  21  24
ENDBRANCH  13  14
BRANCH   8   2
ATOM      2  O   UNL     1      -4.356   3.963  23.642  0.00  0.00    -0.468 OA
BRANCH   2  15
ATOM      5  N   UNL     1      -5.071   1.831  24.231  0.00  0.00    -0.219 NA
ATOM      6  N   UNL     1      -5.999   2.848  26.673  0.00  0.00    -0.256 NA
ATOM     15  C   UNL     1      -4.951   3.134  24.551  0.00  0.00    +0.234 A 
ATOM     20  C   UNL     1      -5.408   3.634  25.752  0.00  0.00    +0.177 A 
ATOM     22  C   UNL     1      -5.662   1.045  25.151  0.00  0.00    +0.134 A 
ATOM     23  C   UNL     1      -6.118   1.545  26.352  0.00  0.00    +0.130 A 
ENDBRANCH   2  15
ENDBRANCH   8   2
TORSDOF 4
ENDMDL
MODEL 8
REMARK VINA RESULT:       0.1      1.764      5.312
REMARK  Name = 75536899
REMARK  4 active torsions:
REMARK  status: ('A' for Active; 'I' for Inactive)
REMARK    1  A    between atoms: O_2  and  C_8
REMARK    2  A    between atoms: O_2  and  C_15
REMARK    3  A    between atoms: C_13  and  C_14
REMARK    4  A    between atoms: C_21  and  C_24
REMARK                            x       y       z     vdW  Elec       q    Type
REMARK                         _______ _______ _______ _____ _____    ______ ____
ROOT
ATOM      1  O   UNL     1      -0.345   3.775  25.958  0.00  0.00    -0.375 OA
ATOM      3  O   UNL     1       0.302  -0.926  25.073  0.00  0.00    -0.270 OA
ATOM      4  N   UNL     1      -0.694   1.083  24.392  0.00  0.00    -0.292 N 
ATOM      8  C   UNL     1      -1.973   3.285  24.208  0.00  0.00    +0.218 C 
ATOM      9  C   UNL     1      -1.884   1.788  23.900  0.00  0.00    +0.155 C 
ATOM     10  C   UNL     1       0.506   1.867  24.682  0.00  0.00    +0.136 C 
ATOM     11  C   UNL     1      -1.732   3.612  25.680  0.00  0.00    +0.206 C 
ATOM     12  C   UNL     1       0.395   2.561  26.034  0.00  0.00    +0.179 C 
ATOM     13  C   UNL     1      -0.662  -0.301  24.631  0.00  0.00    +0.247 C 
ENDROOT
BRANCH  13  14
ATOM     14  C   UNL     1      -1.869  -1.088  24.338  0.00  0.00    +0.037 A 
ATOM     16  C   UNL     1      -1.794  -2.480  24.269  0.00  0.00    +0.014 A 
ATOM     17  C   UNL     1      -3.089  -0.444  24.132  0.00  0.00    +0.014 A 
ATOM     18  C   UNL     1      -2.940  -3.227  23.992  0.00  0.00    +0.019 A 
ATOM     19  C   UNL     1      -4.234  -1.191  23.856  0.00  0.00    +0.019 A 
ATOM     21  C   UNL     1      -4.160  -2.583  23.786  0.00  0.00    +0.052 A 
BRANCH  21  24
ATOM      7  N   UNL     1      -6.285  -3.970  23.272  0.00  0.00    -0.191 NA
ATOM     24  C   UNL     1      -5.333  -3.348  23.503  0.00  0.00    +0.099 C 
ENDBRANCH  21  24
ENDBRANCH  13  14
BRANCH   8   2
ATOM      2  O   UNL     1      -3.291   3.702  23.848  0.00  0.00    -0.468 OA
BRANCH   2  15
ATOM      5  N   UNL     1      -5.067   2.216  24.047  0.00  0.00    -0.219 NA
ATOM      6  N   UNL     1      -5.566   3.202  26.624  0.00  0.00    -0.256 NA
ATOM     15  C   UNL     1      -4.318   3.194  24.593  0.00  0.00    +0.234 A 
ATOM     20  C   UNL     1      -4.564   3.678  25.860  0.00  0.00    +0.177 A 
ATOM     22  C   UNL     1      -6.070   1.739  24.810  0.00  0.00    +0.134 A 
ATOM     23  C   UNL     1      -6.315   2.224  26.077  0.00  0.00    +0.130 A 
ENDBRANCH   2  15
ENDBRANCH   8   2
TORSDOF 4
ENDMDL
MODEL 9
REMARK VINA RESULT:       0.7      1.890      4.798
REMARK  Name = 75536899
REMARK  4 active torsions:
REMARK  status: ('A' for Active; 'I' for Inactive)
REMARK    1  A    between atoms: O_2  and  C_8
REMARK    2  A    between atoms: O_2  and  C_15
REMARK    3  A    between atoms: C_13  and  C_14
REMARK    4  A    between atoms: C_21  and  C_24
REMARK                            x       y       z     vdW  Elec       q    Type
REMARK                         _______ _______ _______ _____ _____    ______ ____
ROOT
ATOM      1  O   UNL     1      -0.445  -2.836  24.989  0.00  0.00    -0.375 OA
ATOM      3  O   UNL     1      -5.133  -1.744  24.612  0.00  0.00    -0.270 OA
ATOM      4  N   UNL     1      -2.931  -1.181  24.039  0.00  0.00    -0.292 N 
ATOM      8  C   UNL     1      -0.444  -0.607  23.995  0.00  0.00    +0.218 C 
ATOM      9  C   UNL     1      -1.900  -0.146  23.892  0.00  0.00    +0.155 C 
ATOM     10  C   UNL     1      -2.559  -2.572  23.783  0.00  0.00    +0.136 C 
ATOM     11  C   UNL     1      -0.169  -1.460  25.232  0.00  0.00    +0.206 C 
ATOM     12  C   UNL     1      -1.829  -3.173  24.977  0.00  0.00    +0.179 C 
ATOM     13  C   UNL     1      -4.247  -0.905  24.446  0.00  0.00    +0.247 C 
ENDROOT
BRANCH  13  14
ATOM     14  C   UNL     1      -4.620   0.494  24.703  0.00  0.00    +0.037 A 
ATOM     16  C   UNL     1      -3.970   1.525  24.023  0.00  0.00    +0.014 A 
ATOM     17  C   UNL     1      -5.625   0.791  25.624  0.00  0.00    +0.014 A 
ATOM     18  C   UNL     1      -4.325   2.853  24.266  0.00  0.00    +0.019 A 
ATOM     19  C   UNL     1      -5.979   2.117  25.866  0.00  0.00    +0.019 A 
ATOM     21  C   UNL     1      -5.330   3.149  25.187  0.00  0.00    +0.052 A 
BRANCH  21  24
ATOM      7  N   UNL     1      -5.989   5.612  25.637  0.00  0.00    -0.191 NA
ATOM     24  C   UNL     1      -5.693   4.508  25.435  0.00  0.00    +0.099 C 
ENDBRANCH  21  24
ENDBRANCH  13  14
BRANCH   8   2
ATOM      2  O   UNL     1       0.359   0.573  24.056  0.00  0.00    -0.468 OA
BRANCH   2  15
ATOM      5  N   UNL     1       2.527   1.341  23.721  0.00  0.00    -0.219 NA
ATOM      6  N   UNL     1       2.683  -0.208  21.388  0.00  0.00    -0.256 NA
ATOM     15  C   UNL     1       1.499   0.576  23.303  0.00  0.00    +0.234 A 
ATOM     20  C   UNL     1       1.576  -0.185  22.156  0.00  0.00    +0.177 A 
ATOM     22  C   UNL     1       3.634   1.319  22.953  0.00  0.00    +0.134 A 
ATOM     23  C   UNL     1       3.711   0.557  21.807  0.00  0.00    +0.130 A 
ENDBRANCH   2  15
ENDBRANCH   8   2
TORSDOF 4
ENDMDL
MODEL 10
REMARK VINA RESULT:       0.8      3.096      6.265
REMARK  Name = 75536899
REMARK  4 active torsions:
REMARK  status: ('A' for Active; 'I' for Inactive)
REMARK    1  A    between atoms: O_2  and  C_8
REMARK    2  A    between atoms: O_2  and  C_15
REMARK    3  A    between atoms: C_13  and  C_14
REMARK    4  A    between atoms: C_21  and  C_24
REMARK                            x       y       z     vdW  Elec       q    Type
REMARK                         _______ _______ _______ _____ _____    ______ ____
ROOT
ATOM      1  O   UNL     1      -1.072   5.622  25.004  0.00  0.00    -0.375 OA
ATOM      3  O   UNL     1      -5.177   3.114  24.602  0.00  0.00    -0.270 OA
ATOM      4  N   UNL     1      -3.065   3.280  25.605  0.00  0.00    -0.292 N 
ATOM      8  C   UNL     1      -0.581   3.519  26.140  0.00  0.00    +0.218 C 
ATOM      9  C   UNL     1      -1.816   2.624  26.011  0.00  0.00    +0.155 C 
ATOM     10  C   UNL     1      -3.196   4.721  25.822  0.00  0.00    +0.136 C 
ATOM     11  C   UNL     1      -0.345   4.401  24.916  0.00  0.00    +0.206 C 
ATOM     12  C   UNL     1      -2.467   5.507  24.740  0.00  0.00    +0.179 C 
ATOM     13  C   UNL     1      -4.127   2.599  24.986  0.00  0.00    +0.247 C 
ENDROOT
BRANCH  13  14
ATOM     14  C   UNL     1      -3.995   1.150  24.769  0.00  0.00    +0.037 A 
ATOM     16  C   UNL     1      -3.707   0.659  23.495  0.00  0.00    +0.014 A 
ATOM     17  C   UNL     1      -4.156   0.267  25.836  0.00  0.00    +0.014 A 
ATOM     18  C   UNL     1      -3.581  -0.715  23.289  0.00  0.00    +0.019 A 
ATOM     19  C   UNL     1      -4.030  -1.106  25.630  0.00  0.00    +0.019 A 
ATOM     21  C   UNL     1      -3.743  -1.598  24.357  0.00  0.00    +0.052 A 
BRANCH  21  24
ATOM      7  N   UNL     1      -3.508  -4.148  23.973  0.00  0.00    -0.191 NA
ATOM     24  C   UNL     1      -3.613  -3.005  24.145  0.00  0.00    +0.099 C 
ENDBRANCH  21  24
ENDBRANCH  13  14
BRANCH   8   2
ATOM      2  O   UNL     1       0.541   2.651  26.312  0.00  0.00    -0.468 OA
BRANCH   2  15
ATOM      5  N   UNL     1       2.393   2.977  27.679  0.00  0.00    -0.219 NA
ATOM      6  N   UNL     1       0.866   2.169  29.889  0.00  0.00    -0.256 NA
ATOM     15  C   UNL     1       1.100   2.614  27.559  0.00  0.00    +0.234 A 
ATOM     20  C   UNL     1       0.350   2.217  28.645  0.00  0.00    +0.177 A 
ATOM     22  C   UNL     1       2.909   2.928  28.923  0.00  0.00    +0.134 A 
ATOM     23  C   UNL     1       2.158   2.531  30.009  0.00  0.00    +0.130 A 
ENDBRANCH   2  15
ENDBRANCH   8   2
TORSDOF 4
ENDMDL
