MODEL 1
REMARK VINA RESULT:       0.1      0.000      0.000
REMARK  Name = 7050142
REMARK  11 active torsions:
REMARK  status: ('A' for Active; 'I' for Inactive)
REMARK    1  A    between atoms: O_1  and  C_11
REMARK    2  A    between atoms: O_2  and  C_12
REMARK    3  A    between atoms: O_6  and  C_30
REMARK    4  A    between atoms: O_6  and  C_33
REMARK    5  A    between atoms: N_7  and  C_13
REMARK    6  A    between atoms: N_8  and  C_18
REMARK    7  A    between atoms: C_15  and  C_17
REMARK    8  A    between atoms: C_18  and  C_20
REMARK    9  A    between atoms: C_18  and  C_22
REMARK   10  A    between atoms: C_19  and  C_23
REMARK   11  A    between atoms: C_20  and  C_21
REMARK                            x       y       z     vdW  Elec       q    Type
REMARK                         _______ _______ _______ _____ _____    ______ ____
ROOT
ATOM     11  C   UNL     1      -1.151  -2.480  25.053  0.00  0.00    +0.167 C 
ATOM     12  C   UNL     1      -2.664  -2.695  25.176  0.00  0.00    +0.149 C 
ATOM     13  C   UNL     1      -0.811  -1.502  23.912  0.00  0.00    +0.128 C 
ATOM     14  C   UNL     1      -3.424  -1.371  25.366  0.00  0.00    +0.074 C 
ATOM     15  C   UNL     1      -2.868  -0.243  24.545  0.00  0.00    +0.015 C 
ATOM     16  C   UNL     1      -1.703  -0.291  23.881  0.00  0.00    +0.006 C 
ENDROOT
BRANCH  15  17
ATOM      3  O   UNL     1      -4.547   1.241  25.251  0.00  0.00    -0.271 OA
ATOM      8  N   UNL     1      -3.283   1.779  23.367  0.00  0.00    -0.300 N 
ATOM     17  C   UNL     1      -3.656   0.989  24.440  0.00  0.00    +0.241 C 
ATOM     37  H   UNL     1      -2.592   1.427  22.710  0.00  0.00    +0.150 HD
BRANCH   8  18
ATOM     18  C   UNL     1      -3.918   3.040  23.057  0.00  0.00    +0.163 C 
BRANCH  18  22
ATOM      5  O   UNL     1      -4.399   4.080  20.914  0.00  0.00    -0.274 OA
ATOM      9  N   UNL     1      -2.696   2.543  21.032  0.00  0.00    -0.328 N 
ATOM     22  C   UNL     1      -3.731   3.281  21.567  0.00  0.00    +0.231 C 
ATOM     38  H   UNL     1      -2.455   2.622  20.050  0.00  0.00    +0.145 HD
ATOM     39  H   UNL     1      -2.149   1.890  21.583  0.00  0.00    +0.145 HD
ENDBRANCH  18  22
BRANCH  18  20
ATOM     20  C   UNL     1      -3.325   4.200  23.865  0.00  0.00    +0.067 C 
BRANCH  20  21
ATOM     21  C   UNL     1      -2.142   3.783  24.704  0.00  0.00    -0.045 A 
ATOM     24  C   UNL     1      -0.936   3.445  24.090  0.00  0.00    +0.007 A 
ATOM     25  C   UNL     1      -2.256   3.736  26.093  0.00  0.00    +0.007 A 
ATOM     28  C   UNL     1       0.157   3.058  24.867  0.00  0.00    +0.046 A 
ATOM     29  C   UNL     1      -1.162   3.350  26.869  0.00  0.00    +0.046 A 
ATOM     30  C   UNL     1       0.044   3.012  26.256  0.00  0.00    +0.120 A 
BRANCH  30   6
ATOM      6  O   UNL     1       1.111   2.636  27.014  0.00  0.00    -0.495 OA
ATOM     33  C   UNL     1       0.878   2.430  28.406  0.00  0.00    +0.277 C 
ENDBRANCH  30   6
ENDBRANCH  20  21
ENDBRANCH  18  20
ENDBRANCH   8  18
ENDBRANCH  15  17
BRANCH  13   7
ATOM      4  O   UNL     1       0.801  -0.589  21.718  0.00  0.00    -0.270 OA
ATOM      7  N   UNL     1       0.564  -1.067  23.975  0.00  0.00    -0.302 N 
ATOM     19  C   UNL     1       1.263  -0.641  22.856  0.00  0.00    +0.246 C 
ATOM     34  H   UNL     1       1.041  -1.170  24.865  0.00  0.00    +0.150 HD
BRANCH  19  23
ATOM     10  N   UNL     1       4.396   1.445  22.967  0.00  0.00    -0.263 NA
ATOM     23  C   UNL     1       2.679  -0.251  23.083  0.00  0.00    +0.055 A 
ATOM     26  C   UNL     1       3.597  -1.156  23.601  0.00  0.00    +0.016 A 
ATOM     27  C   UNL     1       3.124   1.027  22.785  0.00  0.00    +0.123 A 
ATOM     31  C   UNL     1       4.915  -0.763  23.803  0.00  0.00    +0.020 A 
ATOM     32  C   UNL     1       5.261   0.538  23.473  0.00  0.00    +0.111 A 
ENDBRANCH  19  23
ENDBRANCH  13   7
BRANCH  11   1
ATOM      1  O   UNL     1      -0.658  -1.962  26.291  0.00  0.00    -0.387 OA
ATOM     35  H   UNL     1       0.207  -1.557  26.114  0.00  0.00    +0.210 HD
ENDBRANCH  11   1
BRANCH  12   2
ATOM      2  O   UNL     1      -3.158  -3.383  24.029  0.00  0.00    -0.389 OA
ATOM     36  H   UNL     1      -3.749  -2.775  23.553  0.00  0.00    +0.210 HD
ENDBRANCH  12   2
TORSDOF 10
ENDMDL
MODEL 2
REMARK VINA RESULT:       1.7      1.883      2.517
REMARK  Name = 7050142
REMARK  11 active torsions:
REMARK  status: ('A' for Active; 'I' for Inactive)
REMARK    1  A    between atoms: O_1  and  C_11
REMARK    2  A    between atoms: O_2  and  C_12
REMARK    3  A    between atoms: O_6  and  C_30
REMARK    4  A    between atoms: O_6  and  C_33
REMARK    5  A    between atoms: N_7  and  C_13
REMARK    6  A    between atoms: N_8  and  C_18
REMARK    7  A    between atoms: C_15  and  C_17
REMARK    8  A    between atoms: C_18  and  C_20
REMARK    9  A    between atoms: C_18  and  C_22
REMARK   10  A    between atoms: C_19  and  C_23
REMARK   11  A    between atoms: C_20  and  C_21
REMARK                            x       y       z     vdW  Elec       q    Type
REMARK                         _______ _______ _______ _____ _____    ______ ____
ROOT
ATOM     11  C   UNL     1      -1.333  -2.158  24.651  0.00  0.00    +0.167 C 
ATOM     12  C   UNL     1      -2.852  -2.319  24.786  0.00  0.00    +0.149 C 
ATOM     13  C   UNL     1      -0.970  -0.987  23.718  0.00  0.00    +0.128 C 
ATOM     14  C   UNL     1      -3.531  -1.025  25.269  0.00  0.00    +0.074 C 
ATOM     15  C   UNL     1      -2.934   0.218  24.671  0.00  0.00    +0.015 C 
ATOM     16  C   UNL     1      -1.793   0.248  23.967  0.00  0.00    +0.006 C 
ENDROOT
BRANCH  15  17
ATOM      3  O   UNL     1      -3.886   2.219  23.890  0.00  0.00    -0.271 OA
ATOM      8  N   UNL     1      -4.011   1.722  26.164  0.00  0.00    -0.300 N 
ATOM     17  C   UNL     1      -3.654   1.483  24.848  0.00  0.00    +0.241 C 
ATOM     37  H   UNL     1      -3.688   1.085  26.887  0.00  0.00    +0.150 HD
BRANCH   8  18
ATOM     18  C   UNL     1      -4.724   2.906  26.586  0.00  0.00    +0.163 C 
BRANCH  18  22
ATOM      5  O   UNL     1      -5.631   4.410  24.906  0.00  0.00    -0.274 OA
ATOM      9  N   UNL     1      -6.470   2.276  25.039  0.00  0.00    -0.328 N 
ATOM     22  C   UNL     1      -5.646   3.305  25.444  0.00  0.00    +0.231 C 
ATOM     38  H   UNL     1      -7.124   2.404  24.274  0.00  0.00    +0.145 HD
ATOM     39  H   UNL     1      -6.469   1.366  25.489  0.00  0.00    +0.145 HD
ENDBRANCH  18  22
BRANCH  18  20
ATOM     20  C   UNL     1      -3.776   4.059  26.935  0.00  0.00    +0.067 C 
BRANCH  20  21
ATOM     21  C   UNL     1      -2.569   4.117  26.030  0.00  0.00    -0.045 A 
ATOM     24  C   UNL     1      -2.493   5.086  25.029  0.00  0.00    +0.007 A 
ATOM     25  C   UNL     1      -1.531   3.201  26.196  0.00  0.00    +0.007 A 
ATOM     28  C   UNL     1      -1.377   5.138  24.193  0.00  0.00    +0.046 A 
ATOM     29  C   UNL     1      -0.415   3.254  25.360  0.00  0.00    +0.046 A 
ATOM     30  C   UNL     1      -0.338   4.223  24.359  0.00  0.00    +0.120 A 
BRANCH  30   6
ATOM      6  O   UNL     1       0.751   4.274  23.544  0.00  0.00    -0.495 OA
ATOM     33  C   UNL     1       0.724   5.226  22.482  0.00  0.00    +0.277 C 
ENDBRANCH  30   6
ENDBRANCH  20  21
ENDBRANCH  18  20
ENDBRANCH   8  18
ENDBRANCH  15  17
BRANCH  13   7
ATOM      4  O   UNL     1       0.863  -0.632  21.537  0.00  0.00    -0.270 OA
ATOM      7  N   UNL     1       0.428  -0.643  23.815  0.00  0.00    -0.302 N 
ATOM     19  C   UNL     1       1.237  -0.493  22.699  0.00  0.00    +0.246 C 
ATOM     34  H   UNL     1       0.831  -0.602  24.745  0.00  0.00    +0.150 HD
BRANCH  19  23
ATOM     10  N   UNL     1       4.818  -0.859  23.806  0.00  0.00    -0.263 NA
ATOM     23  C   UNL     1       2.661  -0.163  22.968  0.00  0.00    +0.055 A 
ATOM     26  C   UNL     1       3.177   1.089  22.657  0.00  0.00    +0.016 A 
ATOM     27  C   UNL     1       3.515  -1.095  23.536  0.00  0.00    +0.123 A 
ATOM     31  C   UNL     1       4.514   1.369  22.920  0.00  0.00    +0.020 A 
ATOM     32  C   UNL     1       5.286   0.369  23.490  0.00  0.00    +0.111 A 
ENDBRANCH  19  23
ENDBRANCH  13   7
BRANCH  11   1
ATOM      1  O   UNL     1      -0.778  -1.929  25.948  0.00  0.00    -0.387 OA
ATOM     35  H   UNL     1      -1.512  -1.708  26.545  0.00  0.00    +0.210 HD
ENDBRANCH  11   1
BRANCH  12   2
ATOM      2  O   UNL     1      -3.416  -2.733  23.543  0.00  0.00    -0.389 OA
ATOM     36  H   UNL     1      -2.742  -3.254  23.074  0.00  0.00    +0.210 HD
ENDBRANCH  12   2
TORSDOF 10
ENDMDL
MODEL 3
REMARK VINA RESULT:       2.5      2.156      3.413
REMARK  Name = 7050142
REMARK  11 active torsions:
REMARK  status: ('A' for Active; 'I' for Inactive)
REMARK    1  A    between atoms: O_1  and  C_11
REMARK    2  A    between atoms: O_2  and  C_12
REMARK    3  A    between atoms: O_6  and  C_30
REMARK    4  A    between atoms: O_6  and  C_33
REMARK    5  A    between atoms: N_7  and  C_13
REMARK    6  A    between atoms: N_8  and  C_18
REMARK    7  A    between atoms: C_15  and  C_17
REMARK    8  A    between atoms: C_18  and  C_20
REMARK    9  A    between atoms: C_18  and  C_22
REMARK   10  A    between atoms: C_19  and  C_23
REMARK   11  A    between atoms: C_20  and  C_21
REMARK                            x       y       z     vdW  Elec       q    Type
REMARK                         _______ _______ _______ _____ _____    ______ ____
ROOT
ATOM     11  C   UNL     1      -0.988  -1.538  25.001  0.00  0.00    +0.167 C 
ATOM     12  C   UNL     1      -2.507  -1.338  24.923  0.00  0.00    +0.149 C 
ATOM     13  C   UNL     1      -0.283  -1.007  23.737  0.00  0.00    +0.128 C 
ATOM     14  C   UNL     1      -2.885   0.134  24.681  0.00  0.00    +0.074 C 
ATOM     15  C   UNL     1      -1.962   0.836  23.725  0.00  0.00    +0.015 C 
ATOM     16  C   UNL     1      -0.798   0.333  23.288  0.00  0.00    +0.006 C 
ENDROOT
BRANCH  15  17
ATOM      3  O   UNL     1      -2.887   2.269  22.109  0.00  0.00    -0.271 OA
ATOM      8  N   UNL     1      -2.089   3.180  24.101  0.00  0.00    -0.300 N 
ATOM     17  C   UNL     1      -2.365   2.151  23.217  0.00  0.00    +0.241 C 
ATOM     37  H   UNL     1      -1.573   2.974  24.953  0.00  0.00    +0.150 HD
BRANCH   8  18
ATOM     18  C   UNL     1      -2.392   4.565  23.820  0.00  0.00    +0.163 C 
BRANCH  18  22
ATOM      5  O   UNL     1      -2.042   6.398  25.377  0.00  0.00    -0.274 OA
ATOM      9  N   UNL     1      -0.328   4.909  25.030  0.00  0.00    -0.328 N 
ATOM     22  C   UNL     1      -1.595   5.406  24.806  0.00  0.00    +0.231 C 
ATOM     38  H   UNL     1       0.303   5.367  25.679  0.00  0.00    +0.145 HD
ATOM     39  H   UNL     1       0.027   4.086  24.555  0.00  0.00    +0.145 HD
ENDBRANCH  18  22
BRANCH  18  20
ATOM     20  C   UNL     1      -3.889   4.867  23.948  0.00  0.00    +0.067 C 
BRANCH  20  21
ATOM     21  C   UNL     1      -4.640   3.793  24.696  0.00  0.00    -0.045 A 
ATOM     24  C   UNL     1      -5.341   2.813  23.993  0.00  0.00    +0.007 A 
ATOM     25  C   UNL     1      -4.634   3.781  26.091  0.00  0.00    +0.007 A 
ATOM     28  C   UNL     1      -6.035   1.820  24.685  0.00  0.00    +0.046 A 
ATOM     29  C   UNL     1      -5.328   2.788  26.782  0.00  0.00    +0.046 A 
ATOM     30  C   UNL     1      -6.028   1.808  26.079  0.00  0.00    +0.120 A 
BRANCH  30   6
ATOM      6  O   UNL     1      -6.705   0.838  26.754  0.00  0.00    -0.495 OA
ATOM     33  C   UNL     1      -7.010   1.093  28.125  0.00  0.00    +0.277 C 
ENDBRANCH  30   6
ENDBRANCH  20  21
ENDBRANCH  18  20
ENDBRANCH   8  18
ENDBRANCH  15  17
BRANCH  13   7
ATOM      4  O   UNL     1       1.642  -0.095  21.812  0.00  0.00    -0.270 OA
ATOM      7  N   UNL     1       1.145  -0.920  23.922  0.00  0.00    -0.302 N 
ATOM     19  C   UNL     1       1.998  -0.464  22.929  0.00  0.00    +0.246 C 
ATOM     34  H   UNL     1       1.524  -1.294  24.786  0.00  0.00    +0.150 HD
BRANCH  19  23
ATOM     10  N   UNL     1       5.545   0.735  23.336  0.00  0.00    -0.263 NA
ATOM     23  C   UNL     1       3.446  -0.459  23.267  0.00  0.00    +0.055 A 
ATOM     26  C   UNL     1       4.058  -1.583  23.808  0.00  0.00    +0.016 A 
ATOM     27  C   UNL     1       4.226   0.665  23.052  0.00  0.00    +0.123 A 
ATOM     31  C   UNL     1       5.415  -1.550  24.114  0.00  0.00    +0.020 A 
ATOM     32  C   UNL     1       6.107  -0.376  23.862  0.00  0.00    +0.111 A 
ENDBRANCH  19  23
ENDBRANCH  13   7
BRANCH  11   1
ATOM      1  O   UNL     1      -0.493  -0.850  26.152  0.00  0.00    -0.387 OA
ATOM     35  H   UNL     1       0.462  -1.023  26.207  0.00  0.00    +0.210 HD
ENDBRANCH  11   1
BRANCH  12   2
ATOM      2  O   UNL     1      -3.059  -2.160  23.898  0.00  0.00    -0.389 OA
ATOM     36  H   UNL     1      -3.927  -1.790  23.659  0.00  0.00    +0.210 HD
ENDBRANCH  12   2
TORSDOF 10
ENDMDL
MODEL 4
REMARK VINA RESULT:       3.8      2.093      4.668
REMARK  Name = 7050142
REMARK  11 active torsions:
REMARK  status: ('A' for Active; 'I' for Inactive)
REMARK    1  A    between atoms: O_1  and  C_11
REMARK    2  A    between atoms: O_2  and  C_12
REMARK    3  A    between atoms: O_6  and  C_30
REMARK    4  A    between atoms: O_6  and  C_33
REMARK    5  A    between atoms: N_7  and  C_13
REMARK    6  A    between atoms: N_8  and  C_18
REMARK    7  A    between atoms: C_15  and  C_17
REMARK    8  A    between atoms: C_18  and  C_20
REMARK    9  A    between atoms: C_18  and  C_22
REMARK   10  A    between atoms: C_19  and  C_23
REMARK   11  A    between atoms: C_20  and  C_21
REMARK                            x       y       z     vdW  Elec       q    Type
REMARK                         _______ _______ _______ _____ _____    ______ ____
ROOT
ATOM     11  C   UNL     1      -0.014   4.339  24.612  0.00  0.00    +0.167 C 
ATOM     12  C   UNL     1      -1.398   4.987  24.734  0.00  0.00    +0.149 C 
ATOM     13  C   UNL     1      -0.039   2.864  25.057  0.00  0.00    +0.128 C 
ATOM     14  C   UNL     1      -2.472   4.212  23.950  0.00  0.00    +0.074 C 
ATOM     15  C   UNL     1      -2.305   2.721  24.027  0.00  0.00    +0.015 C 
ATOM     16  C   UNL     1      -1.225   2.103  24.528  0.00  0.00    +0.006 C 
ENDROOT
BRANCH  15  17
ATOM      3  O   UNL     1      -3.427   1.476  22.380  0.00  0.00    -0.271 OA
ATOM      8  N   UNL     1      -4.352   1.615  24.516  0.00  0.00    -0.300 N 
ATOM     17  C   UNL     1      -3.403   1.877  23.543  0.00  0.00    +0.241 C 
ATOM     37  H   UNL     1      -4.273   2.074  25.419  0.00  0.00    +0.150 HD
BRANCH   8  18
ATOM     18  C   UNL     1      -5.527   0.809  24.275  0.00  0.00    +0.163 C 
BRANCH  18  22
ATOM      5  O   UNL     1      -6.612   1.500  26.337  0.00  0.00    -0.274 OA
ATOM      9  N   UNL     1      -7.708   1.848  24.348  0.00  0.00    -0.328 N 
ATOM     22  C   UNL     1      -6.652   1.396  25.113  0.00  0.00    +0.231 C 
ATOM     38  H   UNL     1      -8.518   2.277  24.783  0.00  0.00    +0.145 HD
ATOM     39  H   UNL     1      -7.727   1.760  23.338  0.00  0.00    +0.145 HD
ENDBRANCH  18  22
BRANCH  18  20
ATOM     20  C   UNL     1      -5.303  -0.663  24.638  0.00  0.00    +0.067 C 
BRANCH  20  21
ATOM     21  C   UNL     1      -3.852  -0.986  24.901  0.00  0.00    -0.045 A 
ATOM     24  C   UNL     1      -3.104  -1.669  23.943  0.00  0.00    +0.007 A 
ATOM     25  C   UNL     1      -3.261  -0.600  26.104  0.00  0.00    +0.007 A 
ATOM     28  C   UNL     1      -1.763  -1.967  24.188  0.00  0.00    +0.046 A 
ATOM     29  C   UNL     1      -1.920  -0.898  26.348  0.00  0.00    +0.046 A 
ATOM     30  C   UNL     1      -1.172  -1.581  25.390  0.00  0.00    +0.120 A 
BRANCH  30   6
ATOM      6  O   UNL     1       0.137  -1.871  25.629  0.00  0.00    -0.495 OA
ATOM     33  C   UNL     1       0.546  -3.226  25.449  0.00  0.00    +0.277 C 
ENDBRANCH  30   6
ENDBRANCH  20  21
ENDBRANCH  18  20
ENDBRANCH   8  18
ENDBRANCH  15  17
BRANCH  13   7
ATOM      4  O   UNL     1       0.184   0.749  23.127  0.00  0.00    -0.270 OA
ATOM      7  N   UNL     1       1.168   2.172  24.672  0.00  0.00    -0.302 N 
ATOM     19  C   UNL     1       1.176   1.159  23.725  0.00  0.00    +0.246 C 
ATOM     34  H   UNL     1       2.013   2.391  25.190  0.00  0.00    +0.150 HD
BRANCH  19  23
ATOM     10  N   UNL     1       3.881  -1.452  23.494  0.00  0.00    -0.263 NA
ATOM     23  C   UNL     1       2.495   0.528  23.459  0.00  0.00    +0.055 A 
ATOM     26  C   UNL     1       3.553   1.270  22.949  0.00  0.00    +0.016 A 
ATOM     27  C   UNL     1       2.708  -0.818  23.713  0.00  0.00    +0.123 A 
ATOM     31  C   UNL     1       4.777   0.653  22.710  0.00  0.00    +0.020 A 
ATOM     32  C   UNL     1       4.888  -0.699  22.996  0.00  0.00    +0.111 A 
ENDBRANCH  19  23
ENDBRANCH  13   7
BRANCH  11   1
ATOM      1  O   UNL     1       0.413   4.422  23.250  0.00  0.00    -0.387 OA
ATOM     35  H   UNL     1       0.533   3.514  22.925  0.00  0.00    +0.210 HD
ENDBRANCH  11   1
BRANCH  12   2
ATOM      2  O   UNL     1      -1.773   5.088  26.107  0.00  0.00    -0.389 OA
ATOM     36  H   UNL     1      -0.969   5.283  26.618  0.00  0.00    +0.210 HD
ENDBRANCH  12   2
TORSDOF 10
ENDMDL
