MODEL 1
REMARK VINA RESULT:      -0.1      0.000      0.000
REMARK  Name = 45360575
REMARK  6 active torsions:
REMARK  status: ('A' for Active; 'I' for Inactive)
REMARK    1  A    between atoms: O_6  and  C_13
REMARK    2  A    between atoms: N_8  and  C_12
REMARK    3  A    between atoms: N_9  and  C_14
REMARK    4  A    between atoms: N_10  and  C_23
REMARK    5  A    between atoms: N_11  and  C_24
REMARK    6  A    between atoms: C_27  and  C_30
REMARK                            x       y       z     vdW  Elec       q    Type
REMARK                         _______ _______ _______ _____ _____    ______ ____
ROOT
ATOM      4  O   UNL     1      -3.628   3.025  26.645  0.00  0.00    -0.342 OA
ATOM      5  O   UNL     1      -5.486   4.044  25.701  0.00  0.00    -0.347 OA
ATOM     12  C   UNL     1      -4.458   2.187  24.542  0.00  0.00    +0.144 C 
ATOM     13  C   UNL     1      -3.533   3.152  23.769  0.00  0.00    +0.159 C 
ATOM     14  C   UNL     1      -2.582   3.957  24.683  0.00  0.00    +0.136 C 
ATOM     15  C   UNL     1      -4.835   2.780  25.912  0.00  0.00    +0.270 C 
ATOM     16  C   UNL     1      -3.185   4.258  26.071  0.00  0.00    +0.170 C 
ATOM     17  C   UNL     1      -4.491   5.028  26.026  0.00  0.00    +0.196 C 
ENDROOT
BRANCH  12   8
ATOM      8  N   UNL     1      -3.797   0.896  24.727  0.00  0.00    -0.290 NA
ATOM     10  N   UNL     1      -3.708  -1.991  24.612  0.00  0.00    -0.303 NA
ATOM     18  C   UNL     1      -3.668   0.187  23.448  0.00  0.00    +0.100 C 
ATOM     19  C   UNL     1      -4.526   0.071  25.699  0.00  0.00    +0.100 C 
ATOM     20  C   UNL     1      -2.978  -1.167  23.643  0.00  0.00    +0.099 C 
ATOM     21  C   UNL     1      -3.837  -1.283  25.892  0.00  0.00    +0.099 C 
ATOM     23  C   UNL     1      -3.048  -3.282  24.798  0.00  0.00    +0.105 C 
ENDBRANCH  12   8
BRANCH  14   9
ATOM      7  O   UNL     1      -1.301   2.293  22.735  0.00  0.00    -0.252 OA
ATOM      9  N   UNL     1      -1.326   3.256  24.836  0.00  0.00    -0.291 N 
ATOM     11  N   UNL     1       0.441   1.913  24.261  0.00  0.00    -0.269 N 
ATOM     22  C   UNL     1      -0.770   2.461  23.830  0.00  0.00    +0.304 C 
ATOM     31  H   UNL     1      -0.867   3.281  25.742  0.00  0.00    +0.151 HD
ATOM     33  H   UNL     1       0.742   2.154  25.203  0.00  0.00    +0.156 HD
BRANCH  11  24
ATOM     24  C   UNL     1       1.310   1.057  23.545  0.00  0.00    +0.035 A 
ATOM     25  C   UNL     1       2.677   1.062  23.821  0.00  0.00    +0.035 A 
ATOM     26  C   UNL     1       0.799   0.209  22.563  0.00  0.00    +0.023 A 
ATOM     27  C   UNL     1       3.534   0.216  23.115  0.00  0.00    +0.057 A 
ATOM     28  C   UNL     1       1.656  -0.636  21.857  0.00  0.00    +0.002 A 
ATOM     29  C   UNL     1       3.023  -0.631  22.132  0.00  0.00    +0.012 A 
BRANCH  27  30
ATOM      1  F   UNL     1       5.348  -0.713  24.339  0.00  0.00    -0.166 F 
ATOM      2  F   UNL     1       5.776  -0.035  22.317  0.00  0.00    -0.166 F 
ATOM      3  F   UNL     1       5.450   1.414  23.899  0.00  0.00    -0.166 F 
ATOM     30  C   UNL     1       4.996   0.222  23.409  0.00  0.00    +0.417 C 
ENDBRANCH  27  30
ENDBRANCH  11  24
ENDBRANCH  14   9
BRANCH  13   6
ATOM      6  O   UNL     1      -4.364   4.071  23.048  0.00  0.00    -0.388 OA
ATOM     32  H   UNL     1      -4.903   3.552  22.425  0.00  0.00    +0.210 HD
ENDBRANCH  13   6
TORSDOF 5
ENDMDL
MODEL 2
REMARK VINA RESULT:       2.1      2.226      4.404
REMARK  Name = 45360575
REMARK  6 active torsions:
REMARK  status: ('A' for Active; 'I' for Inactive)
REMARK    1  A    between atoms: O_6  and  C_13
REMARK    2  A    between atoms: N_8  and  C_12
REMARK    3  A    between atoms: N_9  and  C_14
REMARK    4  A    between atoms: N_10  and  C_23
REMARK    5  A    between atoms: N_11  and  C_24
REMARK    6  A    between atoms: C_27  and  C_30
REMARK                            x       y       z     vdW  Elec       q    Type
REMARK                         _______ _______ _______ _____ _____    ______ ____
ROOT
ATOM      4  O   UNL     1      -3.954  -0.096  23.224  0.00  0.00    -0.342 OA
ATOM      5  O   UNL     1      -5.157  -0.888  25.043  0.00  0.00    -0.347 OA
ATOM     12  C   UNL     1      -3.252   0.547  25.439  0.00  0.00    +0.144 C 
ATOM     13  C   UNL     1      -2.317  -0.680  25.520  0.00  0.00    +0.159 C 
ATOM     14  C   UNL     1      -2.258  -1.496  24.210  0.00  0.00    +0.136 C 
ATOM     15  C   UNL     1      -4.453   0.252  24.523  0.00  0.00    +0.270 C 
ATOM     16  C   UNL     1      -3.578  -1.463  23.414  0.00  0.00    +0.170 C 
ATOM     17  C   UNL     1      -4.780  -1.976  24.185  0.00  0.00    +0.196 C 
ENDROOT
BRANCH  12   8
ATOM      8  N   UNL     1      -2.518   1.707  24.935  0.00  0.00    -0.290 NA
ATOM     10  N   UNL     1      -1.407   4.362  25.195  0.00  0.00    -0.303 NA
ATOM     18  C   UNL     1      -1.317   1.955  25.742  0.00  0.00    +0.100 C 
ATOM     19  C   UNL     1      -3.377   2.898  24.914  0.00  0.00    +0.100 C 
ATOM     20  C   UNL     1      -0.549   3.172  25.215  0.00  0.00    +0.099 C 
ATOM     21  C   UNL     1      -2.608   4.115  24.389  0.00  0.00    +0.099 C 
ATOM     23  C   UNL     1      -0.674   5.523  24.692  0.00  0.00    +0.105 C 
ENDBRANCH  12   8
BRANCH  14   9
ATOM      7  O   UNL     1       0.367  -0.748  25.080  0.00  0.00    -0.252 OA
ATOM      9  N   UNL     1      -1.172  -1.023  23.378  0.00  0.00    -0.291 N 
ATOM     11  N   UNL     1       0.924  -0.257  22.853  0.00  0.00    -0.269 N 
ATOM     22  C   UNL     1       0.083  -0.677  23.887  0.00  0.00    +0.304 C 
ATOM     31  H   UNL     1      -1.356  -0.862  22.392  0.00  0.00    +0.151 HD
ATOM     33  H   UNL     1       0.531  -0.259  21.915  0.00  0.00    +0.156 HD
BRANCH  11  24
ATOM     24  C   UNL     1       2.268   0.173  22.949  0.00  0.00    +0.035 A 
ATOM     25  C   UNL     1       3.255  -0.709  23.388  0.00  0.00    +0.035 A 
ATOM     26  C   UNL     1       2.605   1.482  22.604  0.00  0.00    +0.023 A 
ATOM     27  C   UNL     1       4.580  -0.283  23.480  0.00  0.00    +0.057 A 
ATOM     28  C   UNL     1       3.931   1.908  22.697  0.00  0.00    +0.002 A 
ATOM     29  C   UNL     1       4.918   1.025  23.136  0.00  0.00    +0.012 A 
BRANCH  27  30
ATOM      1  F   UNL     1       6.765  -1.174  23.186  0.00  0.00    -0.166 F 
ATOM      2  F   UNL     1       6.048  -0.994  25.231  0.00  0.00    -0.166 F 
ATOM      3  F   UNL     1       5.244  -2.536  23.935  0.00  0.00    -0.166 F 
ATOM     30  C   UNL     1       5.635  -1.227  23.950  0.00  0.00    +0.417 C 
ENDBRANCH  27  30
ENDBRANCH  11  24
ENDBRANCH  14   9
BRANCH  13   6
ATOM      6  O   UNL     1      -2.800  -1.529  26.570  0.00  0.00    -0.388 OA
ATOM     32  H   UNL     1      -2.219  -1.406  27.340  0.00  0.00    +0.210 HD
ENDBRANCH  13   6
TORSDOF 5
ENDMDL
MODEL 3
REMARK VINA RESULT:       3.8     16.746     19.887
REMARK  Name = 45360575
REMARK  6 active torsions:
REMARK  status: ('A' for Active; 'I' for Inactive)
REMARK    1  A    between atoms: O_6  and  C_13
REMARK    2  A    between atoms: N_8  and  C_12
REMARK    3  A    between atoms: N_9  and  C_14
REMARK    4  A    between atoms: N_10  and  C_23
REMARK    5  A    between atoms: N_11  and  C_24
REMARK    6  A    between atoms: C_27  and  C_30
REMARK                            x       y       z     vdW  Elec       q    Type
REMARK                         _______ _______ _______ _____ _____    ______ ____
ROOT
ATOM      4  O   UNL     1      17.312  -8.924  28.395  0.00  0.00    -0.342 OA
ATOM      5  O   UNL     1      17.343  -9.375  26.120  0.00  0.00    -0.347 OA
ATOM     12  C   UNL     1      16.096  -7.461  26.914  0.00  0.00    +0.144 C 
ATOM     13  C   UNL     1      14.826  -8.326  27.070  0.00  0.00    +0.159 C 
ATOM     14  C   UNL     1      14.984  -9.472  28.094  0.00  0.00    +0.136 C 
ATOM     15  C   UNL     1      17.361  -8.320  27.096  0.00  0.00    +0.270 C 
ATOM     16  C   UNL     1      16.423 -10.022  28.172  0.00  0.00    +0.170 C 
ATOM     17  C   UNL     1      16.958 -10.548  26.853  0.00  0.00    +0.196 C 
ENDROOT
BRANCH  12   8
ATOM      8  N   UNL     1      16.090  -6.376  27.893  0.00  0.00    -0.290 NA
ATOM     10  N   UNL     1      17.340  -4.707  29.895  0.00  0.00    -0.303 NA
ATOM     18  C   UNL     1      17.055  -5.333  27.522  0.00  0.00    +0.100 C 
ATOM     19  C   UNL     1      16.378  -6.886  29.239  0.00  0.00    +0.100 C 
ATOM     20  C   UNL     1      17.051  -4.197  28.550  0.00  0.00    +0.099 C 
ATOM     21  C   UNL     1      16.376  -5.749  30.266  0.00  0.00    +0.099 C 
ATOM     23  C   UNL     1      17.335  -3.622  30.875  0.00  0.00    +0.105 C 
ENDBRANCH  12   8
BRANCH  14   9
ATOM      7  O   UNL     1      12.538  -8.124  28.733  0.00  0.00    -0.252 OA
ATOM      9  N   UNL     1      14.556  -9.031  29.404  0.00  0.00    -0.291 N 
ATOM     11  N   UNL     1      13.200  -8.073  30.985  0.00  0.00    -0.269 N 
ATOM     22  C   UNL     1      13.341  -8.377  29.628  0.00  0.00    +0.304 C 
ATOM     31  H   UNL     1      15.202  -9.133  30.181  0.00  0.00    +0.151 HD
ATOM     33  H   UNL     1      13.962  -8.355  31.598  0.00  0.00    +0.156 HD
BRANCH  11  24
ATOM     24  C   UNL     1      12.119  -7.418  31.620  0.00  0.00    +0.035 A 
ATOM     25  C   UNL     1      10.852  -8.000  31.619  0.00  0.00    +0.035 A 
ATOM     26  C   UNL     1      12.322  -6.188  32.245  0.00  0.00    +0.023 A 
ATOM     27  C   UNL     1       9.787  -7.353  32.247  0.00  0.00    +0.057 A 
ATOM     28  C   UNL     1      11.256  -5.540  32.872  0.00  0.00    +0.002 A 
ATOM     29  C   UNL     1       9.989  -6.123  32.872  0.00  0.00    +0.012 A 
BRANCH  27  30
ATOM      1  F   UNL     1       8.410  -9.188  32.873  0.00  0.00    -0.166 F 
ATOM      2  F   UNL     1       7.481  -7.221  32.873  0.00  0.00    -0.166 F 
ATOM      3  F   UNL     1       7.936  -8.203  30.993  0.00  0.00    -0.166 F 
ATOM     30  C   UNL     1       8.431  -7.975  32.246  0.00  0.00    +0.417 C 
ENDBRANCH  27  30
ENDBRANCH  11  24
ENDBRANCH  14   9
BRANCH  13   6
ATOM      6  O   UNL     1      14.523  -8.893  25.788  0.00  0.00    -0.388 OA
ATOM     32  H   UNL     1      13.567  -8.791  25.640  0.00  0.00    +0.210 HD
ENDBRANCH  13   6
TORSDOF 5
ENDMDL
