MODEL 1
REMARK VINA RESULT:       0.4      0.000      0.000
REMARK  Name = 38027302
REMARK  11 active torsions:
REMARK  status: ('A' for Active; 'I' for Inactive)
REMARK    1  A    between atoms: N_3  and  C_15
REMARK    2  A    between atoms: N_4  and  C_14
REMARK    3  A    between atoms: C_6  and  C_10
REMARK    4  A    between atoms: C_7  and  C_14
REMARK    5  A    between atoms: C_9  and  C_13
REMARK    6  A    between atoms: C_10  and  C_16
REMARK    7  A    between atoms: C_10  and  C_17
REMARK    8  A    between atoms: C_11  and  C_20
REMARK    9  A    between atoms: C_13  and  C_21
REMARK   10  A    between atoms: C_24  and  C_25
REMARK   11  A    between atoms: C_30  and  C_31
REMARK                            x       y       z     vdW  Elec       q    Type
REMARK                         _______ _______ _______ _____ _____    ______ ____
ROOT
ATOM      6  C   UNL     1      -1.323   0.502  24.657  0.00  0.00    +0.000 C 
ATOM      7  C   UNL     1      -0.606  -0.830  24.320  0.00  0.00    +0.032 C 
ATOM      8  C   UNL     1      -2.304   0.304  25.823  0.00  0.00    +0.012 C 
ATOM      9  C   UNL     1      -3.372  -0.760  25.510  0.00  0.00    +0.023 C 
ATOM     11  C   UNL     1      -2.763  -2.015  24.918  0.00  0.00    -0.073 C 
ATOM     12  C   UNL     1      -1.521  -2.031  24.404  0.00  0.00    -0.022 C 
ATOM     20  C   UNL     1      -3.598  -3.264  24.972  0.00  0.00    +0.039 C 
ENDROOT
BRANCH   6  10
ATOM     10  C   UNL     1      -0.325   1.612  25.001  0.00  0.00    -0.013 C 
ATOM     16  C   UNL     1      -0.566   2.835  24.121  0.00  0.00    +0.007 C 
ATOM     17  C   UNL     1      -0.426   1.979  26.477  0.00  0.00    +0.007 C 
ENDBRANCH   6  10
BRANCH   9  13
ATOM     13  C   UNL     1      -4.463  -0.194  24.593  0.00  0.00    +0.103 C 
BRANCH  13  21
ATOM      1  O   UNL     1      -5.827   1.241  25.982  0.00  0.00    -0.276 OA
ATOM      3  N   UNL     1      -4.410   2.188  24.403  0.00  0.00    -0.312 N 
ATOM     21  C   UNL     1      -4.992   1.132  25.090  0.00  0.00    +0.214 C 
ATOM     32  H   UNL     1      -3.696   1.992  23.707  0.00  0.00    +0.149 HD
BRANCH   3  15
ATOM     15  C   UNL     1      -4.728   3.569  24.666  0.00  0.00    +0.073 C 
ATOM     18  C   UNL     1      -3.684   4.510  24.077  0.00  0.00    +0.022 C 
ATOM     19  C   UNL     1      -4.671   3.893  26.155  0.00  0.00    +0.022 C 
ATOM     22  C   UNL     1      -2.553   4.519  25.102  0.00  0.00    +0.002 C 
ATOM     23  C   UNL     1      -3.195   4.165  26.444  0.00  0.00    +0.002 C 
ENDBRANCH   3  15
ENDBRANCH  13  21
ENDBRANCH   9  13
BRANCH   7  14
ATOM     14  C   UNL     1       0.040  -0.776  22.932  0.00  0.00    +0.112 C 
BRANCH  14   4
ATOM      2  O   UNL     1       1.746   1.521  23.173  0.00  0.00    -0.270 OA
ATOM      4  N   UNL     1       1.466  -0.778  23.035  0.00  0.00    -0.311 N 
ATOM     24  C   UNL     1       2.221   0.390  23.150  0.00  0.00    +0.244 C 
ATOM     33  H   UNL     1       1.928  -1.680  23.014  0.00  0.00    +0.149 HD
BRANCH  24  25
ATOM     25  C   UNL     1       3.694   0.219  23.221  0.00  0.00    +0.037 A 
ATOM     26  C   UNL     1       4.535   1.303  22.970  0.00  0.00    +0.014 A 
ATOM     27  C   UNL     1       4.238  -1.026  23.538  0.00  0.00    +0.014 A 
ATOM     28  C   UNL     1       5.919   1.144  23.037  0.00  0.00    +0.019 A 
ATOM     29  C   UNL     1       5.623  -1.185  23.605  0.00  0.00    +0.019 A 
ATOM     30  C   UNL     1       6.462  -0.101  23.355  0.00  0.00    +0.052 A 
BRANCH  30  31
ATOM      5  N   UNL     1       9.032  -0.398  23.478  0.00  0.00    -0.191 NA
ATOM     31  C   UNL     1       7.881  -0.265  23.423  0.00  0.00    +0.099 C 
ENDBRANCH  30  31
ENDBRANCH  24  25
ENDBRANCH  14   4
ENDBRANCH   7  14
TORSDOF 8
ENDMDL
MODEL 2
REMARK VINA RESULT:       0.7      1.485      3.127
REMARK  Name = 38027302
REMARK  11 active torsions:
REMARK  status: ('A' for Active; 'I' for Inactive)
REMARK    1  A    between atoms: N_3  and  C_15
REMARK    2  A    between atoms: N_4  and  C_14
REMARK    3  A    between atoms: C_6  and  C_10
REMARK    4  A    between atoms: C_7  and  C_14
REMARK    5  A    between atoms: C_9  and  C_13
REMARK    6  A    between atoms: C_10  and  C_16
REMARK    7  A    between atoms: C_10  and  C_17
REMARK    8  A    between atoms: C_11  and  C_20
REMARK    9  A    between atoms: C_13  and  C_21
REMARK   10  A    between atoms: C_24  and  C_25
REMARK   11  A    between atoms: C_30  and  C_31
REMARK                            x       y       z     vdW  Elec       q    Type
REMARK                         _______ _______ _______ _____ _____    ______ ____
ROOT
ATOM      6  C   UNL     1      -3.082  -0.502  24.556  0.00  0.00    +0.000 C 
ATOM      7  C   UNL     1      -1.670  -0.013  24.149  0.00  0.00    +0.032 C 
ATOM      8  C   UNL     1      -4.078  -0.285  23.406  0.00  0.00    +0.012 C 
ATOM      9  C   UNL     1      -4.174   1.195  22.992  0.00  0.00    +0.023 C 
ATOM     11  C   UNL     1      -2.806   1.826  22.831  0.00  0.00    -0.073 C 
ATOM     12  C   UNL     1      -1.697   1.265  23.342  0.00  0.00    -0.022 C 
ATOM     20  C   UNL     1      -2.736   3.095  22.027  0.00  0.00    +0.039 C 
ENDROOT
BRANCH   6  10
ATOM     10  C   UNL     1      -3.076  -1.978  24.965  0.00  0.00    -0.013 C 
ATOM     16  C   UNL     1      -4.191  -2.734  24.246  0.00  0.00    +0.007 C 
ATOM     17  C   UNL     1      -1.719  -2.607  24.669  0.00  0.00    +0.007 C 
ENDBRANCH   6  10
BRANCH   9  13
ATOM     13  C   UNL     1      -5.032   1.992  23.982  0.00  0.00    +0.103 C 
BRANCH  13  21
ATOM      1  O   UNL     1      -4.201   1.828  26.248  0.00  0.00    -0.276 OA
ATOM      3  N   UNL     1      -3.572   3.633  24.926  0.00  0.00    -0.312 N 
ATOM     21  C   UNL     1      -4.238   2.444  25.187  0.00  0.00    +0.214 C 
ATOM     32  H   UNL     1      -3.637   4.042  23.998  0.00  0.00    +0.149 HD
BRANCH   3  15
ATOM     15  C   UNL     1      -2.740   4.298  25.897  0.00  0.00    +0.073 C 
ATOM     18  C   UNL     1      -2.060   5.528  25.307  0.00  0.00    +0.022 C 
ATOM     19  C   UNL     1      -1.559   3.433  26.322  0.00  0.00    +0.022 C 
ATOM     22  C   UNL     1      -0.846   4.977  24.564  0.00  0.00    +0.002 C 
ATOM     23  C   UNL     1      -0.499   3.652  25.244  0.00  0.00    +0.002 C 
ENDBRANCH   3  15
ENDBRANCH  13  21
ENDBRANCH   9  13
BRANCH   7  14
ATOM     14  C   UNL     1      -0.773   0.177  25.377  0.00  0.00    +0.112 C 
BRANCH  14   4
ATOM      2  O   UNL     1       0.305  -0.628  22.840  0.00  0.00    -0.270 OA
ATOM      4  N   UNL     1       0.608   0.141  25.008  0.00  0.00    -0.311 N 
ATOM     24  C   UNL     1       1.047  -0.265  23.749  0.00  0.00    +0.244 C 
ATOM     33  H   UNL     1       1.280   0.420  25.714  0.00  0.00    +0.149 HD
BRANCH  24  25
ATOM     25  C   UNL     1       2.517  -0.271  23.533  0.00  0.00    +0.037 A 
ATOM     26  C   UNL     1       3.269  -1.391  23.889  0.00  0.00    +0.014 A 
ATOM     27  C   UNL     1       3.145   0.842  22.974  0.00  0.00    +0.014 A 
ATOM     28  C   UNL     1       4.649  -1.398  23.686  0.00  0.00    +0.019 A 
ATOM     29  C   UNL     1       4.525   0.834  22.772  0.00  0.00    +0.019 A 
ATOM     30  C   UNL     1       5.277  -0.285  23.127  0.00  0.00    +0.052 A 
BRANCH  30  31
ATOM      5  N   UNL     1       7.839  -0.297  22.752  0.00  0.00    -0.191 NA
ATOM     31  C   UNL     1       6.691  -0.292  22.920  0.00  0.00    +0.099 C 
ENDBRANCH  30  31
ENDBRANCH  24  25
ENDBRANCH  14   4
ENDBRANCH   7  14
TORSDOF 8
ENDMDL
MODEL 3
REMARK VINA RESULT:       2.6      1.497      3.375
REMARK  Name = 38027302
REMARK  11 active torsions:
REMARK  status: ('A' for Active; 'I' for Inactive)
REMARK    1  A    between atoms: N_3  and  C_15
REMARK    2  A    between atoms: N_4  and  C_14
REMARK    3  A    between atoms: C_6  and  C_10
REMARK    4  A    between atoms: C_7  and  C_14
REMARK    5  A    between atoms: C_9  and  C_13
REMARK    6  A    between atoms: C_10  and  C_16
REMARK    7  A    between atoms: C_10  and  C_17
REMARK    8  A    between atoms: C_11  and  C_20
REMARK    9  A    between atoms: C_13  and  C_21
REMARK   10  A    between atoms: C_24  and  C_25
REMARK   11  A    between atoms: C_30  and  C_31
REMARK                            x       y       z     vdW  Elec       q    Type
REMARK                         _______ _______ _______ _____ _____    ______ ____
ROOT
ATOM      6  C   UNL     1      -2.626   0.810  24.729  0.00  0.00    +0.000 C 
ATOM      7  C   UNL     1      -1.347   0.398  23.958  0.00  0.00    +0.032 C 
ATOM      8  C   UNL     1      -3.122   2.183  24.250  0.00  0.00    +0.012 C 
ATOM      9  C   UNL     1      -2.061   3.284  24.439  0.00  0.00    +0.023 C 
ATOM     11  C   UNL     1      -0.699   2.845  23.942  0.00  0.00    -0.073 C 
ATOM     12  C   UNL     1      -0.402   1.553  23.719  0.00  0.00    -0.022 C 
ATOM     20  C   UNL     1       0.302   3.932  23.662  0.00  0.00    +0.039 C 
ENDROOT
BRANCH   6  10
ATOM     10  C   UNL     1      -3.742  -0.227  24.574  0.00  0.00    -0.013 C 
ATOM     16  C   UNL     1      -3.693  -0.858  23.186  0.00  0.00    +0.007 C 
ATOM     17  C   UNL     1      -3.630  -1.295  25.657  0.00  0.00    +0.007 C 
ENDBRANCH   6  10
BRANCH   9  13
ATOM     13  C   UNL     1      -1.991   3.739  25.902  0.00  0.00    +0.103 C 
BRANCH  13  21
ATOM      1  O   UNL     1      -3.553   4.158  27.701  0.00  0.00    -0.276 OA
ATOM      3  N   UNL     1      -4.357   3.561  25.604  0.00  0.00    -0.312 N 
ATOM     21  C   UNL     1      -3.363   3.851  26.528  0.00  0.00    +0.214 C 
ATOM     32  H   UNL     1      -4.095   3.358  24.644  0.00  0.00    +0.149 HD
BRANCH   3  15
ATOM     15  C   UNL     1      -5.762   3.588  25.925  0.00  0.00    +0.073 C 
ATOM     18  C   UNL     1      -6.124   2.527  26.957  0.00  0.00    +0.022 C 
ATOM     19  C   UNL     1      -6.627   3.204  24.730  0.00  0.00    +0.022 C 
ATOM     22  C   UNL     1      -6.278   1.242  26.149  0.00  0.00    +0.002 C 
ATOM     23  C   UNL     1      -6.643   1.676  24.729  0.00  0.00    +0.002 C 
ENDBRANCH   3  15
ENDBRANCH  13  21
ENDBRANCH   9  13
BRANCH   7  14
ATOM     14  C   UNL     1      -0.603  -0.729  24.682  0.00  0.00    +0.112 C 
BRANCH  14   4
ATOM      2  O   UNL     1       0.813  -0.590  22.188  0.00  0.00    -0.270 OA
ATOM      4  N   UNL     1       0.810  -0.599  24.508  0.00  0.00    -0.311 N 
ATOM     24  C   UNL     1       1.418  -0.539  23.254  0.00  0.00    +0.244 C 
ATOM     33  H   UNL     1       1.376  -0.559  25.349  0.00  0.00    +0.149 HD
BRANCH  24  25
ATOM     25  C   UNL     1       2.900  -0.429  23.245  0.00  0.00    +0.037 A 
ATOM     26  C   UNL     1       3.512   0.704  22.708  0.00  0.00    +0.014 A 
ATOM     27  C   UNL     1       3.680  -1.459  23.772  0.00  0.00    +0.014 A 
ATOM     28  C   UNL     1       4.903   0.807  22.700  0.00  0.00    +0.019 A 
ATOM     29  C   UNL     1       5.071  -1.355  23.762  0.00  0.00    +0.019 A 
ATOM     30  C   UNL     1       5.682  -0.223  23.226  0.00  0.00    +0.052 A 
BRANCH  30  31
ATOM      5  N   UNL     1       8.265  -0.031  23.208  0.00  0.00    -0.191 NA
ATOM     31  C   UNL     1       7.107  -0.117  23.216  0.00  0.00    +0.099 C 
ENDBRANCH  30  31
ENDBRANCH  24  25
ENDBRANCH  14   4
ENDBRANCH   7  14
TORSDOF 8
ENDMDL
MODEL 4
REMARK VINA RESULT:       2.8      1.604      3.908
REMARK  Name = 38027302
REMARK  11 active torsions:
REMARK  status: ('A' for Active; 'I' for Inactive)
REMARK    1  A    between atoms: N_3  and  C_15
REMARK    2  A    between atoms: N_4  and  C_14
REMARK    3  A    between atoms: C_6  and  C_10
REMARK    4  A    between atoms: C_7  and  C_14
REMARK    5  A    between atoms: C_9  and  C_13
REMARK    6  A    between atoms: C_10  and  C_16
REMARK    7  A    between atoms: C_10  and  C_17
REMARK    8  A    between atoms: C_11  and  C_20
REMARK    9  A    between atoms: C_13  and  C_21
REMARK   10  A    between atoms: C_24  and  C_25
REMARK   11  A    between atoms: C_30  and  C_31
REMARK                            x       y       z     vdW  Elec       q    Type
REMARK                         _______ _______ _______ _____ _____    ______ ____
ROOT
ATOM      6  C   UNL     1      -2.788   2.677  23.413  0.00  0.00    +0.000 C 
ATOM      7  C   UNL     1      -1.414   2.432  24.085  0.00  0.00    +0.032 C 
ATOM      8  C   UNL     1      -3.395   4.002  23.900  0.00  0.00    +0.012 C 
ATOM      9  C   UNL     1      -3.587   4.027  25.428  0.00  0.00    +0.023 C 
ATOM     11  C   UNL     1      -2.354   3.537  26.160  0.00  0.00    -0.073 C 
ATOM     12  C   UNL     1      -1.387   2.839  25.540  0.00  0.00    -0.022 C 
ATOM     20  C   UNL     1      -2.235   3.911  27.611  0.00  0.00    +0.039 C 
ENDROOT
BRANCH   6  10
ATOM     10  C   UNL     1      -2.680   2.688  21.885  0.00  0.00    -0.013 C 
ATOM     16  C   UNL     1      -2.504   1.267  21.355  0.00  0.00    +0.007 C 
ATOM     17  C   UNL     1      -3.908   3.346  21.268  0.00  0.00    +0.007 C 
ENDBRANCH   6  10
BRANCH   9  13
ATOM     13  C   UNL     1      -4.826   3.223  25.843  0.00  0.00    +0.103 C 
BRANCH  13  21
ATOM      1  O   UNL     1      -5.486   1.954  23.891  0.00  0.00    -0.276 OA
ATOM      3  N   UNL     1      -4.518   0.857  25.697  0.00  0.00    -0.312 N 
ATOM     21  C   UNL     1      -4.992   1.969  25.015  0.00  0.00    +0.214 C 
ATOM     32  H   UNL     1      -4.089   0.982  26.609  0.00  0.00    +0.149 HD
BRANCH   3  15
ATOM     15  C   UNL     1      -4.552  -0.476  25.149  0.00  0.00    +0.073 C 
ATOM     18  C   UNL     1      -3.948  -1.495  26.108  0.00  0.00    +0.022 C 
ATOM     19  C   UNL     1      -3.665  -0.608  23.916  0.00  0.00    +0.022 C 
ATOM     22  C   UNL     1      -2.442  -1.384  25.888  0.00  0.00    +0.002 C 
ATOM     23  C   UNL     1      -2.260  -0.855  24.464  0.00  0.00    +0.002 C 
ENDBRANCH   3  15
ENDBRANCH  13  21
ENDBRANCH   9  13
BRANCH   7  14
ATOM     14  C   UNL     1      -0.989   0.965  23.957  0.00  0.00    +0.112 C 
BRANCH  14   4
ATOM      2  O   UNL     1       0.535  -0.720  22.200  0.00  0.00    -0.270 OA
ATOM      4  N   UNL     1       0.436   0.852  23.903  0.00  0.00    -0.311 N 
ATOM     24  C   UNL     1       1.097   0.005  23.015  0.00  0.00    +0.244 C 
ATOM     33  H   UNL     1       0.967   1.418  24.556  0.00  0.00    +0.149 HD
BRANCH  24  25
ATOM     25  C   UNL     1       2.580  -0.016  23.104  0.00  0.00    +0.037 A 
ATOM     26  C   UNL     1       3.235  -1.162  23.556  0.00  0.00    +0.014 A 
ATOM     27  C   UNL     1       3.318   1.109  22.736  0.00  0.00    +0.014 A 
ATOM     28  C   UNL     1       4.627  -1.183  23.638  0.00  0.00    +0.019 A 
ATOM     29  C   UNL     1       4.710   1.088  22.819  0.00  0.00    +0.019 A 
ATOM     30  C   UNL     1       5.364  -0.058  23.271  0.00  0.00    +0.052 A 
BRANCH  30  31
ATOM      5  N   UNL     1       7.949  -0.095  23.426  0.00  0.00    -0.191 NA
ATOM     31  C   UNL     1       6.791  -0.079  23.357  0.00  0.00    +0.099 C 
ENDBRANCH  30  31
ENDBRANCH  24  25
ENDBRANCH  14   4
ENDBRANCH   7  14
TORSDOF 8
ENDMDL
MODEL 5
REMARK VINA RESULT:       3.0      2.246      4.559
REMARK  Name = 38027302
REMARK  11 active torsions:
REMARK  status: ('A' for Active; 'I' for Inactive)
REMARK    1  A    between atoms: N_3  and  C_15
REMARK    2  A    between atoms: N_4  and  C_14
REMARK    3  A    between atoms: C_6  and  C_10
REMARK    4  A    between atoms: C_7  and  C_14
REMARK    5  A    between atoms: C_9  and  C_13
REMARK    6  A    between atoms: C_10  and  C_16
REMARK    7  A    between atoms: C_10  and  C_17
REMARK    8  A    between atoms: C_11  and  C_20
REMARK    9  A    between atoms: C_13  and  C_21
REMARK   10  A    between atoms: C_24  and  C_25
REMARK   11  A    between atoms: C_30  and  C_31
REMARK                            x       y       z     vdW  Elec       q    Type
REMARK                         _______ _______ _______ _____ _____    ______ ____
ROOT
ATOM      6  C   UNL     1      -2.918   1.119  24.655  0.00  0.00    +0.000 C 
ATOM      7  C   UNL     1      -1.854   0.802  23.575  0.00  0.00    +0.032 C 
ATOM      8  C   UNL     1      -3.274   2.614  24.635  0.00  0.00    +0.012 C 
ATOM      9  C   UNL     1      -2.044   3.508  24.882  0.00  0.00    +0.023 C 
ATOM     11  C   UNL     1      -0.859   3.083  24.039  0.00  0.00    -0.073 C 
ATOM     12  C   UNL     1      -0.798   1.876  23.451  0.00  0.00    -0.022 C 
ATOM     20  C   UNL     1       0.234   4.098  23.848  0.00  0.00    +0.039 C 
ENDROOT
BRANCH   6  10
ATOM     10  C   UNL     1      -4.186   0.281  24.468  0.00  0.00    -0.013 C 
ATOM     16  C   UNL     1      -4.037  -1.071  25.159  0.00  0.00    +0.007 C 
ATOM     17  C   UNL     1      -5.402   1.030  25.001  0.00  0.00    +0.007 C 
ENDBRANCH   6  10
BRANCH   9  13
ATOM     13  C   UNL     1      -1.675   3.542  26.370  0.00  0.00    +0.103 C 
BRANCH  13  21
ATOM      1  O   UNL     1      -0.724   1.318  26.413  0.00  0.00    -0.276 OA
ATOM      3  N   UNL     1       0.417   3.070  27.428  0.00  0.00    -0.312 N 
ATOM     21  C   UNL     1      -0.634   2.503  26.720  0.00  0.00    +0.214 C 
ATOM     32  H   UNL     1       0.415   4.072  27.596  0.00  0.00    +0.149 HD
BRANCH   3  15
ATOM     15  C   UNL     1       1.551   2.314  27.895  0.00  0.00    +0.073 C 
ATOM     18  C   UNL     1       1.251   1.603  29.208  0.00  0.00    +0.022 C 
ATOM     19  C   UNL     1       2.725   3.214  28.260  0.00  0.00    +0.022 C 
ATOM     22  C   UNL     1       1.456   2.671  30.279  0.00  0.00    +0.002 C 
ATOM     23  C   UNL     1       2.436   3.683  29.685  0.00  0.00    +0.002 C 
ENDBRANCH   3  15
ENDBRANCH  13  21
ENDBRANCH   9  13
BRANCH   7  14
ATOM     14  C   UNL     1      -1.180  -0.549  23.840  0.00  0.00    +0.112 C 
BRANCH  14   4
ATOM      2  O   UNL     1       0.617  -0.618  21.601  0.00  0.00    -0.270 OA
ATOM      4  N   UNL     1       0.242  -0.407  23.881  0.00  0.00    -0.311 N 
ATOM     24  C   UNL     1       1.043  -0.454  22.741  0.00  0.00    +0.244 C 
ATOM     33  H   UNL     1       0.666  -0.276  24.793  0.00  0.00    +0.149 HD
BRANCH  24  25
ATOM     25  C   UNL     1       2.507  -0.317  22.956  0.00  0.00    +0.037 A 
ATOM     26  C   UNL     1       3.228  -1.362  23.534  0.00  0.00    +0.014 A 
ATOM     27  C   UNL     1       3.161   0.857  22.581  0.00  0.00    +0.014 A 
ATOM     28  C   UNL     1       4.602  -1.235  23.735  0.00  0.00    +0.019 A 
ATOM     29  C   UNL     1       4.535   0.984  22.783  0.00  0.00    +0.019 A 
ATOM     30  C   UNL     1       5.255  -0.061  23.360  0.00  0.00    +0.052 A 
BRANCH  30  31
ATOM      5  N   UNL     1       7.806   0.177  23.737  0.00  0.00    -0.191 NA
ATOM     31  C   UNL     1       6.663   0.070  23.568  0.00  0.00    +0.099 C 
ENDBRANCH  30  31
ENDBRANCH  24  25
ENDBRANCH  14   4
ENDBRANCH   7  14
TORSDOF 8
ENDMDL
MODEL 6
REMARK VINA RESULT:       3.1      2.081      4.857
REMARK  Name = 38027302
REMARK  11 active torsions:
REMARK  status: ('A' for Active; 'I' for Inactive)
REMARK    1  A    between atoms: N_3  and  C_15
REMARK    2  A    between atoms: N_4  and  C_14
REMARK    3  A    between atoms: C_6  and  C_10
REMARK    4  A    between atoms: C_7  and  C_14
REMARK    5  A    between atoms: C_9  and  C_13
REMARK    6  A    between atoms: C_10  and  C_16
REMARK    7  A    between atoms: C_10  and  C_17
REMARK    8  A    between atoms: C_11  and  C_20
REMARK    9  A    between atoms: C_13  and  C_21
REMARK   10  A    between atoms: C_24  and  C_25
REMARK   11  A    between atoms: C_30  and  C_31
REMARK                            x       y       z     vdW  Elec       q    Type
REMARK                         _______ _______ _______ _____ _____    ______ ____
ROOT
ATOM      6  C   UNL     1      -3.912   2.681  24.763  0.00  0.00    +0.000 C 
ATOM      7  C   UNL     1      -3.308   3.169  23.422  0.00  0.00    +0.032 C 
ATOM      8  C   UNL     1      -3.938   3.824  25.788  0.00  0.00    +0.012 C 
ATOM      9  C   UNL     1      -2.533   4.391  26.064  0.00  0.00    +0.023 C 
ATOM     11  C   UNL     1      -1.767   4.649  24.781  0.00  0.00    -0.073 C 
ATOM     12  C   UNL     1      -2.137   4.106  23.608  0.00  0.00    -0.022 C 
ATOM     20  C   UNL     1      -0.594   5.585  24.870  0.00  0.00    +0.039 C 
ENDROOT
BRANCH   6  10
ATOM     10  C   UNL     1      -5.324   2.117  24.577  0.00  0.00    -0.013 C 
ATOM     16  C   UNL     1      -5.291   0.592  24.567  0.00  0.00    +0.007 C 
ATOM     17  C   UNL     1      -6.250   2.630  25.675  0.00  0.00    +0.007 C 
ENDBRANCH   6  10
BRANCH   9  13
ATOM     13  C   UNL     1      -1.739   3.472  27.000  0.00  0.00    +0.103 C 
BRANCH  13  21
ATOM      1  O   UNL     1       0.052   2.369  25.806  0.00  0.00    -0.276 OA
ATOM      3  N   UNL     1      -1.952   1.245  26.157  0.00  0.00    -0.312 N 
ATOM     21  C   UNL     1      -1.089   2.327  26.257  0.00  0.00    +0.214 C 
ATOM     32  H   UNL     1      -2.864   1.298  26.602  0.00  0.00    +0.149 HD
BRANCH   3  15
ATOM     15  C   UNL     1      -1.598   0.014  25.496  0.00  0.00    +0.073 C 
ATOM     18  C   UNL     1      -2.828  -0.723  24.982  0.00  0.00    +0.022 C 
ATOM     19  C   UNL     1      -0.980  -0.993  26.460  0.00  0.00    +0.022 C 
ATOM     22  C   UNL     1      -3.365  -1.469  26.200  0.00  0.00    +0.002 C 
ATOM     23  C   UNL     1      -2.169  -1.680  27.129  0.00  0.00    +0.002 C 
ENDBRANCH   3  15
ENDBRANCH  13  21
ENDBRANCH   9  13
BRANCH   7  14
ATOM     14  C   UNL     1      -2.882   1.989  22.543  0.00  0.00    +0.112 C 
BRANCH  14   4
ATOM      2  O   UNL     1      -1.531  -0.540  22.702  0.00  0.00    -0.270 OA
ATOM      4  N   UNL     1      -1.471   1.778  22.623  0.00  0.00    -0.311 N 
ATOM     24  C   UNL     1      -0.895   0.510  22.698  0.00  0.00    +0.244 C 
ATOM     33  H   UNL     1      -0.882   2.604  22.634  0.00  0.00    +0.149 HD
BRANCH  24  25
ATOM     25  C   UNL     1       0.586   0.463  22.804  0.00  0.00    +0.037 A 
ATOM     26  C   UNL     1       1.266   1.455  23.511  0.00  0.00    +0.014 A 
ATOM     27  C   UNL     1       1.297  -0.573  22.198  0.00  0.00    +0.014 A 
ATOM     28  C   UNL     1       2.657   1.411  23.612  0.00  0.00    +0.019 A 
ATOM     29  C   UNL     1       2.688  -0.616  22.299  0.00  0.00    +0.019 A 
ATOM     30  C   UNL     1       3.367   0.375  23.005  0.00  0.00    +0.052 A 
BRANCH  30  31
ATOM      5  N   UNL     1       5.949   0.294  23.190  0.00  0.00    -0.191 NA
ATOM     31  C   UNL     1       4.792   0.330  23.108  0.00  0.00    +0.099 C 
ENDBRANCH  30  31
ENDBRANCH  24  25
ENDBRANCH  14   4
ENDBRANCH   7  14
TORSDOF 8
ENDMDL
MODEL 7
REMARK VINA RESULT:       3.2      2.269      4.898
REMARK  Name = 38027302
REMARK  11 active torsions:
REMARK  status: ('A' for Active; 'I' for Inactive)
REMARK    1  A    between atoms: N_3  and  C_15
REMARK    2  A    between atoms: N_4  and  C_14
REMARK    3  A    between atoms: C_6  and  C_10
REMARK    4  A    between atoms: C_7  and  C_14
REMARK    5  A    between atoms: C_9  and  C_13
REMARK    6  A    between atoms: C_10  and  C_16
REMARK    7  A    between atoms: C_10  and  C_17
REMARK    8  A    between atoms: C_11  and  C_20
REMARK    9  A    between atoms: C_13  and  C_21
REMARK   10  A    between atoms: C_24  and  C_25
REMARK   11  A    between atoms: C_30  and  C_31
REMARK                            x       y       z     vdW  Elec       q    Type
REMARK                         _______ _______ _______ _____ _____    ______ ____
ROOT
ATOM      6  C   UNL     1      -2.375   4.219  25.115  0.00  0.00    +0.000 C 
ATOM      7  C   UNL     1      -2.645   4.005  26.625  0.00  0.00    +0.032 C 
ATOM      8  C   UNL     1      -3.670   4.616  24.389  0.00  0.00    +0.012 C 
ATOM      9  C   UNL     1      -4.773   3.552  24.543  0.00  0.00    +0.023 C 
ATOM     11  C   UNL     1      -4.916   3.091  25.979  0.00  0.00    -0.073 C 
ATOM     12  C   UNL     1      -3.961   3.315  26.899  0.00  0.00    -0.022 C 
ATOM     20  C   UNL     1      -6.204   2.407  26.346  0.00  0.00    +0.039 C 
ENDROOT
BRANCH   6  10
ATOM     10  C   UNL     1      -1.299   5.282  24.875  0.00  0.00    -0.013 C 
ATOM     16  C   UNL     1      -0.419   4.890  23.691  0.00  0.00    +0.007 C 
ATOM     17  C   UNL     1      -1.940   6.646  24.643  0.00  0.00    +0.007 C 
ENDBRANCH   6  10
BRANCH   9  13
ATOM     13  C   UNL     1      -4.527   2.363  23.607  0.00  0.00    +0.103 C 
BRANCH  13  21
ATOM      1  O   UNL     1      -6.313   0.939  24.404  0.00  0.00    -0.276 OA
ATOM      3  N   UNL     1      -4.144   0.110  24.312  0.00  0.00    -0.312 N 
ATOM     21  C   UNL     1      -5.121   1.082  24.148  0.00  0.00    +0.214 C 
ATOM     32  H   UNL     1      -3.190   0.317  24.031  0.00  0.00    +0.149 HD
BRANCH   3  15
ATOM     15  C   UNL     1      -4.424  -1.211  24.815  0.00  0.00    +0.073 C 
ATOM     18  C   UNL     1      -3.522  -1.570  25.989  0.00  0.00    +0.022 C 
ATOM     19  C   UNL     1      -4.093  -2.292  23.792  0.00  0.00    +0.022 C 
ATOM     22  C   UNL     1      -2.219  -2.033  25.344  0.00  0.00    +0.002 C 
ATOM     23  C   UNL     1      -2.593  -2.537  23.949  0.00  0.00    +0.002 C 
ENDBRANCH   3  15
ENDBRANCH  13  21
ENDBRANCH   9  13
BRANCH   7  14
ATOM     14  C   UNL     1      -1.508   3.217  27.285  0.00  0.00    +0.112 C 
BRANCH  14   4
ATOM      2  O   UNL     1      -1.903   0.979  25.529  0.00  0.00    -0.270 OA
ATOM      4  N   UNL     1      -0.591   2.729  26.303  0.00  0.00    -0.311 N 
ATOM     24  C   UNL     1      -0.864   1.631  25.488  0.00  0.00    +0.244 C 
ATOM     33  H   UNL     1       0.295   3.215  26.219  0.00  0.00    +0.149 HD
BRANCH  24  25
ATOM     25  C   UNL     1       0.205   1.234  24.536  0.00  0.00    +0.037 A 
ATOM     26  C   UNL     1       0.116   0.020  23.854  0.00  0.00    +0.014 A 
ATOM     27  C   UNL     1       1.298   2.075  24.322  0.00  0.00    +0.014 A 
ATOM     28  C   UNL     1       1.118  -0.353  22.958  0.00  0.00    +0.019 A 
ATOM     29  C   UNL     1       2.300   1.701  23.427  0.00  0.00    +0.019 A 
ATOM     30  C   UNL     1       2.211   0.488  22.746  0.00  0.00    +0.052 A 
BRANCH  30  31
ATOM      5  N   UNL     1       4.073  -0.205  21.085  0.00  0.00    -0.191 NA
ATOM     31  C   UNL     1       3.239   0.106  21.829  0.00  0.00    +0.099 C 
ENDBRANCH  30  31
ENDBRANCH  24  25
ENDBRANCH  14   4
ENDBRANCH   7  14
TORSDOF 8
ENDMDL
MODEL 8
REMARK VINA RESULT:       4.1      3.102      6.605
REMARK  Name = 38027302
REMARK  11 active torsions:
REMARK  status: ('A' for Active; 'I' for Inactive)
REMARK    1  A    between atoms: N_3  and  C_15
REMARK    2  A    between atoms: N_4  and  C_14
REMARK    3  A    between atoms: C_6  and  C_10
REMARK    4  A    between atoms: C_7  and  C_14
REMARK    5  A    between atoms: C_9  and  C_13
REMARK    6  A    between atoms: C_10  and  C_16
REMARK    7  A    between atoms: C_10  and  C_17
REMARK    8  A    between atoms: C_11  and  C_20
REMARK    9  A    between atoms: C_13  and  C_21
REMARK   10  A    between atoms: C_24  and  C_25
REMARK   11  A    between atoms: C_30  and  C_31
REMARK                            x       y       z     vdW  Elec       q    Type
REMARK                         _______ _______ _______ _____ _____    ______ ____
ROOT
ATOM      6  C   UNL     1       0.257   1.817  24.161  0.00  0.00    +0.000 C 
ATOM      7  C   UNL     1       0.297   2.284  25.637  0.00  0.00    +0.032 C 
ATOM      8  C   UNL     1       0.343   3.023  23.213  0.00  0.00    +0.012 C 
ATOM      9  C   UNL     1      -0.805   4.025  23.440  0.00  0.00    +0.023 C 
ATOM     11  C   UNL     1      -1.003   4.332  24.911  0.00  0.00    -0.073 C 
ATOM     12  C   UNL     1      -0.492   3.551  25.878  0.00  0.00    -0.022 C 
ATOM     20  C   UNL     1      -1.765   5.585  25.244  0.00  0.00    +0.039 C 
ENDROOT
BRANCH   6  10
ATOM     10  C   UNL     1       1.384   0.829  23.847  0.00  0.00    -0.013 C 
ATOM     16  C   UNL     1       0.864  -0.312  22.977  0.00  0.00    +0.007 C 
ATOM     17  C   UNL     1       2.544   1.545  23.163  0.00  0.00    +0.007 C 
ENDBRANCH   6  10
BRANCH   9  13
ATOM     13  C   UNL     1      -2.108   3.526  22.804  0.00  0.00    +0.103 C 
BRANCH  13  21
ATOM      1  O   UNL     1      -2.528   1.216  23.389  0.00  0.00    -0.276 OA
ATOM      3  N   UNL     1      -3.574   2.909  24.589  0.00  0.00    -0.312 N 
ATOM     21  C   UNL     1      -2.738   2.407  23.601  0.00  0.00    +0.214 C 
ATOM     32  H   UNL     1      -3.648   3.916  24.709  0.00  0.00    +0.149 HD
BRANCH   3  15
ATOM     15  C   UNL     1      -4.310   2.069  25.500  0.00  0.00    +0.073 C 
ATOM     18  C   UNL     1      -5.389   1.269  24.781  0.00  0.00    +0.022 C 
ATOM     19  C   UNL     1      -5.111   2.887  26.507  0.00  0.00    +0.022 C 
ATOM     22  C   UNL     1      -6.560   2.238  24.645  0.00  0.00    +0.002 C 
ATOM     23  C   UNL     1      -6.404   3.252  25.780  0.00  0.00    +0.002 C 
ENDBRANCH   3  15
ENDBRANCH  13  21
ENDBRANCH   9  13
BRANCH   7  14
ATOM     14  C   UNL     1      -0.202   1.185  26.581  0.00  0.00    +0.112 C 
BRANCH  14   4
ATOM      2  O   UNL     1      -0.040  -1.638  26.076  0.00  0.00    -0.270 OA
ATOM      4  N   UNL     1      -1.189   0.373  25.938  0.00  0.00    -0.311 N 
ATOM     24  C   UNL     1      -1.028  -0.996  25.732  0.00  0.00    +0.244 C 
ATOM     33  H   UNL     1      -2.031   0.839  25.619  0.00  0.00    +0.149 HD
BRANCH  24  25
ATOM     25  C   UNL     1      -2.135  -1.691  25.025  0.00  0.00    +0.037 A 
ATOM     26  C   UNL     1      -3.432  -1.180  25.087  0.00  0.00    +0.014 A 
ATOM     27  C   UNL     1      -1.878  -2.854  24.298  0.00  0.00    +0.014 A 
ATOM     28  C   UNL     1      -4.471  -1.831  24.422  0.00  0.00    +0.019 A 
ATOM     29  C   UNL     1      -2.918  -3.505  23.634  0.00  0.00    +0.019 A 
ATOM     30  C   UNL     1      -4.213  -2.994  23.696  0.00  0.00    +0.052 A 
BRANCH  30  31
ATOM      5  N   UNL     1      -6.143  -4.204  22.464  0.00  0.00    -0.191 NA
ATOM     31  C   UNL     1      -5.279  -3.662  23.016  0.00  0.00    +0.099 C 
ENDBRANCH  30  31
ENDBRANCH  24  25
ENDBRANCH  14   4
ENDBRANCH   7  14
TORSDOF 8
ENDMDL
