MODEL 1
REMARK VINA RESULT:      16.5      0.000      0.000
REMARK  Name = 11882857
REMARK  12 active torsions:
REMARK  status: ('A' for Active; 'I' for Inactive)
REMARK    1  A    between atoms: O_3  and  C_16
REMARK    2  A    between atoms: O_4  and  C_21
REMARK    3  A    between atoms: O_7  and  C_38
REMARK    4  A    between atoms: O_7  and  C_39
REMARK    5  A    between atoms: N_9  and  C_27
REMARK    6  A    between atoms: C_11  and  C_19
REMARK    7  A    between atoms: C_13  and  C_21
REMARK    8  A    between atoms: C_13  and  C_22
REMARK    9  A    between atoms: C_14  and  C_24
REMARK   10  A    between atoms: C_24  and  C_25
REMARK   11  A    between atoms: C_27  and  C_29
REMARK   12  A    between atoms: C_28  and  C_30
REMARK                            x       y       z     vdW  Elec       q    Type
REMARK                         _______ _______ _______ _____ _____    ______ ____
ROOT
ATOM      1  S   UNL     1       0.622   2.171  25.859  0.00  0.00    -0.057 S 
ATOM      6  O   UNL     1       2.335   0.604  21.824  0.00  0.00    -0.270 OA
ATOM      8  N   UNL     1       0.061   1.680  23.382  0.00  0.00    -0.229 NA
ATOM     10  N   UNL     1       2.314   1.210  24.101  0.00  0.00    -0.261 N 
ATOM     11  C   UNL     1      -3.613   2.534  24.178  0.00  0.00    -0.019 C 
ATOM     12  C   UNL     1      -3.207   3.582  25.307  0.00  0.00    +0.011 C 
ATOM     13  C   UNL     1      -4.381   4.228  26.140  0.00  0.00    +0.021 C 
ATOM     14  C   UNL     1      -2.362   2.354  23.200  0.00  0.00    +0.054 C 
ATOM     15  C   UNL     1      -4.800   3.097  23.355  0.00  0.00    +0.010 C 
ATOM     16  C   UNL     1      -5.501   4.694  25.168  0.00  0.00    +0.123 C 
ATOM     17  C   UNL     1      -2.036   3.048  26.184  0.00  0.00    +0.049 C 
ATOM     18  C   UNL     1      -5.957   3.602  24.206  0.00  0.00    +0.032 C 
ATOM     19  C   UNL     1      -4.018   1.155  24.756  0.00  0.00    +0.012 C 
ATOM     20  C   UNL     1      -1.087   2.163  23.981  0.00  0.00    +0.058 A 
ATOM     22  C   UNL     1      -3.847   5.492  26.871  0.00  0.00    +0.016 C 
ATOM     23  C   UNL     1      -0.957   2.498  25.313  0.00  0.00    +0.015 A 
ATOM     26  C   UNL     1       1.024   1.634  24.278  0.00  0.00    +0.165 A 
ATOM     28  C   UNL     1       2.885   0.729  22.912  0.00  0.00    +0.250 C 
ATOM     43  H   UNL     1       2.889   1.306  24.932  0.00  0.00    +0.157 HD
ENDROOT
BRANCH  28  30
ATOM     30  C   UNL     1       4.324   0.365  22.998  0.00  0.00    +0.037 A 
ATOM     32  C   UNL     1       4.944  -0.286  21.932  0.00  0.00    +0.016 A 
ATOM     33  C   UNL     1       5.055   0.676  24.146  0.00  0.00    +0.016 A 
ATOM     36  C   UNL     1       6.294  -0.628  22.013  0.00  0.00    +0.046 A 
ATOM     37  C   UNL     1       6.405   0.335  24.226  0.00  0.00    +0.046 A 
ATOM     38  C   UNL     1       7.024  -0.317  23.160  0.00  0.00    +0.120 A 
BRANCH  38   7
ATOM      7  O   UNL     1       8.342  -0.648  23.239  0.00  0.00    -0.495 OA
ATOM     39  C   UNL     1       9.285   0.420  23.163  0.00  0.00    +0.277 C 
ENDBRANCH  38   7
ENDBRANCH  28  30
BRANCH  16   3
ATOM      3  O   UNL     1      -6.634   5.166  25.897  0.00  0.00    -0.391 OA
ATOM     40  H   UNL     1      -7.414   4.681  25.575  0.00  0.00    +0.210 HD
ENDBRANCH  16   3
BRANCH  13  21
ATOM     21  C   UNL     1      -4.957   3.318  27.248  0.00  0.00    +0.165 C 
BRANCH  21   4
ATOM      4  O   UNL     1      -6.082   2.655  26.720  0.00  0.00    -0.394 OA
ATOM     41  H   UNL     1      -6.860   3.203  26.914  0.00  0.00    +0.209 HD
ENDBRANCH  21   4
ENDBRANCH  13  21
BRANCH  14  24
ATOM     24  C   UNL     1      -2.538   1.263  22.135  0.00  0.00    +0.106 C 
BRANCH  24  25
ATOM      5  O   UNL     1      -3.627  -0.739  22.948  0.00  0.00    -0.276 OA
ATOM      9  N   UNL     1      -1.310  -0.579  23.034  0.00  0.00    -0.311 N 
ATOM     25  C   UNL     1      -2.587  -0.119  22.744  0.00  0.00    +0.214 C 
ATOM     42  H   UNL     1      -0.510   0.006  22.814  0.00  0.00    +0.149 HD
BRANCH   9  27
ATOM     27  C   UNL     1      -1.052  -1.872  23.628  0.00  0.00    +0.146 C 
BRANCH  27  29
ATOM      2  S   UNL     1      -1.602  -1.007  26.208  0.00  0.00    -0.100 S 
ATOM     29  C   UNL     1      -1.886  -2.029  24.864  0.00  0.00    +0.007 A 
ATOM     31  C   UNL     1      -2.907  -2.923  25.101  0.00  0.00    +0.013 A 
ATOM     34  C   UNL     1      -3.463  -2.767  26.404  0.00  0.00    +0.008 A 
ATOM     35  C   UNL     1      -2.846  -1.760  27.112  0.00  0.00    +0.045 A 
ENDBRANCH  27  29
ENDBRANCH   9  27
ENDBRANCH  24  25
ENDBRANCH  14  24
TORSDOF 9
ENDMDL
MODEL 2
REMARK VINA RESULT:      19.7      2.380      3.877
REMARK  Name = 11882857
REMARK  12 active torsions:
REMARK  status: ('A' for Active; 'I' for Inactive)
REMARK    1  A    between atoms: O_3  and  C_16
REMARK    2  A    between atoms: O_4  and  C_21
REMARK    3  A    between atoms: O_7  and  C_38
REMARK    4  A    between atoms: O_7  and  C_39
REMARK    5  A    between atoms: N_9  and  C_27
REMARK    6  A    between atoms: C_11  and  C_19
REMARK    7  A    between atoms: C_13  and  C_21
REMARK    8  A    between atoms: C_13  and  C_22
REMARK    9  A    between atoms: C_14  and  C_24
REMARK   10  A    between atoms: C_24  and  C_25
REMARK   11  A    between atoms: C_27  and  C_29
REMARK   12  A    between atoms: C_28  and  C_30
REMARK                            x       y       z     vdW  Elec       q    Type
REMARK                         _______ _______ _______ _____ _____    ______ ____
ROOT
ATOM      1  S   UNL     1      -0.641  -0.647  23.892  0.00  0.00    -0.057 S 
ATOM      6  O   UNL     1       2.904   2.370  23.776  0.00  0.00    -0.270 OA
ATOM      8  N   UNL     1       0.033   1.826  24.244  0.00  0.00    -0.229 NA
ATOM     10  N   UNL     1       1.785   0.304  23.591  0.00  0.00    -0.261 N 
ATOM     11  C   UNL     1      -3.703   2.640  24.738  0.00  0.00    -0.019 C 
ATOM     12  C   UNL     1      -4.014   1.206  25.357  0.00  0.00    +0.011 C 
ATOM     13  C   UNL     1      -5.524   0.875  25.674  0.00  0.00    +0.021 C 
ATOM     14  C   UNL     1      -2.139   2.921  24.909  0.00  0.00    +0.054 C 
ATOM     15  C   UNL     1      -4.483   3.722  25.527  0.00  0.00    +0.010 C 
ATOM     16  C   UNL     1      -6.164   2.078  26.423  0.00  0.00    +0.123 C 
ATOM     17  C   UNL     1      -3.276   0.078  24.577  0.00  0.00    +0.049 C 
ATOM     18  C   UNL     1      -5.963   3.409  25.706  0.00  0.00    +0.032 C 
ATOM     19  C   UNL     1      -4.084   2.744  23.240  0.00  0.00    +0.012 C 
ATOM     20  C   UNL     1      -1.324   1.726  24.486  0.00  0.00    +0.058 A 
ATOM     22  C   UNL     1      -5.584  -0.350  26.631  0.00  0.00    +0.016 C 
ATOM     23  C   UNL     1      -1.849   0.456  24.362  0.00  0.00    +0.015 A 
ATOM     26  C   UNL     1       0.497   0.640  23.916  0.00  0.00    +0.165 A 
ATOM     28  C   UNL     1       2.891   1.167  23.540  0.00  0.00    +0.250 C 
ATOM     43  H   UNL     1       1.912  -0.687  23.413  0.00  0.00    +0.157 HD
ENDROOT
BRANCH  28  30
ATOM     30  C   UNL     1       4.185   0.525  23.186  0.00  0.00    +0.037 A 
ATOM     32  C   UNL     1       4.421   0.107  21.877  0.00  0.00    +0.016 A 
ATOM     33  C   UNL     1       5.163   0.341  24.164  0.00  0.00    +0.016 A 
ATOM     36  C   UNL     1       5.635  -0.495  21.544  0.00  0.00    +0.046 A 
ATOM     37  C   UNL     1       6.377  -0.261  23.832  0.00  0.00    +0.046 A 
ATOM     38  C   UNL     1       6.612  -0.679  22.523  0.00  0.00    +0.120 A 
BRANCH  38   7
ATOM      7  O   UNL     1       7.797  -1.265  22.199  0.00  0.00    -0.495 OA
ATOM     39  C   UNL     1       8.983  -0.656  22.707  0.00  0.00    +0.277 C 
ENDBRANCH  38   7
ENDBRANCH  28  30
BRANCH  16   3
ATOM      3  O   UNL     1      -7.563   1.865  26.611  0.00  0.00    -0.391 OA
ATOM     40  H   UNL     1      -7.667   1.107  27.211  0.00  0.00    +0.210 HD
ENDBRANCH  16   3
BRANCH  13  21
ATOM     21  C   UNL     1      -6.367   0.482  24.441  0.00  0.00    +0.165 C 
BRANCH  21   4
ATOM      4  O   UNL     1      -7.317   1.500  24.226  0.00  0.00    -0.394 OA
ATOM     41  H   UNL     1      -6.851   2.350  24.287  0.00  0.00    +0.209 HD
ENDBRANCH  21   4
ENDBRANCH  13  21
BRANCH  14  24
ATOM     24  C   UNL     1      -1.645   4.206  24.231  0.00  0.00    +0.106 C 
BRANCH  24  25
ATOM      5  O   UNL     1       0.116   5.823  24.611  0.00  0.00    -0.276 OA
ATOM      9  N   UNL     1       0.166   3.788  25.732  0.00  0.00    -0.311 N 
ATOM     25  C   UNL     1      -0.370   4.722  24.857  0.00  0.00    +0.214 C 
ATOM     42  H   UNL     1      -0.321   2.908  25.878  0.00  0.00    +0.149 HD
BRANCH   9  27
ATOM     27  C   UNL     1       1.388   4.009  26.472  0.00  0.00    +0.146 C 
BRANCH  27  29
ATOM      2  S   UNL     1       2.766   3.103  28.704  0.00  0.00    -0.100 S 
ATOM     29  C   UNL     1       1.355   3.213  27.741  0.00  0.00    +0.007 A 
ATOM     31  C   UNL     1       0.302   2.511  28.286  0.00  0.00    +0.013 A 
ATOM     34  C   UNL     1       0.658   1.875  29.510  0.00  0.00    +0.008 A 
ATOM     35  C   UNL     1       1.970   2.116  29.854  0.00  0.00    +0.045 A 
ENDBRANCH  27  29
ENDBRANCH   9  27
ENDBRANCH  24  25
ENDBRANCH  14  24
TORSDOF 9
ENDMDL
