MODEL 1
REMARK VINA RESULT:      -1.5      0.000      0.000
REMARK  Name = 45783817
REMARK  8 active torsions:
REMARK  status: ('A' for Active; 'I' for Inactive)
REMARK    1  A    between atoms: N_2  and  C_11
REMARK    2  A    between atoms: N_6  and  C_25
REMARK    3  A    between atoms: N_6  and  C_26
REMARK    4  A    between atoms: N_6  and  C_27
REMARK    5  A    between atoms: C_7  and  C_12
REMARK    6  A    between atoms: C_11  and  C_13
REMARK    7  A    between atoms: C_16  and  C_20
REMARK    8  A    between atoms: C_19  and  C_21
REMARK                            x       y       z     vdW  Elec       q    Type
REMARK                         _______ _______ _______ _____ _____    ______ ____
ROOT
ATOM      1  O   UNL     1      -3.197   2.132  22.169  0.00  0.00    -0.336 OA
ATOM      3  N   UNL     1      -2.001   1.931  24.051  0.00  0.00    -0.190 NA
ATOM      4  N   UNL     1      -1.950   1.623  21.784  0.00  0.00    -0.056 NA
ATOM     12  C   UNL     1      -3.143   2.283  23.517  0.00  0.00    +0.245 A 
ATOM     16  C   UNL     1      -1.301   1.533  22.949  0.00  0.00    +0.204 A 
ENDROOT
BRANCH  16  20
ATOM      5  N   UNL     1       2.320   1.412  23.782  0.00  0.00    -0.240 NA
ATOM     20  C   UNL     1       0.046   1.050  23.047  0.00  0.00    +0.041 A 
ATOM     22  C   UNL     1       0.402  -0.190  22.532  0.00  0.00    +0.016 A 
ATOM     23  C   UNL     1       1.034   1.806  23.658  0.00  0.00    +0.124 A 
ATOM     24  C   UNL     1       1.716  -0.632  22.641  0.00  0.00    +0.044 A 
ATOM     25  C   UNL     1       2.630   0.199  23.269  0.00  0.00    +0.121 A 
BRANCH  25   6
ATOM      6  N   UNL     1       3.963  -0.265  23.374  0.00  0.00    -0.321 N 
ATOM     26  C   UNL     1       5.067   0.610  23.047  0.00  0.00    +0.130 C 
ATOM     27  C   UNL     1       4.231  -1.616  23.818  0.00  0.00    +0.130 C 
ENDBRANCH  25   6
ENDBRANCH  16  20
BRANCH  12   7
ATOM      2  N   UNL     1      -4.612   2.247  25.526  0.00  0.00    -0.287 NA
ATOM      7  C   UNL     1      -4.389   2.827  24.186  0.00  0.00    +0.146 C 
ATOM      8  C   UNL     1      -4.321   4.347  24.424  0.00  0.00    +0.030 C 
ATOM      9  C   UNL     1      -4.579   4.527  25.913  0.00  0.00    +0.017 C 
ATOM     10  C   UNL     1      -5.319   3.265  26.304  0.00  0.00    +0.085 C 
BRANCH   2  11
ATOM     11  C   UNL     1      -5.337   0.983  25.490  0.00  0.00    +0.120 C 
BRANCH  11  13
ATOM     13  C   UNL     1      -4.437  -0.169  25.128  0.00  0.00    -0.033 A 
ATOM     14  C   UNL     1      -3.314  -0.447  25.906  0.00  0.00    +0.005 A 
ATOM     15  C   UNL     1      -4.724  -0.955  24.012  0.00  0.00    +0.005 A 
ATOM     17  C   UNL     1      -2.478  -1.512  25.569  0.00  0.00    +0.003 A 
ATOM     18  C   UNL     1      -3.889  -2.020  23.676  0.00  0.00    +0.003 A 
ATOM     19  C   UNL     1      -2.766  -2.299  24.454  0.00  0.00    -0.050 A 
ATOM     21  C   UNL     1      -1.872  -3.438  24.094  0.00  0.00    +0.044 C 
ENDBRANCH  11  13
ENDBRANCH   2  11
ENDBRANCH  12   7
TORSDOF 5
ENDMDL
MODEL 2
REMARK VINA RESULT:      -1.0      1.172      1.388
REMARK  Name = 45783817
REMARK  8 active torsions:
REMARK  status: ('A' for Active; 'I' for Inactive)
REMARK    1  A    between atoms: N_2  and  C_11
REMARK    2  A    between atoms: N_6  and  C_25
REMARK    3  A    between atoms: N_6  and  C_26
REMARK    4  A    between atoms: N_6  and  C_27
REMARK    5  A    between atoms: C_7  and  C_12
REMARK    6  A    between atoms: C_11  and  C_13
REMARK    7  A    between atoms: C_16  and  C_20
REMARK    8  A    between atoms: C_19  and  C_21
REMARK                            x       y       z     vdW  Elec       q    Type
REMARK                         _______ _______ _______ _____ _____    ______ ____
ROOT
ATOM      1  O   UNL     1      -2.577   3.604  25.147  0.00  0.00    -0.336 OA
ATOM      3  N   UNL     1      -2.406   1.739  23.920  0.00  0.00    -0.190 NA
ATOM      4  N   UNL     1      -1.206   3.340  25.030  0.00  0.00    -0.056 NA
ATOM     12  C   UNL     1      -3.211   2.615  24.465  0.00  0.00    +0.245 A 
ATOM     16  C   UNL     1      -1.187   2.225  24.293  0.00  0.00    +0.204 A 
ENDROOT
BRANCH  16  20
ATOM      5  N   UNL     1       2.418   1.708  23.542  0.00  0.00    -0.240 NA
ATOM     20  C   UNL     1       0.033   1.572  23.913  0.00  0.00    +0.041 A 
ATOM     22  C   UNL     1       0.046   0.229  23.558  0.00  0.00    +0.016 A 
ATOM     23  C   UNL     1       1.235   2.261  23.889  0.00  0.00    +0.124 A 
ATOM     24  C   UNL     1       1.244  -0.377  23.195  0.00  0.00    +0.044 A 
ATOM     25  C   UNL     1       2.392   0.399  23.202  0.00  0.00    +0.121 A 
BRANCH  25   6
ATOM      6  N   UNL     1       3.604  -0.233  22.831  0.00  0.00    -0.321 N 
ATOM     26  C   UNL     1       4.352   0.242  21.688  0.00  0.00    +0.130 C 
ATOM     27  C   UNL     1       4.105  -1.352  23.598  0.00  0.00    +0.130 C 
ENDBRANCH  25   6
ENDBRANCH  16  20
BRANCH  12   7
ATOM      2  N   UNL     1      -5.347   1.631  25.279  0.00  0.00    -0.287 NA
ATOM      7  C   UNL     1      -4.724   2.674  24.441  0.00  0.00    +0.146 C 
ATOM      8  C   UNL     1      -5.277   4.001  24.993  0.00  0.00    +0.030 C 
ATOM      9  C   UNL     1      -6.246   3.599  26.096  0.00  0.00    +0.017 C 
ATOM     10  C   UNL     1      -6.624   2.177  25.739  0.00  0.00    +0.085 C 
BRANCH   2  11
ATOM     11  C   UNL     1      -5.512   0.360  24.585  0.00  0.00    +0.120 C 
BRANCH  11  13
ATOM     13  C   UNL     1      -4.303  -0.524  24.739  0.00  0.00    -0.033 A 
ATOM     14  C   UNL     1      -3.477  -0.388  25.854  0.00  0.00    +0.005 A 
ATOM     15  C   UNL     1      -4.006  -1.476  23.763  0.00  0.00    +0.005 A 
ATOM     17  C   UNL     1      -2.355  -1.204  25.994  0.00  0.00    +0.003 A 
ATOM     18  C   UNL     1      -2.885  -2.293  23.904  0.00  0.00    +0.003 A 
ATOM     19  C   UNL     1      -2.059  -2.157  25.020  0.00  0.00    -0.050 A 
ATOM     21  C   UNL     1      -0.858  -3.030  25.171  0.00  0.00    +0.044 C 
ENDBRANCH  11  13
ENDBRANCH   2  11
ENDBRANCH  12   7
TORSDOF 5
ENDMDL
MODEL 3
REMARK VINA RESULT:       2.3      2.026      4.370
REMARK  Name = 45783817
REMARK  8 active torsions:
REMARK  status: ('A' for Active; 'I' for Inactive)
REMARK    1  A    between atoms: N_2  and  C_11
REMARK    2  A    between atoms: N_6  and  C_25
REMARK    3  A    between atoms: N_6  and  C_26
REMARK    4  A    between atoms: N_6  and  C_27
REMARK    5  A    between atoms: C_7  and  C_12
REMARK    6  A    between atoms: C_11  and  C_13
REMARK    7  A    between atoms: C_16  and  C_20
REMARK    8  A    between atoms: C_19  and  C_21
REMARK                            x       y       z     vdW  Elec       q    Type
REMARK                         _______ _______ _______ _____ _____    ______ ____
ROOT
ATOM      1  O   UNL     1      -1.318   0.328  23.224  0.00  0.00    -0.336 OA
ATOM      3  N   UNL     1       0.090  -1.037  24.305  0.00  0.00    -0.190 NA
ATOM      4  N   UNL     1      -0.028   0.713  22.836  0.00  0.00    -0.056 NA
ATOM     12  C   UNL     1      -1.158  -0.708  24.088  0.00  0.00    +0.245 A 
ATOM     16  C   UNL     1       0.746  -0.138  23.516  0.00  0.00    +0.204 A 
ENDROOT
BRANCH  16  20
ATOM      5  N   UNL     1       4.284  -1.255  23.764  0.00  0.00    -0.240 NA
ATOM     20  C   UNL     1       2.178  -0.116  23.429  0.00  0.00    +0.041 A 
ATOM     22  C   UNL     1       2.850   1.002  22.951  0.00  0.00    +0.016 A 
ATOM     23  C   UNL     1       2.935  -1.210  23.819  0.00  0.00    +0.124 A 
ATOM     24  C   UNL     1       4.239   0.995  22.878  0.00  0.00    +0.044 A 
ATOM     25  C   UNL     1       4.903  -0.148  23.294  0.00  0.00    +0.121 A 
BRANCH  25   6
ATOM      6  N   UNL     1       6.317  -0.142  23.212  0.00  0.00    -0.321 N 
ATOM     26  C   UNL     1       7.079   0.902  23.863  0.00  0.00    +0.130 C 
ATOM     27  C   UNL     1       7.009  -1.183  22.485  0.00  0.00    +0.130 C 
ENDBRANCH  25   6
ENDBRANCH  16  20
BRANCH  12   7
ATOM      2  N   UNL     1      -3.577  -0.393  24.582  0.00  0.00    -0.287 NA
ATOM      7  C   UNL     1      -2.424  -1.313  24.659  0.00  0.00    +0.146 C 
ATOM      8  C   UNL     1      -2.877  -2.573  23.899  0.00  0.00    +0.030 C 
ATOM      9  C   UNL     1      -4.315  -2.292  23.487  0.00  0.00    +0.017 C 
ATOM     10  C   UNL     1      -4.769  -1.234  24.471  0.00  0.00    +0.085 C 
BRANCH   2  11
ATOM     11  C   UNL     1      -3.656   0.524  25.712  0.00  0.00    +0.120 C 
BRANCH  11  13
ATOM     13  C   UNL     1      -2.933   1.816  25.438  0.00  0.00    -0.033 A 
ATOM     14  C   UNL     1      -3.566   2.831  24.723  0.00  0.00    +0.005 A 
ATOM     15  C   UNL     1      -1.628   1.995  25.896  0.00  0.00    +0.005 A 
ATOM     17  C   UNL     1      -2.895   4.026  24.466  0.00  0.00    +0.003 A 
ATOM     18  C   UNL     1      -0.957   3.190  25.640  0.00  0.00    +0.003 A 
ATOM     19  C   UNL     1      -1.591   4.207  24.925  0.00  0.00    -0.050 A 
ATOM     21  C   UNL     1      -0.873   5.485  24.650  0.00  0.00    +0.044 C 
ENDBRANCH  11  13
ENDBRANCH   2  11
ENDBRANCH  12   7
TORSDOF 5
ENDMDL
MODEL 4
REMARK VINA RESULT:       2.4      1.620      3.775
REMARK  Name = 45783817
REMARK  8 active torsions:
REMARK  status: ('A' for Active; 'I' for Inactive)
REMARK    1  A    between atoms: N_2  and  C_11
REMARK    2  A    between atoms: N_6  and  C_25
REMARK    3  A    between atoms: N_6  and  C_26
REMARK    4  A    between atoms: N_6  and  C_27
REMARK    5  A    between atoms: C_7  and  C_12
REMARK    6  A    between atoms: C_11  and  C_13
REMARK    7  A    between atoms: C_16  and  C_20
REMARK    8  A    between atoms: C_19  and  C_21
REMARK                            x       y       z     vdW  Elec       q    Type
REMARK                         _______ _______ _______ _____ _____    ______ ____
ROOT
ATOM      1  O   UNL     1      -3.411   1.768  23.061  0.00  0.00    -0.336 OA
ATOM      3  N   UNL     1      -2.149   0.778  24.624  0.00  0.00    -0.190 NA
ATOM      4  N   UNL     1      -2.125   1.663  22.514  0.00  0.00    -0.056 NA
ATOM     12  C   UNL     1      -3.337   1.223  24.304  0.00  0.00    +0.245 A 
ATOM     16  C   UNL     1      -1.439   1.070  23.496  0.00  0.00    +0.204 A 
ENDROOT
BRANCH  16  20
ATOM      5  N   UNL     1       2.254   1.374  23.808  0.00  0.00    -0.240 NA
ATOM     20  C   UNL     1      -0.044   0.755  23.381  0.00  0.00    +0.041 A 
ATOM     22  C   UNL     1       0.379  -0.416  22.763  0.00  0.00    +0.016 A 
ATOM     23  C   UNL     1       0.925   1.609  23.883  0.00  0.00    +0.124 A 
ATOM     24  C   UNL     1       1.738  -0.694  22.666  0.00  0.00    +0.044 A 
ATOM     25  C   UNL     1       2.627   0.225  23.199  0.00  0.00    +0.121 A 
BRANCH  25   6
ATOM      6  N   UNL     1       4.007  -0.073  23.094  0.00  0.00    -0.321 N 
ATOM     26  C   UNL     1       4.877   0.772  22.307  0.00  0.00    +0.130 C 
ATOM     27  C   UNL     1       4.558  -1.221  23.781  0.00  0.00    +0.130 C 
ENDBRANCH  25   6
ENDBRANCH  16  20
BRANCH  12   7
ATOM      2  N   UNL     1      -5.383   2.469  24.977  0.00  0.00    -0.287 NA
ATOM      7  C   UNL     1      -4.616   1.214  25.114  0.00  0.00    +0.146 C 
ATOM      8  C   UNL     1      -5.593   0.108  24.673  0.00  0.00    +0.030 C 
ATOM      9  C   UNL     1      -6.897   0.830  24.367  0.00  0.00    +0.017 C 
ATOM     10  C   UNL     1      -6.791   2.115  25.162  0.00  0.00    +0.085 C 
BRANCH   2  11
ATOM     11  C   UNL     1      -4.953   3.508  25.903  0.00  0.00    +0.120 C 
BRANCH  11  13
ATOM     13  C   UNL     1      -3.579   4.025  25.567  0.00  0.00    -0.033 A 
ATOM     14  C   UNL     1      -3.412   4.929  24.520  0.00  0.00    +0.005 A 
ATOM     15  C   UNL     1      -2.474   3.596  26.302  0.00  0.00    +0.005 A 
ATOM     17  C   UNL     1      -2.139   5.405  24.206  0.00  0.00    +0.003 A 
ATOM     18  C   UNL     1      -1.201   4.072  25.989  0.00  0.00    +0.003 A 
ATOM     19  C   UNL     1      -1.033   4.978  24.941  0.00  0.00    -0.050 A 
ATOM     21  C   UNL     1       0.328   5.487  24.605  0.00  0.00    +0.044 C 
ENDBRANCH  11  13
ENDBRANCH   2  11
ENDBRANCH  12   7
TORSDOF 5
ENDMDL
