MODEL 1
REMARK VINA RESULT:      -1.5      0.000      0.000
REMARK  Name = 26745467
REMARK  7 active torsions:
REMARK  status: ('A' for Active; 'I' for Inactive)
REMARK    1  A    between atoms: S_2  and  N_7
REMARK    2  A    between atoms: S_2  and  C_17
REMARK    3  A    between atoms: O_5  and  C_16
REMARK    4  A    between atoms: O_5  and  C_29
REMARK    5  A    between atoms: N_8  and  C_18
REMARK    6  A    between atoms: C_11  and  C_16
REMARK    7  A    between atoms: C_18  and  C_21
REMARK                            x       y       z     vdW  Elec       q    Type
REMARK                         _______ _______ _______ _____ _____    ______ ____
ROOT
ATOM      7  N   UNL     1      -1.365   2.651  23.612  0.00  0.00    -0.157 NA
ATOM      8  N   UNL     1       0.449  -0.624  23.750  0.00  0.00    -0.328 N 
ATOM      9  N   UNL     1      -0.698  -0.928  25.643  0.00  0.00    -0.240 NA
ATOM     11  C   UNL     1      -1.584   2.726  25.105  0.00  0.00    +0.194 C 
ATOM     12  C   UNL     1      -0.225   1.763  23.162  0.00  0.00    +0.165 C 
ATOM     13  C   UNL     1      -1.817   1.343  25.745  0.00  0.00    +0.089 C 
ATOM     14  C   UNL     1      -0.234   0.533  23.975  0.00  0.00    +0.057 A 
ATOM     15  C   UNL     1      -0.926   0.324  25.142  0.00  0.00    +0.066 A 
ATOM     19  C   UNL     1       0.136  -1.474  24.782  0.00  0.00    +0.200 A 
ENDROOT
BRANCH   7   2
ATOM      2  S   UNL     1      -2.788   2.577  22.656  0.00  0.00    +0.064 S 
ATOM      3  O   UNL     1      -2.459   2.023  21.361  0.00  0.00    -0.153 OA
ATOM      4  O   UNL     1      -3.496   3.834  22.771  0.00  0.00    -0.153 OA
BRANCH   2  17
ATOM     10  N   UNL     1      -4.790   3.037  24.824  0.00  0.00    -0.253 NA
ATOM     17  C   UNL     1      -3.697   1.358  23.551  0.00  0.00    +0.131 A 
ATOM     20  C   UNL     1      -4.601   1.734  24.541  0.00  0.00    +0.097 A 
ATOM     22  C   UNL     1      -3.476   0.016  23.232  0.00  0.00    +0.031 A 
ATOM     23  C   UNL     1      -5.299   0.716  25.224  0.00  0.00    +0.002 A 
ATOM     24  C   UNL     1      -4.167  -0.981  23.909  0.00  0.00    +0.003 A 
ATOM     25  C   UNL     1      -5.077  -0.634  24.903  0.00  0.00    +0.010 A 
ATOM     28  C   UNL     1      -6.209   1.093  26.220  0.00  0.00    +0.011 A 
ATOM     32  C   UNL     1      -5.678   3.359  25.792  0.00  0.00    +0.111 A 
ATOM     33  C   UNL     1      -6.406   2.434  26.514  0.00  0.00    +0.020 A 
ENDBRANCH   2  17
ENDBRANCH   7   2
BRANCH  11  16
ATOM      6  O   UNL     1       0.403   2.913  26.450  0.00  0.00    -0.249 OA
ATOM     16  C   UNL     1      -0.393   3.430  25.678  0.00  0.00    +0.326 C 
BRANCH  16   5
ATOM      5  O   UNL     1      -0.350   4.710  25.208  0.00  0.00    -0.467 OA
ATOM     29  C   UNL     1      -1.602   5.402  25.195  0.00  0.00    +0.280 C 
ENDBRANCH  16   5
ENDBRANCH  11  16
BRANCH   8  18
ATOM     18  C   UNL     1       1.338  -0.914  22.651  0.00  0.00    +0.158 C 
BRANCH  18  21
ATOM      1 CL   UNL     1       7.084   0.453  23.809  0.00  0.00    -0.084 Cl
ATOM     21  C   UNL     1       2.778  -0.572  22.942  0.00  0.00    -0.028 A 
ATOM     26  C   UNL     1       3.585  -1.477  23.629  0.00  0.00    +0.007 A 
ATOM     27  C   UNL     1       3.302   0.652  22.524  0.00  0.00    +0.007 A 
ATOM     30  C   UNL     1       4.917  -1.160  23.898  0.00  0.00    +0.020 A 
ATOM     31  C   UNL     1       4.633   0.970  22.793  0.00  0.00    +0.020 A 
ATOM     34  C   UNL     1       5.440   0.063  23.480  0.00  0.00    +0.041 A 
ENDBRANCH  18  21
ENDBRANCH   8  18
TORSDOF 6
ENDMDL
MODEL 2
REMARK VINA RESULT:       0.1      0.817      1.939
REMARK  Name = 26745467
REMARK  7 active torsions:
REMARK  status: ('A' for Active; 'I' for Inactive)
REMARK    1  A    between atoms: S_2  and  N_7
REMARK    2  A    between atoms: S_2  and  C_17
REMARK    3  A    between atoms: O_5  and  C_16
REMARK    4  A    between atoms: O_5  and  C_29
REMARK    5  A    between atoms: N_8  and  C_18
REMARK    6  A    between atoms: C_11  and  C_16
REMARK    7  A    between atoms: C_18  and  C_21
REMARK                            x       y       z     vdW  Elec       q    Type
REMARK                         _______ _______ _______ _____ _____    ______ ____
ROOT
ATOM      7  N   UNL     1      -1.570   2.954  23.676  0.00  0.00    -0.157 NA
ATOM      8  N   UNL     1       0.282  -0.302  23.760  0.00  0.00    -0.328 N 
ATOM      9  N   UNL     1      -0.778  -0.601  25.704  0.00  0.00    -0.240 NA
ATOM     11  C   UNL     1      -1.725   3.039  25.176  0.00  0.00    +0.194 C 
ATOM     12  C   UNL     1      -0.443   2.073  23.183  0.00  0.00    +0.165 C 
ATOM     13  C   UNL     1      -1.915   1.659  25.836  0.00  0.00    +0.089 C 
ATOM     14  C   UNL     1      -0.403   0.850  24.005  0.00  0.00    +0.057 A 
ATOM     15  C   UNL     1      -1.041   0.645  25.204  0.00  0.00    +0.066 A 
ATOM     19  C   UNL     1       0.023  -1.146  24.812  0.00  0.00    +0.200 A 
ENDROOT
BRANCH   7   2
ATOM      2  S   UNL     1      -3.034   2.858  22.784  0.00  0.00    +0.064 S 
ATOM      3  O   UNL     1      -2.837   1.983  21.648  0.00  0.00    -0.153 OA
ATOM      4  O   UNL     1      -3.568   4.192  22.614  0.00  0.00    -0.153 OA
BRANCH   2  17
ATOM     10  N   UNL     1      -3.256  -0.093  23.187  0.00  0.00    -0.253 NA
ATOM     17  C   UNL     1      -4.050   2.009  23.950  0.00  0.00    +0.131 A 
ATOM     20  C   UNL     1      -4.043   0.619  24.017  0.00  0.00    +0.097 A 
ATOM     22  C   UNL     1      -4.853   2.779  24.795  0.00  0.00    +0.031 A 
ATOM     23  C   UNL     1      -4.876  -0.005  24.969  0.00  0.00    +0.002 A 
ATOM     24  C   UNL     1      -5.671   2.158  25.731  0.00  0.00    +0.003 A 
ATOM     25  C   UNL     1      -5.683   0.769  25.819  0.00  0.00    +0.010 A 
ATOM     28  C   UNL     1      -4.869  -1.405  25.037  0.00  0.00    +0.011 A 
ATOM     32  C   UNL     1      -3.278  -1.442  23.285  0.00  0.00    +0.111 A 
ATOM     33  C   UNL     1      -4.059  -2.141  24.184  0.00  0.00    +0.020 A 
ENDBRANCH   2  17
ENDBRANCH   7   2
BRANCH  11  16
ATOM      6  O   UNL     1       0.310   3.262  26.442  0.00  0.00    -0.249 OA
ATOM     16  C   UNL     1      -0.518   3.760  25.690  0.00  0.00    +0.326 C 
BRANCH  16   5
ATOM      5  O   UNL     1      -0.500   5.031  25.195  0.00  0.00    -0.467 OA
ATOM     29  C   UNL     1      -1.765   5.699  25.171  0.00  0.00    +0.280 C 
ENDBRANCH  16   5
ENDBRANCH  11  16
BRANCH   8  18
ATOM     18  C   UNL     1       1.125  -0.592  22.626  0.00  0.00    +0.158 C 
BRANCH  18  21
ATOM      1 CL   UNL     1       6.987   0.175  23.755  0.00  0.00    -0.084 Cl
ATOM     21  C   UNL     1       2.594  -0.400  22.910  0.00  0.00    -0.028 A 
ATOM     26  C   UNL     1       3.323  -1.413  23.531  0.00  0.00    +0.007 A 
ATOM     27  C   UNL     1       3.224   0.793  22.550  0.00  0.00    +0.007 A 
ATOM     30  C   UNL     1       4.682  -1.235  23.793  0.00  0.00    +0.020 A 
ATOM     31  C   UNL     1       4.582   0.971  22.813  0.00  0.00    +0.020 A 
ATOM     34  C   UNL     1       5.310  -0.043  23.434  0.00  0.00    +0.041 A 
ENDBRANCH  18  21
ENDBRANCH   8  18
TORSDOF 6
ENDMDL
MODEL 3
REMARK VINA RESULT:       0.1      1.568      2.199
REMARK  Name = 26745467
REMARK  7 active torsions:
REMARK  status: ('A' for Active; 'I' for Inactive)
REMARK    1  A    between atoms: S_2  and  N_7
REMARK    2  A    between atoms: S_2  and  C_17
REMARK    3  A    between atoms: O_5  and  C_16
REMARK    4  A    between atoms: O_5  and  C_29
REMARK    5  A    between atoms: N_8  and  C_18
REMARK    6  A    between atoms: C_11  and  C_16
REMARK    7  A    between atoms: C_18  and  C_21
REMARK                            x       y       z     vdW  Elec       q    Type
REMARK                         _______ _______ _______ _____ _____    ______ ____
ROOT
ATOM      7  N   UNL     1      -0.041   3.313  25.414  0.00  0.00    -0.157 NA
ATOM      8  N   UNL     1       0.294  -0.056  23.808  0.00  0.00    -0.328 N 
ATOM      9  N   UNL     1      -1.127  -0.712  25.404  0.00  0.00    -0.240 NA
ATOM     11  C   UNL     1      -0.414   2.760  26.769  0.00  0.00    +0.194 C 
ATOM     12  C   UNL     1       0.705   2.362  24.501  0.00  0.00    +0.165 C 
ATOM     13  C   UNL     1      -1.260   1.474  26.677  0.00  0.00    +0.089 C 
ATOM     14  C   UNL     1       0.100   1.023  24.617  0.00  0.00    +0.057 A 
ATOM     15  C   UNL     1      -0.771   0.595  25.590  0.00  0.00    +0.066 A 
ATOM     19  C   UNL     1      -0.467  -1.077  24.323  0.00  0.00    +0.200 A 
ENDROOT
BRANCH   7   2
ATOM      2  S   UNL     1      -1.232   4.289  24.657  0.00  0.00    +0.064 S 
ATOM      3  O   UNL     1      -0.653   4.923  23.492  0.00  0.00    -0.153 OA
ATOM      4  O   UNL     1      -1.913   5.067  25.669  0.00  0.00    -0.153 OA
BRANCH   2  17
ATOM     10  N   UNL     1      -3.908   3.598  25.789  0.00  0.00    -0.253 NA
ATOM     17  C   UNL     1      -2.343   3.038  24.095  0.00  0.00    +0.131 A 
ATOM     20  C   UNL     1      -3.564   2.835  24.733  0.00  0.00    +0.097 A 
ATOM     22  C   UNL     1      -1.954   2.266  22.997  0.00  0.00    +0.031 A 
ATOM     23  C   UNL     1      -4.410   1.821  24.240  0.00  0.00    +0.002 A 
ATOM     24  C   UNL     1      -2.792   1.268  22.517  0.00  0.00    +0.003 A 
ATOM     25  C   UNL     1      -4.019   1.045  23.136  0.00  0.00    +0.010 A 
ATOM     28  C   UNL     1      -5.640   1.617  24.882  0.00  0.00    +0.011 A 
ATOM     32  C   UNL     1      -5.103   3.369  26.379  0.00  0.00    +0.111 A 
ATOM     33  C   UNL     1      -5.998   2.401  25.969  0.00  0.00    +0.020 A 
ENDBRANCH   2  17
ENDBRANCH   7   2
BRANCH  11  16
ATOM      6  O   UNL     1       1.972   2.833  27.069  0.00  0.00    -0.249 OA
ATOM     16  C   UNL     1       0.867   2.552  27.514  0.00  0.00    +0.326 C 
BRANCH  16   5
ATOM      5  O   UNL     1       0.601   2.010  28.737  0.00  0.00    -0.467 OA
ATOM     29  C   UNL     1       1.496   2.392  29.786  0.00  0.00    +0.280 C 
ENDBRANCH  16   5
ENDBRANCH  11  16
BRANCH   8  18
ATOM     18  C   UNL     1       1.137  -0.132  22.640  0.00  0.00    +0.158 C 
BRANCH  18  21
ATOM      1 CL   UNL     1       7.012  -0.238  23.942  0.00  0.00    -0.084 Cl
ATOM     21  C   UNL     1       2.609  -0.158  22.967  0.00  0.00    -0.028 A 
ATOM     26  C   UNL     1       3.178  -1.299  23.532  0.00  0.00    +0.007 A 
ATOM     27  C   UNL     1       3.403   0.959  22.705  0.00  0.00    +0.007 A 
ATOM     30  C   UNL     1       4.540  -1.324  23.834  0.00  0.00    +0.020 A 
ATOM     31  C   UNL     1       4.764   0.935  23.008  0.00  0.00    +0.020 A 
ATOM     34  C   UNL     1       5.332  -0.207  23.572  0.00  0.00    +0.041 A 
ENDBRANCH  18  21
ENDBRANCH   8  18
TORSDOF 6
ENDMDL
MODEL 4
REMARK VINA RESULT:       0.8      1.262      2.341
REMARK  Name = 26745467
REMARK  7 active torsions:
REMARK  status: ('A' for Active; 'I' for Inactive)
REMARK    1  A    between atoms: S_2  and  N_7
REMARK    2  A    between atoms: S_2  and  C_17
REMARK    3  A    between atoms: O_5  and  C_16
REMARK    4  A    between atoms: O_5  and  C_29
REMARK    5  A    between atoms: N_8  and  C_18
REMARK    6  A    between atoms: C_11  and  C_16
REMARK    7  A    between atoms: C_18  and  C_21
REMARK                            x       y       z     vdW  Elec       q    Type
REMARK                         _______ _______ _______ _____ _____    ______ ____
ROOT
ATOM      7  N   UNL     1      -0.689   3.005  24.762  0.00  0.00    -0.157 NA
ATOM      8  N   UNL     1       0.370  -0.405  23.629  0.00  0.00    -0.328 N 
ATOM      9  N   UNL     1      -0.964  -1.123  25.272  0.00  0.00    -0.240 NA
ATOM     11  C   UNL     1      -1.006   2.567  26.172  0.00  0.00    +0.194 C 
ATOM     12  C   UNL     1       0.268   2.114  23.999  0.00  0.00    +0.165 C 
ATOM     13  C   UNL     1      -1.579   1.137  26.238  0.00  0.00    +0.089 C 
ATOM     14  C   UNL     1      -0.067   0.707  24.283  0.00  0.00    +0.057 A 
ATOM     15  C   UNL     1      -0.880   0.242  25.288  0.00  0.00    +0.066 A 
ATOM     19  C   UNL     1      -0.199  -1.484  24.262  0.00  0.00    +0.200 A 
ENDROOT
BRANCH   7   2
ATOM      2  S   UNL     1      -2.014   3.618  23.859  0.00  0.00    +0.064 S 
ATOM      3  O   UNL     1      -1.958   3.083  22.517  0.00  0.00    -0.153 OA
ATOM      4  O   UNL     1      -2.119   5.043  24.090  0.00  0.00    -0.153 OA
BRANCH   2  17
ATOM     10  N   UNL     1      -3.060   0.857  23.417  0.00  0.00    -0.253 NA
ATOM     17  C   UNL     1      -3.350   2.831  24.701  0.00  0.00    +0.131 A 
ATOM     20  C   UNL     1      -3.721   1.529  24.379  0.00  0.00    +0.097 A 
ATOM     22  C   UNL     1      -4.013   3.558  25.693  0.00  0.00    +0.031 A 
ATOM     23  C   UNL     1      -4.797   0.952  25.085  0.00  0.00    +0.002 A 
ATOM     24  C   UNL     1      -5.072   2.983  26.385  0.00  0.00    +0.003 A 
ATOM     25  C   UNL     1      -5.464   1.682  26.083  0.00  0.00    +0.010 A 
ATOM     28  C   UNL     1      -5.171  -0.360  24.761  0.00  0.00    +0.011 A 
ATOM     32  C   UNL     1      -3.453  -0.407  23.135  0.00  0.00    +0.111 A 
ATOM     33  C   UNL     1      -4.492  -1.055  23.772  0.00  0.00    +0.020 A 
ENDBRANCH   2  17
ENDBRANCH   7   2
BRANCH  11  16
ATOM      6  O   UNL     1       1.274   3.245  26.534  0.00  0.00    -0.249 OA
ATOM     16  C   UNL     1       0.256   2.716  26.962  0.00  0.00    +0.326 C 
BRANCH  16   5
ATOM      5  O   UNL     1       0.085   2.177  28.203  0.00  0.00    -0.467 OA
ATOM     29  C   UNL     1       1.167   2.383  29.117  0.00  0.00    +0.280 C 
ENDBRANCH  16   5
ENDBRANCH  11  16
BRANCH   8  18
ATOM     18  C   UNL     1       1.262  -0.460  22.497  0.00  0.00    +0.158 C 
BRANCH  18  21
ATOM      1 CL   UNL     1       7.064   0.075  24.008  0.00  0.00    -0.084 Cl
ATOM     21  C   UNL     1       2.717  -0.326  22.876  0.00  0.00    -0.028 A 
ATOM     26  C   UNL     1       3.368  -1.375  23.523  0.00  0.00    +0.007 A 
ATOM     27  C   UNL     1       3.410   0.849  22.580  0.00  0.00    +0.007 A 
ATOM     30  C   UNL     1       4.713  -1.251  23.874  0.00  0.00    +0.020 A 
ATOM     31  C   UNL     1       4.754   0.973  22.931  0.00  0.00    +0.020 A 
ATOM     34  C   UNL     1       5.405  -0.077  23.578  0.00  0.00    +0.041 A 
ENDBRANCH  18  21
ENDBRANCH   8  18
TORSDOF 6
ENDMDL
MODEL 5
REMARK VINA RESULT:       0.9      1.007      2.074
REMARK  Name = 26745467
REMARK  7 active torsions:
REMARK  status: ('A' for Active; 'I' for Inactive)
REMARK    1  A    between atoms: S_2  and  N_7
REMARK    2  A    between atoms: S_2  and  C_17
REMARK    3  A    between atoms: O_5  and  C_16
REMARK    4  A    between atoms: O_5  and  C_29
REMARK    5  A    between atoms: N_8  and  C_18
REMARK    6  A    between atoms: C_11  and  C_16
REMARK    7  A    between atoms: C_18  and  C_21
REMARK                            x       y       z     vdW  Elec       q    Type
REMARK                         _______ _______ _______ _____ _____    ______ ____
ROOT
ATOM      7  N   UNL     1      -1.468   2.258  23.767  0.00  0.00    -0.157 NA
ATOM      8  N   UNL     1       0.535  -0.908  23.775  0.00  0.00    -0.328 N 
ATOM      9  N   UNL     1      -0.569  -1.340  25.670  0.00  0.00    -0.240 NA
ATOM     11  C   UNL     1      -1.672   2.271  25.263  0.00  0.00    +0.194 C 
ATOM     12  C   UNL     1      -0.284   1.453  23.275  0.00  0.00    +0.165 C 
ATOM     13  C   UNL     1      -1.817   0.856  25.859  0.00  0.00    +0.089 C 
ATOM     14  C   UNL     1      -0.211   0.198  24.046  0.00  0.00    +0.057 A 
ATOM     15  C   UNL     1      -0.876  -0.088  25.214  0.00  0.00    +0.066 A 
ATOM     19  C   UNL     1       0.285  -1.809  24.782  0.00  0.00    +0.200 A 
ENDROOT
BRANCH   7   2
ATOM      2  S   UNL     1      -2.896   2.132  22.824  0.00  0.00    +0.064 S 
ATOM      3  O   UNL     1      -3.330   0.752  22.806  0.00  0.00    -0.153 OA
ATOM      4  O   UNL     1      -2.713   2.872  21.593  0.00  0.00    -0.153 OA
BRANCH   2  17
ATOM     10  N   UNL     1      -4.751   1.044  24.896  0.00  0.00    -0.253 NA
ATOM     17  C   UNL     1      -4.017   3.039  23.841  0.00  0.00    +0.131 A 
ATOM     20  C   UNL     1      -4.822   2.383  24.768  0.00  0.00    +0.097 A 
ATOM     22  C   UNL     1      -4.065   4.426  23.681  0.00  0.00    +0.031 A 
ATOM     23  C   UNL     1      -5.699   3.160  25.553  0.00  0.00    +0.002 A 
ATOM     24  C   UNL     1      -4.931   5.185  24.458  0.00  0.00    +0.003 A 
ATOM     25  C   UNL     1      -5.747   4.555  25.394  0.00  0.00    +0.010 A 
ATOM     28  C   UNL     1      -6.509   2.500  26.487  0.00  0.00    +0.011 A 
ATOM     32  C   UNL     1      -5.550   0.446  25.809  0.00  0.00    +0.111 A 
ATOM     33  C   UNL     1      -6.438   1.121  26.622  0.00  0.00    +0.020 A 
ENDBRANCH   2  17
ENDBRANCH   7   2
BRANCH  11  16
ATOM      6  O   UNL     1       0.112   2.659  26.830  0.00  0.00    -0.249 OA
ATOM     16  C   UNL     1      -0.518   3.024  25.846  0.00  0.00    +0.326 C 
BRANCH  16   5
ATOM      5  O   UNL     1      -0.295   4.155  25.117  0.00  0.00    -0.467 OA
ATOM     29  C   UNL     1      -1.300   5.168  25.231  0.00  0.00    +0.280 C 
ENDBRANCH  16   5
ENDBRANCH  11  16
BRANCH   8  18
ATOM     18  C   UNL     1       1.425  -1.110  22.659  0.00  0.00    +0.158 C 
BRANCH  18  21
ATOM      1 CL   UNL     1       7.084   0.602  23.787  0.00  0.00    -0.084 Cl
ATOM     21  C   UNL     1       2.844  -0.681  22.941  0.00  0.00    -0.028 A 
ATOM     26  C   UNL     1       3.299   0.559  22.496  0.00  0.00    +0.007 A 
ATOM     27  C   UNL     1       3.701  -1.526  23.647  0.00  0.00    +0.007 A 
ATOM     30  C   UNL     1       4.611   0.956  22.758  0.00  0.00    +0.020 A 
ATOM     31  C   UNL     1       5.013  -1.129  23.908  0.00  0.00    +0.020 A 
ATOM     34  C   UNL     1       5.467   0.111  23.463  0.00  0.00    +0.041 A 
ENDBRANCH  18  21
ENDBRANCH   8  18
TORSDOF 6
ENDMDL
