MODEL 1
REMARK VINA RESULT:      -2.6      0.000      0.000
REMARK  Name = 75537056
REMARK  5 active torsions:
REMARK  status: ('A' for Active; 'I' for Inactive)
REMARK    1  A    between atoms: S_1  and  C_25
REMARK    2  A    between atoms: S_1  and  C_27
REMARK    3  A    between atoms: N_6  and  C_14
REMARK    4  A    between atoms: N_7  and  C_15
REMARK    5  A    between atoms: C_14  and  C_16
REMARK                            x       y       z     vdW  Elec       q    Type
REMARK                         _______ _______ _______ _____ _____    ______ ____
ROOT
ATOM      2  O   UNL     1      -3.633  -9.706  16.328  0.00  0.00    -0.252 OA
ATOM      5  N   UNL     1      -4.210 -10.288  14.146  0.00  0.00    -0.278 N 
ATOM      6  N   UNL     1      -4.203 -10.265  11.333  0.00  0.00    -0.295 NA
ATOM      7  N   UNL     1      -5.881 -10.206  15.673  0.00  0.00    -0.254 N 
ATOM      8  C   UNL     1      -5.365 -10.781  13.440  0.00  0.00    +0.109 C 
ATOM      9  C   UNL     1      -5.477 -10.121  12.066  0.00  0.00    +0.109 C 
ATOM     10  C   UNL     1      -6.518 -10.485  14.391  0.00  0.00    +0.139 C 
ATOM     11  C   UNL     1      -2.931 -10.243  13.467  0.00  0.00    +0.125 C 
ATOM     12  C   UNL     1      -3.097  -9.629  12.075  0.00  0.00    +0.104 C 
ATOM     13  C   UNL     1      -4.475 -10.030  15.501  0.00  0.00    +0.309 C 
ENDROOT
BRANCH   7  15
ATOM     15  C   UNL     1      -6.623 -10.057  16.880  0.00  0.00    +0.038 A 
ATOM     17  C   UNL     1      -6.113 -10.554  18.078  0.00  0.00    +0.023 A 
ATOM     18  C   UNL     1      -7.861  -9.414  16.862  0.00  0.00    +0.023 A 
ATOM     23  C   UNL     1      -6.840 -10.409  19.261  0.00  0.00    +0.002 A 
ATOM     24  C   UNL     1      -8.588  -9.268  18.044  0.00  0.00    +0.002 A 
ATOM     26  C   UNL     1      -8.077  -9.766  19.243  0.00  0.00    +0.000 A 
ENDBRANCH   7  15
BRANCH   6  14
ATOM     14  C   UNL     1      -4.318  -9.688   9.994  0.00  0.00    +0.119 C 
BRANCH  14  16
ATOM     16  C   UNL     1      -5.728  -9.255   9.690  0.00  0.00    -0.033 A 
ATOM     19  C   UNL     1      -6.786 -10.144   9.878  0.00  0.00    +0.007 A 
ATOM     20  C   UNL     1      -5.975  -7.966   9.220  0.00  0.00    +0.007 A 
ATOM     21  C   UNL     1      -8.092  -9.744   9.596  0.00  0.00    +0.027 A 
ATOM     22  C   UNL     1      -7.281  -7.565   8.936  0.00  0.00    +0.027 A 
ATOM     25  C   UNL     1      -8.339  -8.454   9.125  0.00  0.00    +0.088 A 
BRANCH  25   1
ATOM      1  S   UNL     1      -9.975  -7.952   8.775  0.00  0.00    -0.006 S 
ATOM      3  O   UNL     1      -9.940  -6.646   8.129  0.00  0.00    -0.170 OA
ATOM      4  O   UNL     1     -10.655  -9.062   8.124  0.00  0.00    -0.170 OA
ATOM     27  C   UNL     1     -10.718  -7.718  10.374  0.00  0.00    +0.200 C 
ENDBRANCH  25   1
ENDBRANCH  14  16
ENDBRANCH   6  14
TORSDOF 4
ENDMDL
