MODEL 1
REMARK VINA RESULT:      -2.7      0.000      0.000
REMARK  Name = 45784257
REMARK  4 active torsions:
REMARK  status: ('A' for Active; 'I' for Inactive)
REMARK    1  A    between atoms: N_4  and  C_12
REMARK    2  A    between atoms: C_7  and  C_11
REMARK    3  A    between atoms: C_12  and  C_13
REMARK    4  A    between atoms: C_20  and  C_24
REMARK                            x       y       z     vdW  Elec       q    Type
REMARK                         _______ _______ _______ _____ _____    ______ ____
ROOT
ATOM      5  N   UNL     1       0.942   1.938  24.429  0.00  0.00    -0.342 N 
ATOM      6  N   UNL     1      -0.129   0.819  22.835  0.00  0.00    -0.232 NA
ATOM     11  C   UNL     1      -0.256   1.672  23.827  0.00  0.00    +0.113 A 
ATOM     14  C   UNL     1       1.907   1.208  23.784  0.00  0.00    +0.067 A 
ATOM     15  C   UNL     1       1.213   0.518  22.793  0.00  0.00    +0.089 A 
ATOM     16  C   UNL     1       3.284   1.095  23.975  0.00  0.00    +0.040 A 
ATOM     17  C   UNL     1       1.921  -0.339  21.932  0.00  0.00    +0.030 A 
ATOM     20  C   UNL     1       3.972   0.237  23.110  0.00  0.00    +0.057 A 
ATOM     21  C   UNL     1       3.303  -0.468  22.106  0.00  0.00    +0.014 A 
ATOM     26  H   UNL     1       1.094   2.560  25.212  0.00  0.00    +0.167 HD
ENDROOT
BRANCH  11   7
ATOM      4  N   UNL     1      -3.771   1.864  24.843  0.00  0.00    -0.297 NA
ATOM      7  C   UNL     1      -1.535   2.320  24.302  0.00  0.00    +0.070 C 
ATOM      8  C   UNL     1      -2.452   2.840  23.181  0.00  0.00    +0.028 C 
ATOM      9  C   UNL     1      -2.421   1.369  25.119  0.00  0.00    +0.096 C 
ATOM     10  C   UNL     1      -3.786   2.139  23.406  0.00  0.00    +0.085 C 
BRANCH   4  12
ATOM     12  C   UNL     1      -4.801   0.915  25.237  0.00  0.00    +0.119 C 
BRANCH  12  13
ATOM     13  C   UNL     1      -4.356  -0.510  25.039  0.00  0.00    -0.033 A 
ATOM     18  C   UNL     1      -3.636  -1.162  26.040  0.00  0.00    +0.005 A 
ATOM     19  C   UNL     1      -4.663  -1.179  23.853  0.00  0.00    +0.005 A 
ATOM     22  C   UNL     1      -3.223  -2.481  25.856  0.00  0.00    +0.000 A 
ATOM     23  C   UNL     1      -4.250  -2.498  23.670  0.00  0.00    +0.000 A 
ATOM     25  C   UNL     1      -3.531  -3.149  24.671  0.00  0.00    +0.000 A 
ENDBRANCH  12  13
ENDBRANCH   4  12
ENDBRANCH  11   7
BRANCH  20  24
ATOM      1  F   UNL     1       6.090  -0.212  22.094  0.00  0.00    -0.166 F 
ATOM      2  F   UNL     1       5.776  -0.935  24.120  0.00  0.00    -0.166 F 
ATOM      3  F   UNL     1       6.071   1.188  23.751  0.00  0.00    -0.166 F 
ATOM     24  C   UNL     1       5.448   0.074  23.264  0.00  0.00    +0.417 C 
ENDBRANCH  20  24
TORSDOF 4
ENDMDL
MODEL 2
REMARK VINA RESULT:      -1.8      1.577      3.367
REMARK  Name = 45784257
REMARK  4 active torsions:
REMARK  status: ('A' for Active; 'I' for Inactive)
REMARK    1  A    between atoms: N_4  and  C_12
REMARK    2  A    between atoms: C_7  and  C_11
REMARK    3  A    between atoms: C_12  and  C_13
REMARK    4  A    between atoms: C_20  and  C_24
REMARK                            x       y       z     vdW  Elec       q    Type
REMARK                         _______ _______ _______ _____ _____    ______ ____
ROOT
ATOM      5  N   UNL     1       0.463  -1.475  24.082  0.00  0.00    -0.342 N 
ATOM      6  N   UNL     1      -0.428   0.503  23.596  0.00  0.00    -0.232 NA
ATOM     11  C   UNL     1      -0.680  -0.733  23.967  0.00  0.00    +0.113 A 
ATOM     14  C   UNL     1       1.522  -0.666  23.764  0.00  0.00    +0.067 A 
ATOM     15  C   UNL     1       0.941   0.563  23.464  0.00  0.00    +0.089 A 
ATOM     16  C   UNL     1       2.897  -0.896  23.713  0.00  0.00    +0.040 A 
ATOM     17  C   UNL     1       1.766   1.638  23.092  0.00  0.00    +0.030 A 
ATOM     20  C   UNL     1       3.704   0.185  23.340  0.00  0.00    +0.057 A 
ATOM     21  C   UNL     1       3.149   1.430  23.034  0.00  0.00    +0.014 A 
ATOM     26  H   UNL     1       0.520  -2.448  24.352  0.00  0.00    +0.167 HD
ENDROOT
BRANCH  11   7
ATOM      4  N   UNL     1      -4.281  -0.771  24.637  0.00  0.00    -0.297 NA
ATOM      7  C   UNL     1      -2.038  -1.332  24.250  0.00  0.00    +0.070 C 
ATOM      8  C   UNL     1      -2.364  -1.518  25.742  0.00  0.00    +0.028 C 
ATOM      9  C   UNL     1      -3.193  -0.481  23.702  0.00  0.00    +0.096 C 
ATOM     10  C   UNL     1      -3.659  -0.746  25.961  0.00  0.00    +0.085 C 
BRANCH   4  12
ATOM     12  C   UNL     1      -5.378   0.179  24.523  0.00  0.00    +0.119 C 
BRANCH  12  13
ATOM     13  C   UNL     1      -4.913   1.598  24.709  0.00  0.00    -0.033 A 
ATOM     18  C   UNL     1      -5.500   2.403  25.687  0.00  0.00    +0.005 A 
ATOM     19  C   UNL     1      -3.896   2.111  23.903  0.00  0.00    +0.005 A 
ATOM     22  C   UNL     1      -5.069   3.718  25.860  0.00  0.00    +0.000 A 
ATOM     23  C   UNL     1      -3.466   3.427  24.076  0.00  0.00    +0.000 A 
ATOM     25  C   UNL     1      -4.052   4.230  25.054  0.00  0.00    +0.000 A 
ENDBRANCH  12  13
ENDBRANCH   4  12
ENDBRANCH  11   7
BRANCH  20  24
ATOM      1  F   UNL     1       5.615  -1.174  23.810  0.00  0.00    -0.166 F 
ATOM      2  F   UNL     1       5.864   0.983  23.926  0.00  0.00    -0.166 F 
ATOM      3  F   UNL     1       5.671   0.008  21.992  0.00  0.00    -0.166 F 
ATOM     24  C   UNL     1       5.184   0.002  23.268  0.00  0.00    +0.417 C 
ENDBRANCH  20  24
TORSDOF 4
ENDMDL
MODEL 3
REMARK VINA RESULT:      -1.0     13.257     14.225
REMARK  Name = 45784257
REMARK  4 active torsions:
REMARK  status: ('A' for Active; 'I' for Inactive)
REMARK    1  A    between atoms: N_4  and  C_12
REMARK    2  A    between atoms: C_7  and  C_11
REMARK    3  A    between atoms: C_12  and  C_13
REMARK    4  A    between atoms: C_20  and  C_24
REMARK                            x       y       z     vdW  Elec       q    Type
REMARK                         _______ _______ _______ _____ _____    ______ ____
ROOT
ATOM      5  N   UNL     1      -1.820  -9.306  14.370  0.00  0.00    -0.342 N 
ATOM      6  N   UNL     1      -2.536 -10.285  12.507  0.00  0.00    -0.232 NA
ATOM     11  C   UNL     1      -2.740 -10.140  13.797  0.00  0.00    +0.113 A 
ATOM     14  C   UNL     1      -0.964  -8.887  13.385  0.00  0.00    +0.067 A 
ATOM     15  C   UNL     1      -1.432  -9.511  12.231  0.00  0.00    +0.089 A 
ATOM     16  C   UNL     1       0.145  -8.041  13.403  0.00  0.00    +0.040 A 
ATOM     17  C   UNL     1      -0.765  -9.288  11.014  0.00  0.00    +0.030 A 
ATOM     20  C   UNL     1       0.797  -7.831  12.182  0.00  0.00    +0.057 A 
ATOM     21  C   UNL     1       0.351  -8.443  11.008  0.00  0.00    +0.014 A 
ATOM     26  H   UNL     1      -1.774  -9.045  15.346  0.00  0.00    +0.167 HD
ENDROOT
BRANCH  11   7
ATOM      4  N   UNL     1      -6.113 -10.609  15.148  0.00  0.00    -0.297 NA
ATOM      7  C   UNL     1      -3.836 -10.781  14.616  0.00  0.00    +0.070 C 
ATOM      8  C   UNL     1      -3.991 -10.222  16.041  0.00  0.00    +0.028 C 
ATOM      9  C   UNL     1      -5.226 -10.623  13.983  0.00  0.00    +0.096 C 
ATOM     10  C   UNL     1      -5.438  -9.756  16.127  0.00  0.00    +0.085 C 
BRANCH   4  12
ATOM     12  C   UNL     1      -7.448 -10.129  14.822  0.00  0.00    +0.119 C 
BRANCH  12  13
ATOM     13  C   UNL     1      -8.272  -9.883  16.058  0.00  0.00    -0.033 A 
ATOM     18  C   UNL     1      -9.223  -8.861  16.071  0.00  0.00    +0.005 A 
ATOM     19  C   UNL     1      -8.084 -10.675  17.191  0.00  0.00    +0.005 A 
ATOM     22  C   UNL     1      -9.986  -8.633  17.216  0.00  0.00    +0.000 A 
ATOM     23  C   UNL     1      -8.847 -10.446  18.336  0.00  0.00    +0.000 A 
ATOM     25  C   UNL     1      -9.798  -9.426  18.349  0.00  0.00    +0.000 A 
ENDBRANCH  12  13
ENDBRANCH   4  12
ENDBRANCH  11   7
BRANCH  20  24
ATOM      1  F   UNL     1       2.833  -7.203  11.096  0.00  0.00    -0.166 F 
ATOM      2  F   UNL     1       2.755  -7.024  13.261  0.00  0.00    -0.166 F 
ATOM      3  F   UNL     1       1.674  -5.613  12.009  0.00  0.00    -0.166 F 
ATOM     24  C   UNL     1       1.991  -6.935  12.136  0.00  0.00    +0.417 C 
ENDBRANCH  20  24
TORSDOF 4
ENDMDL
MODEL 4
REMARK VINA RESULT:      -0.4      1.958      3.899
REMARK  Name = 45784257
REMARK  4 active torsions:
REMARK  status: ('A' for Active; 'I' for Inactive)
REMARK    1  A    between atoms: N_4  and  C_12
REMARK    2  A    between atoms: C_7  and  C_11
REMARK    3  A    between atoms: C_12  and  C_13
REMARK    4  A    between atoms: C_20  and  C_24
REMARK                            x       y       z     vdW  Elec       q    Type
REMARK                         _______ _______ _______ _____ _____    ______ ____
ROOT
ATOM      5  N   UNL     1      -0.889   0.445  23.443  0.00  0.00    -0.342 N 
ATOM      6  N   UNL     1      -0.762  -1.606  24.291  0.00  0.00    -0.232 NA
ATOM     11  C   UNL     1      -1.570  -0.625  23.954  0.00  0.00    +0.113 A 
ATOM     14  C   UNL     1       0.447   0.135  23.452  0.00  0.00    +0.067 A 
ATOM     15  C   UNL     1       0.500  -1.150  23.985  0.00  0.00    +0.089 A 
ATOM     16  C   UNL     1       1.578   0.846  23.051  0.00  0.00    +0.040 A 
ATOM     17  C   UNL     1       1.748  -1.779  24.133  0.00  0.00    +0.030 A 
ATOM     20  C   UNL     1       2.813   0.205  23.207  0.00  0.00    +0.057 A 
ATOM     21  C   UNL     1       2.897  -1.084  23.738  0.00  0.00    +0.014 A 
ATOM     26  H   UNL     1      -1.294   1.313  23.118  0.00  0.00    +0.167 HD
ENDROOT
BRANCH  11   7
ATOM      4  N   UNL     1      -4.881   0.756  24.696  0.00  0.00    -0.297 NA
ATOM      7  C   UNL     1      -3.075  -0.609  24.085  0.00  0.00    +0.070 C 
ATOM      8  C   UNL     1      -3.609  -1.048  25.459  0.00  0.00    +0.028 C 
ATOM      9  C   UNL     1      -3.680   0.784  23.859  0.00  0.00    +0.096 C 
ATOM     10  C   UNL     1      -4.456   0.122  25.944  0.00  0.00    +0.085 C 
BRANCH   4  12
ATOM     12  C   UNL     1      -5.438   2.083  24.911  0.00  0.00    +0.119 C 
BRANCH  12  13
ATOM     13  C   UNL     1      -4.363   3.126  25.059  0.00  0.00    -0.033 A 
ATOM     18  C   UNL     1      -3.770   3.684  23.926  0.00  0.00    +0.005 A 
ATOM     19  C   UNL     1      -3.957   3.534  26.331  0.00  0.00    +0.005 A 
ATOM     22  C   UNL     1      -2.774   4.650  24.064  0.00  0.00    +0.000 A 
ATOM     23  C   UNL     1      -2.961   4.500  26.467  0.00  0.00    +0.000 A 
ATOM     25  C   UNL     1      -2.369   5.058  25.335  0.00  0.00    +0.000 A 
ENDBRANCH  12  13
ENDBRANCH   4  12
ENDBRANCH  11   7
BRANCH  20  24
ATOM      1  F   UNL     1       5.038   0.896  23.749  0.00  0.00    -0.166 F 
ATOM      2  F   UNL     1       3.846   2.231  22.515  0.00  0.00    -0.166 F 
ATOM      3  F   UNL     1       4.642   0.389  21.677  0.00  0.00    -0.166 F 
ATOM     24  C   UNL     1       4.061   0.914  22.796  0.00  0.00    +0.417 C 
ENDBRANCH  20  24
TORSDOF 4
ENDMDL
MODEL 5
REMARK VINA RESULT:      -0.0     13.295     14.918
REMARK  Name = 45784257
REMARK  4 active torsions:
REMARK  status: ('A' for Active; 'I' for Inactive)
REMARK    1  A    between atoms: N_4  and  C_12
REMARK    2  A    between atoms: C_7  and  C_11
REMARK    3  A    between atoms: C_12  and  C_13
REMARK    4  A    between atoms: C_20  and  C_24
REMARK                            x       y       z     vdW  Elec       q    Type
REMARK                         _______ _______ _______ _____ _____    ______ ____
ROOT
ATOM      5  N   UNL     1      -1.811  -9.307  14.467  0.00  0.00    -0.342 N 
ATOM      6  N   UNL     1      -2.550 -10.327  12.634  0.00  0.00    -0.232 NA
ATOM     11  C   UNL     1      -2.738 -10.155  13.924  0.00  0.00    +0.113 A 
ATOM     14  C   UNL     1      -0.970  -8.907  13.462  0.00  0.00    +0.067 A 
ATOM     15  C   UNL     1      -1.452  -9.557  12.328  0.00  0.00    +0.089 A 
ATOM     16  C   UNL     1       0.138  -8.059  13.446  0.00  0.00    +0.040 A 
ATOM     17  C   UNL     1      -0.803  -9.358  11.097  0.00  0.00    +0.030 A 
ATOM     20  C   UNL     1       0.772  -7.874  12.213  0.00  0.00    +0.057 A 
ATOM     21  C   UNL     1       0.311  -8.511  11.058  0.00  0.00    +0.014 A 
ATOM     26  H   UNL     1      -1.753  -9.026  15.436  0.00  0.00    +0.167 HD
ENDROOT
BRANCH  11   7
ATOM      4  N   UNL     1      -6.086 -10.588  15.347  0.00  0.00    -0.297 NA
ATOM      7  C   UNL     1      -3.821 -10.781  14.771  0.00  0.00    +0.070 C 
ATOM      8  C   UNL     1      -3.943 -10.207  16.193  0.00  0.00    +0.028 C 
ATOM      9  C   UNL     1      -5.222 -10.619  14.165  0.00  0.00    +0.096 C 
ATOM     10  C   UNL     1      -5.385  -9.730  16.304  0.00  0.00    +0.085 C 
BRANCH   4  12
ATOM     12  C   UNL     1      -7.424 -10.102  15.044  0.00  0.00    +0.119 C 
BRANCH  12  13
ATOM     13  C   UNL     1      -7.622  -9.890  13.567  0.00  0.00    -0.033 A 
ATOM     18  C   UNL     1      -6.639  -9.245  12.816  0.00  0.00    +0.005 A 
ATOM     19  C   UNL     1      -8.791 -10.338  12.949  0.00  0.00    +0.005 A 
ATOM     22  C   UNL     1      -6.823  -9.049  11.448  0.00  0.00    +0.000 A 
ATOM     23  C   UNL     1      -8.974 -10.140  11.580  0.00  0.00    +0.000 A 
ATOM     25  C   UNL     1      -7.992  -9.496  10.830  0.00  0.00    +0.000 A 
ENDBRANCH  12  13
ENDBRANCH   4  12
ENDBRANCH  11   7
BRANCH  20  24
ATOM      1  F   UNL     1       2.717  -7.172  11.010  0.00  0.00    -0.166 F 
ATOM      2  F   UNL     1       2.816  -7.144  13.182  0.00  0.00    -0.166 F 
ATOM      3  F   UNL     1       1.645  -5.649  12.121  0.00  0.00    -0.166 F 
ATOM     24  C   UNL     1       1.963  -6.977  12.131  0.00  0.00    +0.417 C 
ENDBRANCH  20  24
TORSDOF 4
ENDMDL
MODEL 6
REMARK VINA RESULT:       0.1      4.873      8.436
REMARK  Name = 45784257
REMARK  4 active torsions:
REMARK  status: ('A' for Active; 'I' for Inactive)
REMARK    1  A    between atoms: N_4  and  C_12
REMARK    2  A    between atoms: C_7  and  C_11
REMARK    3  A    between atoms: C_12  and  C_13
REMARK    4  A    between atoms: C_20  and  C_24
REMARK                            x       y       z     vdW  Elec       q    Type
REMARK                         _______ _______ _______ _____ _____    ______ ____
ROOT
ATOM      5  N   UNL     1      -2.079   1.753  24.940  0.00  0.00    -0.342 N 
ATOM      6  N   UNL     1      -3.388  -0.038  25.079  0.00  0.00    -0.232 NA
ATOM     11  C   UNL     1      -2.153   0.388  24.926  0.00  0.00    +0.113 A 
ATOM     14  C   UNL     1      -3.348   2.241  25.113  0.00  0.00    +0.067 A 
ATOM     15  C   UNL     1      -4.147   1.103  25.197  0.00  0.00    +0.089 A 
ATOM     16  C   UNL     1      -3.851   3.539  25.200  0.00  0.00    +0.040 A 
ATOM     17  C   UNL     1      -5.533   1.252  25.380  0.00  0.00    +0.030 A 
ATOM     20  C   UNL     1      -5.233   3.668  25.381  0.00  0.00    +0.057 A 
ATOM     21  C   UNL     1      -6.060   2.545  25.470  0.00  0.00    +0.014 A 
ATOM     26  H   UNL     1      -1.239   2.308  24.840  0.00  0.00    +0.167 HD
ENDROOT
BRANCH  11   7
ATOM      4  N   UNL     1       0.971  -0.757  23.394  0.00  0.00    -0.297 NA
ATOM      7  C   UNL     1      -0.919  -0.465  24.751  0.00  0.00    +0.070 C 
ATOM      8  C   UNL     1      -1.110  -1.706  23.862  0.00  0.00    +0.028 C 
ATOM      9  C   UNL     1       0.249   0.297  24.108  0.00  0.00    +0.096 C 
ATOM     10  C   UNL     1      -0.070  -1.565  22.758  0.00  0.00    +0.085 C 
BRANCH   4  12
ATOM     12  C   UNL     1       1.923  -0.223  22.432  0.00  0.00    +0.119 C 
BRANCH  12  13
ATOM     13  C   UNL     1       3.326  -0.213  22.978  0.00  0.00    -0.033 A 
ATOM     18  C   UNL     1       3.842  -1.350  23.601  0.00  0.00    +0.005 A 
ATOM     19  C   UNL     1       4.112   0.935  22.863  0.00  0.00    +0.005 A 
ATOM     22  C   UNL     1       5.141  -1.340  24.107  0.00  0.00    +0.000 A 
ATOM     23  C   UNL     1       5.411   0.944  23.369  0.00  0.00    +0.000 A 
ATOM     25  C   UNL     1       5.926  -0.192  23.991  0.00  0.00    +0.000 A 
ENDBRANCH  12  13
ENDBRANCH   4  12
ENDBRANCH  11   7
BRANCH  20  24
ATOM      1  F   UNL     1      -5.707   5.769  24.340  0.00  0.00    -0.166 F 
ATOM      2  F   UNL     1      -5.263   5.782  26.469  0.00  0.00    -0.166 F 
ATOM      3  F   UNL     1      -7.170   5.019  25.756  0.00  0.00    -0.166 F 
ATOM     24  C   UNL     1      -5.832   5.032  25.483  0.00  0.00    +0.417 C 
ENDBRANCH  20  24
TORSDOF 4
ENDMDL
MODEL 7
REMARK VINA RESULT:       0.5      5.063      8.524
REMARK  Name = 45784257
REMARK  4 active torsions:
REMARK  status: ('A' for Active; 'I' for Inactive)
REMARK    1  A    between atoms: N_4  and  C_12
REMARK    2  A    between atoms: C_7  and  C_11
REMARK    3  A    between atoms: C_12  and  C_13
REMARK    4  A    between atoms: C_20  and  C_24
REMARK                            x       y       z     vdW  Elec       q    Type
REMARK                         _______ _______ _______ _____ _____    ______ ____
ROOT
ATOM      5  N   UNL     1      -2.396   0.195  24.170  0.00  0.00    -0.342 N 
ATOM      6  N   UNL     1      -0.904   1.805  24.524  0.00  0.00    -0.232 NA
ATOM     11  C   UNL     1      -1.084   0.574  24.097  0.00  0.00    +0.113 A 
ATOM     14  C   UNL     1      -3.110   1.249  24.678  0.00  0.00    +0.067 A 
ATOM     15  C   UNL     1      -2.157   2.242  24.890  0.00  0.00    +0.089 A 
ATOM     16  C   UNL     1      -4.465   1.415  24.961  0.00  0.00    +0.040 A 
ATOM     17  C   UNL     1      -2.564   3.481  25.415  0.00  0.00    +0.030 A 
ATOM     20  C   UNL     1      -4.853   2.654  25.483  0.00  0.00    +0.057 A 
ATOM     21  C   UNL     1      -3.920   3.670  25.707  0.00  0.00    +0.014 A 
ATOM     26  H   UNL     1      -2.775  -0.703  23.900  0.00  0.00    +0.167 HD
ENDROOT
BRANCH  11   7
ATOM      4  N   UNL     1       2.022  -0.419  22.428  0.00  0.00    -0.297 NA
ATOM      7  C   UNL     1      -0.022  -0.365  23.576  0.00  0.00    +0.070 C 
ATOM      8  C   UNL     1      -0.252  -0.869  22.141  0.00  0.00    +0.028 C 
ATOM      9  C   UNL     1       1.376   0.269  23.546  0.00  0.00    +0.096 C 
ATOM     10  C   UNL     1       1.004  -0.470  21.377  0.00  0.00    +0.085 C 
BRANCH   4  12
ATOM     12  C   UNL     1       3.237   0.251  21.990  0.00  0.00    +0.119 C 
BRANCH  12  13
ATOM     13  C   UNL     1       4.381   0.012  22.938  0.00  0.00    -0.033 A 
ATOM     18  C   UNL     1       5.242   1.059  23.271  0.00  0.00    +0.005 A 
ATOM     19  C   UNL     1       4.584  -1.256  23.483  0.00  0.00    +0.005 A 
ATOM     22  C   UNL     1       6.303   0.838  24.149  0.00  0.00    +0.000 A 
ATOM     23  C   UNL     1       5.645  -1.477  24.360  0.00  0.00    +0.000 A 
ATOM     25  C   UNL     1       6.504  -0.431  24.694  0.00  0.00    +0.000 A 
ENDBRANCH  12  13
ENDBRANCH   4  12
ENDBRANCH  11   7
BRANCH  20  24
ATOM      1  F   UNL     1      -7.153   2.249  24.967  0.00  0.00    -0.166 F 
ATOM      2  F   UNL     1      -6.629   4.213  25.739  0.00  0.00    -0.166 F 
ATOM      3  F   UNL     1      -6.642   2.486  27.062  0.00  0.00    -0.166 F 
ATOM     24  C   UNL     1      -6.291   2.894  25.806  0.00  0.00    +0.417 C 
ENDBRANCH  20  24
TORSDOF 4
ENDMDL
