MODEL 1
REMARK VINA RESULT:      23.8      0.000      0.000
REMARK  Name = 11943110
REMARK  5 active torsions:
REMARK  status: ('A' for Active; 'I' for Inactive)
REMARK    1  A    between atoms: N_5  and  C_10
REMARK    2  A    between atoms: C_18  and  C_24
REMARK    3  A    between atoms: C_21  and  C_23
REMARK    4  A    between atoms: C_25  and  C_29
REMARK    5  A    between atoms: C_27  and  C_32
REMARK                            x       y       z     vdW  Elec       q    Type
REMARK                         _______ _______ _______ _____ _____    ______ ____
ROOT
ATOM      1  O   UNL     1       1.762  -0.880  20.570  0.00  0.00    -0.273 OA
ATOM      2  O   UNL     1      -0.490  -1.048  25.271  0.00  0.00    -0.270 OA
ATOM      4  N   UNL     1       1.232  -0.605  23.778  0.00  0.00    -0.286 N 
ATOM      6  N   UNL     1      -0.233  -0.015  21.276  0.00  0.00    -0.283 N 
ATOM      9  C   UNL     1       1.748   0.238  22.708  0.00  0.00    +0.164 C 
ATOM     10  C   UNL     1       3.996  -0.983  22.916  0.00  0.00    +0.077 C 
ATOM     11  C   UNL     1       3.277   0.339  22.651  0.00  0.00    +0.054 C 
ATOM     12  C   UNL     1       3.483  -1.586  24.219  0.00  0.00    +0.041 C 
ATOM     13  C   UNL     1       1.981  -1.810  24.145  0.00  0.00    +0.111 C 
ATOM     14  C   UNL     1       1.112  -0.294  21.435  0.00  0.00    +0.238 C 
ATOM     15  C   UNL     1      -0.050  -0.429  24.301  0.00  0.00    +0.249 C 
ATOM     16  C   UNL     1      -0.978   0.505  23.612  0.00  0.00    +0.059 A 
ATOM     17  C   UNL     1      -1.109   0.581  22.212  0.00  0.00    +0.046 A 
ATOM     19  C   UNL     1      -1.898   1.180  24.432  0.00  0.00    +0.023 A 
ATOM     20  C   UNL     1      -2.199   1.280  21.670  0.00  0.00    +0.024 A 
ATOM     21  C   UNL     1      -2.946   1.911  23.874  0.00  0.00    -0.017 A 
ATOM     22  C   UNL     1      -3.105   1.950  22.493  0.00  0.00    +0.010 A 
ATOM     36  H   UNL     1      -0.609  -0.166  20.343  0.00  0.00    +0.155 HD
ENDROOT
BRANCH  21  23
ATOM     23  C   UNL     1      -3.882   2.607  24.731  0.00  0.00    -0.015 A 
ATOM     25  C   UNL     1      -4.902   1.924  25.395  0.00  0.00    -0.040 A 
ATOM     26  C   UNL     1      -3.752   3.988  24.890  0.00  0.00    +0.009 A 
ATOM     27  C   UNL     1      -5.792   2.620  26.214  0.00  0.00    -0.047 A 
ATOM     29  C   UNL     1      -5.054   0.442  25.234  0.00  0.00    +0.044 C 
ATOM     30  C   UNL     1      -4.642   4.684  25.709  0.00  0.00    +0.001 A 
ATOM     31  C   UNL     1      -5.661   4.000  26.372  0.00  0.00    +0.003 A 
ATOM     32  C   UNL     1      -6.892   1.912  26.934  0.00  0.00    +0.044 C 
ENDBRANCH  21  23
BRANCH  10   5
ATOM      3  O   UNL     1       5.382   1.228  24.116  0.00  0.00    -0.268 OA
ATOM      5  N   UNL     1       5.425  -0.787  22.968  0.00  0.00    -0.307 N 
ATOM     18  C   UNL     1       6.005   0.319  23.574  0.00  0.00    +0.264 C 
ATOM     35  H   UNL     1       6.023  -1.462  22.499  0.00  0.00    +0.149 HD
BRANCH  18  24
ATOM      7  N   UNL     1       8.076  -0.575  22.807  0.00  0.00    -0.247 NA
ATOM      8  N   UNL     1       9.496   1.447  24.133  0.00  0.00    -0.259 NA
ATOM     24  C   UNL     1       7.488   0.386  23.521  0.00  0.00    +0.143 A 
ATOM     28  C   UNL     1       8.151   1.377  24.173  0.00  0.00    +0.143 A 
ATOM     33  C   UNL     1       9.420  -0.504  22.766  0.00  0.00    +0.131 A 
ATOM     34  C   UNL     1      10.118   0.489  23.418  0.00  0.00    +0.130 A 
ENDBRANCH  18  24
ENDBRANCH  10   5
TORSDOF 3
ENDMDL
