MODEL 1
REMARK VINA RESULT:       9.7      0.000      0.000
REMARK  Name = 9424556
REMARK  4 active torsions:
REMARK  status: ('A' for Active; 'I' for Inactive)
REMARK    1  A    between atoms: N_7  and  C_16
REMARK    2  A    between atoms: C_18  and  C_21
REMARK    3  A    between atoms: C_22  and  C_25
REMARK    4  A    between atoms: C_33  and  C_34
REMARK                            x       y       z     vdW  Elec       q    Type
REMARK                         _______ _______ _______ _____ _____    ______ ____
ROOT
ATOM      2  O   UNL     1      -3.897   4.144  27.002  0.00  0.00    -0.268 OA
ATOM      3  O   UNL     1      -4.981  -0.175  24.327  0.00  0.00    -0.270 OA
ATOM      5  N   UNL     1      -3.373   1.025  23.124  0.00  0.00    -0.297 N 
ATOM      6  N   UNL     1      -2.765   3.466  25.067  0.00  0.00    -0.310 N 
ATOM      9  C   UNL     1      -3.901   3.433  22.770  0.00  0.00    +0.027 C 
ATOM     10  C   UNL     1      -1.559   2.712  22.991  0.00  0.00    +0.055 C 
ATOM     11  C   UNL     1      -2.495   3.656  22.234  0.00  0.00    +0.018 C 
ATOM     12  C   UNL     1      -4.338   1.971  22.564  0.00  0.00    +0.113 C 
ATOM     13  C   UNL     1      -3.923   3.843  24.245  0.00  0.00    +0.130 C 
ATOM     14  C   UNL     1      -1.976   1.253  22.720  0.00  0.00    +0.117 C 
ATOM     15  C   UNL     1      -1.575   2.980  24.494  0.00  0.00    +0.048 A 
ATOM     16  C   UNL     1      -0.506   2.727  25.284  0.00  0.00    +0.054 A 
ATOM     17  C   UNL     1      -2.889   3.706  26.448  0.00  0.00    +0.252 A 
ATOM     18  C   UNL     1      -3.815   0.019  23.986  0.00  0.00    +0.247 C 
ATOM     19  C   UNL     1      -0.582   2.959  26.706  0.00  0.00    +0.030 A 
ATOM     20  C   UNL     1      -1.698   3.411  27.281  0.00  0.00    +0.072 A 
ENDROOT
BRANCH  18  21
ATOM      1  F   UNL     1       0.015  -3.421  26.166  0.00  0.00    -0.205 F 
ATOM     21  C   UNL     1      -2.811  -0.884  24.559  0.00  0.00    +0.037 A 
ATOM     23  C   UNL     1      -2.554  -2.108  23.949  0.00  0.00    +0.016 A 
ATOM     24  C   UNL     1      -2.120  -0.511  25.710  0.00  0.00    +0.016 A 
ATOM     26  C   UNL     1      -1.597  -2.967  24.493  0.00  0.00    +0.039 A 
ATOM     27  C   UNL     1      -1.164  -1.370  26.253  0.00  0.00    +0.039 A 
ATOM     28  C   UNL     1      -0.903  -2.597  25.645  0.00  0.00    +0.123 A 
ENDBRANCH  18  21
BRANCH  16   7
ATOM      4  O   UNL     1      -0.176   0.324  23.782  0.00  0.00    -0.270 OA
ATOM      7  N   UNL     1       0.678   2.221  24.821  0.00  0.00    -0.280 N 
ATOM     22  C   UNL     1       0.769   1.045  24.094  0.00  0.00    +0.248 C 
ATOM     35  H   UNL     1       1.475   2.847  24.811  0.00  0.00    +0.155 HD
BRANCH  22  25
ATOM     25  C   UNL     1       2.138   0.668  23.656  0.00  0.00    +0.037 A 
ATOM     29  C   UNL     1       2.545  -0.642  23.802  0.00  0.00    +0.014 A 
ATOM     30  C   UNL     1       2.956   1.639  23.119  0.00  0.00    +0.014 A 
ATOM     31  C   UNL     1       3.830  -0.996  23.392  0.00  0.00    +0.019 A 
ATOM     32  C   UNL     1       4.241   1.284  22.709  0.00  0.00    +0.019 A 
ATOM     33  C   UNL     1       4.679  -0.033  22.845  0.00  0.00    +0.052 A 
BRANCH  33  34
ATOM      8  N   UNL     1       7.066  -0.691  22.085  0.00  0.00    -0.191 NA
ATOM     34  C   UNL     1       5.995  -0.396  22.426  0.00  0.00    +0.099 C 
ENDBRANCH  33  34
ENDBRANCH  22  25
ENDBRANCH  16   7
TORSDOF 4
ENDMDL
