MODEL 1
REMARK VINA RESULT:       1.7      0.000      0.000
REMARK  Name = 11879562
REMARK  10 active torsions:
REMARK  status: ('A' for Active; 'I' for Inactive)
REMARK    1  A    between atoms: O_3  and  C_18
REMARK    2  A    between atoms: O_3  and  C_23
REMARK    3  A    between atoms: O_5  and  C_28
REMARK    4  A    between atoms: O_5  and  C_34
REMARK    5  A    between atoms: N_6  and  C_14
REMARK    6  A    between atoms: N_7  and  C_15
REMARK    7  A    between atoms: N_11  and  C_29
REMARK    8  A    between atoms: N_11  and  C_32
REMARK    9  A    between atoms: N_11  and  C_33
REMARK   10  A    between atoms: C_19  and  C_20
REMARK                            x       y       z     vdW  Elec       q    Type
REMARK                         _______ _______ _______ _____ _____    ______ ____
ROOT
ATOM      1  O   UNL     1      -3.112   4.655  26.799  0.00  0.00    -0.370 OA
ATOM      2  O   UNL     1      -2.995   4.338  23.673  0.00  0.00    -0.370 OA
ATOM     12  C   UNL     1      -3.377   3.465  24.751  0.00  0.00    +0.176 C 
ATOM     13  C   UNL     1      -2.443   3.748  25.910  0.00  0.00    +0.171 C 
ATOM     14  C   UNL     1      -4.753   3.851  25.262  0.00  0.00    +0.171 C 
ATOM     15  C   UNL     1      -1.250   4.424  25.273  0.00  0.00    +0.130 C 
ATOM     16  C   UNL     1      -4.442   4.902  26.322  0.00  0.00    +0.190 C 
ATOM     17  C   UNL     1      -1.877   5.136  24.088  0.00  0.00    +0.185 C 
ENDROOT
BRANCH  14   6
ATOM      6  N   UNL     1      -5.520   2.697  25.739  0.00  0.00    -0.187 N 
ATOM      8  N   UNL     1      -6.382   2.818  26.752  0.00  0.00    -0.041 NA
ATOM      9  N   UNL     1      -6.343   0.717  26.006  0.00  0.00    -0.071 NA
ATOM     10  N   UNL     1      -6.886   1.600  26.913  0.00  0.00    -0.020 NA
ATOM     18  C   UNL     1      -5.499   1.420  25.288  0.00  0.00    +0.342 A 
BRANCH  18   3
ATOM      3  O   UNL     1      -4.749   0.979  24.296  0.00  0.00    -0.423 OA
BRANCH   3  23
ATOM     23  C   UNL     1      -4.046  -0.216  24.365  0.00  0.00    +0.134 A 
ATOM     26  C   UNL     1      -2.836  -0.246  25.032  0.00  0.00    +0.069 A 
ATOM     27  C   UNL     1      -4.577  -1.340  23.764  0.00  0.00    +0.046 A 
ATOM     29  C   UNL     1      -2.132  -1.447  25.102  0.00  0.00    +0.033 A 
ATOM     30  C   UNL     1      -3.872  -2.542  23.833  0.00  0.00    +0.005 A 
ATOM     31  C   UNL     1      -2.649  -2.596  24.502  0.00  0.00    +0.023 A 
BRANCH  29  11
ATOM     11  N   UNL     1      -0.896  -1.501  25.779  0.00  0.00    -0.336 N 
ATOM     32  C   UNL     1       0.042  -2.573  25.511  0.00  0.00    +0.129 C 
ATOM     33  C   UNL     1      -0.553  -0.494  26.763  0.00  0.00    +0.129 C 
ENDBRANCH  29  11
ENDBRANCH   3  23
ENDBRANCH  18   3
ENDBRANCH  14   6
BRANCH  15   7
ATOM      4  O   UNL     1      -1.637   2.331  23.346  0.00  0.00    -0.270 OA
ATOM      7  N   UNL     1      -0.269   3.457  24.843  0.00  0.00    -0.304 N 
ATOM     19  C   UNL     1      -0.551   2.477  23.901  0.00  0.00    +0.244 C 
ATOM     35  H   UNL     1       0.614   3.446  25.343  0.00  0.00    +0.149 HD
BRANCH  19  20
ATOM     20  C   UNL     1       0.558   1.541  23.587  0.00  0.00    +0.037 A 
ATOM     21  C   UNL     1       0.253   0.259  23.177  0.00  0.00    +0.016 A 
ATOM     22  C   UNL     1       1.859   1.982  23.716  0.00  0.00    +0.016 A 
ATOM     24  C   UNL     1       1.296  -0.620  22.883  0.00  0.00    +0.046 A 
ATOM     25  C   UNL     1       2.901   1.102  23.421  0.00  0.00    +0.046 A 
ATOM     28  C   UNL     1       2.619  -0.198  23.005  0.00  0.00    +0.120 A 
BRANCH  28   5
ATOM      5  O   UNL     1       3.636  -1.057  22.720  0.00  0.00    -0.495 OA
ATOM     34  C   UNL     1       4.766  -1.038  23.591  0.00  0.00    +0.277 C 
ENDBRANCH  28   5
ENDBRANCH  19  20
ENDBRANCH  15   7
TORSDOF 7
ENDMDL
MODEL 2
REMARK VINA RESULT:       2.9      2.325      4.619
REMARK  Name = 11879562
REMARK  10 active torsions:
REMARK  status: ('A' for Active; 'I' for Inactive)
REMARK    1  A    between atoms: O_3  and  C_18
REMARK    2  A    between atoms: O_3  and  C_23
REMARK    3  A    between atoms: O_5  and  C_28
REMARK    4  A    between atoms: O_5  and  C_34
REMARK    5  A    between atoms: N_6  and  C_14
REMARK    6  A    between atoms: N_7  and  C_15
REMARK    7  A    between atoms: N_11  and  C_29
REMARK    8  A    between atoms: N_11  and  C_32
REMARK    9  A    between atoms: N_11  and  C_33
REMARK   10  A    between atoms: C_19  and  C_20
REMARK                            x       y       z     vdW  Elec       q    Type
REMARK                         _______ _______ _______ _____ _____    ______ ____
ROOT
ATOM      1  O   UNL     1      -3.320  -0.724  23.410  0.00  0.00    -0.370 OA
ATOM      2  O   UNL     1      -1.998  -0.545  26.257  0.00  0.00    -0.370 OA
ATOM     12  C   UNL     1      -2.264   0.415  25.218  0.00  0.00    +0.176 C 
ATOM     13  C   UNL     1      -2.041  -0.287  23.893  0.00  0.00    +0.171 C 
ATOM     14  C   UNL     1      -3.737   0.778  25.219  0.00  0.00    +0.171 C 
ATOM     15  C   UNL     1      -1.177  -1.478  24.241  0.00  0.00    +0.130 C 
ATOM     16  C   UNL     1      -4.350  -0.274  24.301  0.00  0.00    +0.190 C 
ATOM     17  C   UNL     1      -1.615  -1.791  25.660  0.00  0.00    +0.185 C 
ENDROOT
BRANCH  14   6
ATOM      6  N   UNL     1      -3.973   2.167  24.814  0.00  0.00    -0.187 N 
ATOM      8  N   UNL     1      -4.744   2.452  23.760  0.00  0.00    -0.041 NA
ATOM      9  N   UNL     1      -3.965   4.323  24.688  0.00  0.00    -0.071 NA
ATOM     10  N   UNL     1      -4.736   3.778  23.687  0.00  0.00    -0.020 NA
ATOM     18  C   UNL     1      -3.503   3.305  25.375  0.00  0.00    +0.342 A 
BRANCH  18   3
ATOM      3  O   UNL     1      -2.713   3.359  26.431  0.00  0.00    -0.423 OA
BRANCH   3  23
ATOM     23  C   UNL     1      -1.355   3.079  26.365  0.00  0.00    +0.134 A 
ATOM     26  C   UNL     1      -0.626   3.005  27.537  0.00  0.00    +0.069 A 
ATOM     27  C   UNL     1      -0.772   2.882  25.128  0.00  0.00    +0.046 A 
ATOM     29  C   UNL     1       0.737   2.723  27.468  0.00  0.00    +0.033 A 
ATOM     30  C   UNL     1       0.592   2.599  25.060  0.00  0.00    +0.005 A 
ATOM     31  C   UNL     1       1.347   2.519  26.230  0.00  0.00    +0.023 A 
BRANCH  29  11
ATOM     11  N   UNL     1       1.500   2.642  28.652  0.00  0.00    -0.336 N 
ATOM     32  C   UNL     1       0.855   2.405  29.927  0.00  0.00    +0.129 C 
ATOM     33  C   UNL     1       2.940   2.808  28.610  0.00  0.00    +0.129 C 
ENDBRANCH  29  11
ENDBRANCH   3  23
ENDBRANCH  18   3
ENDBRANCH  14   6
BRANCH  15   7
ATOM      4  O   UNL     1       0.223  -0.303  22.026  0.00  0.00    -0.270 OA
ATOM      7  N   UNL     1       0.225  -1.139  24.189  0.00  0.00    -0.304 N 
ATOM     19  C   UNL     1       0.815  -0.572  23.069  0.00  0.00    +0.244 C 
ATOM     35  H   UNL     1       0.798  -1.440  24.971  0.00  0.00    +0.149 HD
BRANCH  19  20
ATOM     20  C   UNL     1       2.273  -0.308  23.165  0.00  0.00    +0.037 A 
ATOM     21  C   UNL     1       2.762   0.906  22.730  0.00  0.00    +0.016 A 
ATOM     22  C   UNL     1       3.094  -1.289  23.685  0.00  0.00    +0.016 A 
ATOM     24  C   UNL     1       4.132   1.152  22.820  0.00  0.00    +0.046 A 
ATOM     25  C   UNL     1       4.464  -1.041  23.775  0.00  0.00    +0.046 A 
ATOM     28  C   UNL     1       4.983   0.179  23.342  0.00  0.00    +0.120 A 
BRANCH  28   5
ATOM      5  O   UNL     1       6.320   0.418  23.428  0.00  0.00    -0.495 OA
ATOM     34  C   UNL     1       7.195  -0.596  22.935  0.00  0.00    +0.277 C 
ENDBRANCH  28   5
ENDBRANCH  19  20
ENDBRANCH  15   7
TORSDOF 7
ENDMDL
MODEL 3
REMARK VINA RESULT:       3.4      1.579      4.171
REMARK  Name = 11879562
REMARK  10 active torsions:
REMARK  status: ('A' for Active; 'I' for Inactive)
REMARK    1  A    between atoms: O_3  and  C_18
REMARK    2  A    between atoms: O_3  and  C_23
REMARK    3  A    between atoms: O_5  and  C_28
REMARK    4  A    between atoms: O_5  and  C_34
REMARK    5  A    between atoms: N_6  and  C_14
REMARK    6  A    between atoms: N_7  and  C_15
REMARK    7  A    between atoms: N_11  and  C_29
REMARK    8  A    between atoms: N_11  and  C_32
REMARK    9  A    between atoms: N_11  and  C_33
REMARK   10  A    between atoms: C_19  and  C_20
REMARK                            x       y       z     vdW  Elec       q    Type
REMARK                         _______ _______ _______ _____ _____    ______ ____
ROOT
ATOM      1  O   UNL     1      -4.842  -0.494  23.567  0.00  0.00    -0.370 OA
ATOM      2  O   UNL     1      -3.194  -0.886  26.216  0.00  0.00    -0.370 OA
ATOM     12  C   UNL     1      -3.573   0.263  25.437  0.00  0.00    +0.176 C 
ATOM     13  C   UNL     1      -3.512  -0.144  23.979  0.00  0.00    +0.171 C 
ATOM     14  C   UNL     1      -5.033   0.593  25.685  0.00  0.00    +0.171 C 
ATOM     15  C   UNL     1      -2.622  -1.367  23.968  0.00  0.00    +0.130 C 
ATOM     16  C   UNL     1      -5.757  -0.257  24.647  0.00  0.00    +0.190 C 
ATOM     17  C   UNL     1      -2.892  -1.975  25.332  0.00  0.00    +0.185 C 
ENDROOT
BRANCH  14   6
ATOM      6  N   UNL     1      -5.305   2.031  25.608  0.00  0.00    -0.187 N 
ATOM      8  N   UNL     1      -6.376   2.559  26.209  0.00  0.00    -0.041 NA
ATOM      9  N   UNL     1      -5.203   4.144  25.168  0.00  0.00    -0.071 NA
ATOM     10  N   UNL     1      -6.309   3.857  25.937  0.00  0.00    -0.020 NA
ATOM     18  C   UNL     1      -4.595   2.996  24.978  0.00  0.00    +0.342 A 
BRANCH  18   3
ATOM      3  O   UNL     1      -3.485   2.794  24.293  0.00  0.00    -0.423 OA
BRANCH   3  23
ATOM     23  C   UNL     1      -2.247   3.245  24.728  0.00  0.00    +0.134 A 
ATOM     26  C   UNL     1      -1.580   2.536  25.709  0.00  0.00    +0.069 A 
ATOM     27  C   UNL     1      -1.716   4.390  24.165  0.00  0.00    +0.046 A 
ATOM     29  C   UNL     1      -0.335   2.989  26.143  0.00  0.00    +0.033 A 
ATOM     30  C   UNL     1      -0.470   4.843  24.600  0.00  0.00    +0.005 A 
ATOM     31  C   UNL     1       0.221   4.143  25.589  0.00  0.00    +0.023 A 
BRANCH  29  11
ATOM     11  N   UNL     1       0.364   2.281  27.143  0.00  0.00    -0.336 N 
ATOM     32  C   UNL     1      -0.048   0.943  27.519  0.00  0.00    +0.129 C 
ATOM     33  C   UNL     1       1.494   2.886  27.818  0.00  0.00    +0.129 C 
ENDBRANCH  29  11
ENDBRANCH   3  23
ENDBRANCH  18   3
ENDBRANCH  14   6
BRANCH  15   7
ATOM      4  O   UNL     1      -1.586   0.912  22.561  0.00  0.00    -0.270 OA
ATOM      7  N   UNL     1      -1.234  -1.001  23.825  0.00  0.00    -0.304 N 
ATOM     19  C   UNL     1      -0.828   0.125  23.122  0.00  0.00    +0.244 C 
ATOM     35  H   UNL     1      -0.547  -1.667  24.164  0.00  0.00    +0.149 HD
BRANCH  19  20
ATOM     20  C   UNL     1       0.639   0.348  23.044  0.00  0.00    +0.037 A 
ATOM     21  C   UNL     1       1.193   1.396  23.749  0.00  0.00    +0.016 A 
ATOM     22  C   UNL     1       1.400  -0.500  22.265  0.00  0.00    +0.016 A 
ATOM     24  C   UNL     1       2.569   1.605  23.673  0.00  0.00    +0.046 A 
ATOM     25  C   UNL     1       2.777  -0.290  22.191  0.00  0.00    +0.046 A 
ATOM     28  C   UNL     1       3.362   0.763  22.895  0.00  0.00    +0.120 A 
BRANCH  28   5
ATOM      5  O   UNL     1       4.705   0.969  22.819  0.00  0.00    -0.495 OA
ATOM     34  C   UNL     1       5.541   0.087  23.568  0.00  0.00    +0.277 C 
ENDBRANCH  28   5
ENDBRANCH  19  20
ENDBRANCH  15   7
TORSDOF 7
ENDMDL
MODEL 4
REMARK VINA RESULT:       3.5      2.096      4.550
REMARK  Name = 11879562
REMARK  10 active torsions:
REMARK  status: ('A' for Active; 'I' for Inactive)
REMARK    1  A    between atoms: O_3  and  C_18
REMARK    2  A    between atoms: O_3  and  C_23
REMARK    3  A    between atoms: O_5  and  C_28
REMARK    4  A    between atoms: O_5  and  C_34
REMARK    5  A    between atoms: N_6  and  C_14
REMARK    6  A    between atoms: N_7  and  C_15
REMARK    7  A    between atoms: N_11  and  C_29
REMARK    8  A    between atoms: N_11  and  C_32
REMARK    9  A    between atoms: N_11  and  C_33
REMARK   10  A    between atoms: C_19  and  C_20
REMARK                            x       y       z     vdW  Elec       q    Type
REMARK                         _______ _______ _______ _____ _____    ______ ____
ROOT
ATOM      1  O   UNL     1      -1.574   1.524  22.567  0.00  0.00    -0.370 OA
ATOM      2  O   UNL     1      -0.926   0.133  25.312  0.00  0.00    -0.370 OA
ATOM     12  C   UNL     1      -0.770   1.473  24.811  0.00  0.00    +0.176 C 
ATOM     13  C   UNL     1      -0.382   1.363  23.350  0.00  0.00    +0.171 C 
ATOM     14  C   UNL     1      -2.114   2.178  24.800  0.00  0.00    +0.171 C 
ATOM     15  C   UNL     1       0.150  -0.046  23.209  0.00  0.00    +0.130 C 
ATOM     16  C   UNL     1      -2.682   1.811  23.433  0.00  0.00    +0.190 C 
ATOM     17  C   UNL     1      -0.648  -0.799  24.257  0.00  0.00    +0.185 C 
ENDROOT
BRANCH  14   6
ATOM      6  N   UNL     1      -1.997   3.615  25.058  0.00  0.00    -0.187 N 
ATOM      8  N   UNL     1      -0.940   4.306  24.621  0.00  0.00    -0.041 NA
ATOM      9  N   UNL     1      -2.349   5.643  25.715  0.00  0.00    -0.071 NA
ATOM     10  N   UNL     1      -1.161   5.551  25.026  0.00  0.00    -0.020 NA
ATOM     18  C   UNL     1      -2.850   4.430  25.722  0.00  0.00    +0.342 A 
BRANCH  18   3
ATOM      3  O   UNL     1      -3.986   4.049  26.275  0.00  0.00    -0.423 OA
BRANCH   3  23
ATOM     23  C   UNL     1      -4.724   2.972  25.801  0.00  0.00    +0.134 A 
ATOM     26  C   UNL     1      -4.133   1.724  25.750  0.00  0.00    +0.069 A 
ATOM     27  C   UNL     1      -6.028   3.181  25.396  0.00  0.00    +0.046 A 
ATOM     29  C   UNL     1      -4.876   0.644  25.275  0.00  0.00    +0.033 A 
ATOM     30  C   UNL     1      -6.771   2.099  24.922  0.00  0.00    +0.005 A 
ATOM     31  C   UNL     1      -6.195   0.831  24.861  0.00  0.00    +0.023 A 
BRANCH  29  11
ATOM     11  N   UNL     1      -4.294  -0.640  25.215  0.00  0.00    -0.336 N 
ATOM     32  C   UNL     1      -3.613  -1.193  26.369  0.00  0.00    +0.129 C 
ATOM     33  C   UNL     1      -4.356  -1.418  23.994  0.00  0.00    +0.129 C 
ENDBRANCH  29  11
ENDBRANCH   3  23
ENDBRANCH  18   3
ENDBRANCH  14   6
BRANCH  15   7
ATOM      4  O   UNL     1       2.281  -0.113  21.286  0.00  0.00    -0.270 OA
ATOM      7  N   UNL     1       1.564  -0.100  23.491  0.00  0.00    -0.304 N 
ATOM     19  C   UNL     1       2.524  -0.130  22.490  0.00  0.00    +0.244 C 
ATOM     35  H   UNL     1       1.834  -0.234  24.461  0.00  0.00    +0.149 HD
BRANCH  19  20
ATOM     20  C   UNL     1       3.936  -0.214  22.945  0.00  0.00    +0.037 A 
ATOM     21  C   UNL     1       4.415  -1.419  23.414  0.00  0.00    +0.016 A 
ATOM     22  C   UNL     1       4.722   0.919  22.886  0.00  0.00    +0.016 A 
ATOM     24  C   UNL     1       5.741  -1.495  23.842  0.00  0.00    +0.046 A 
ATOM     25  C   UNL     1       6.048   0.841  23.314  0.00  0.00    +0.046 A 
ATOM     28  C   UNL     1       6.556  -0.366  23.792  0.00  0.00    +0.120 A 
BRANCH  28   5
ATOM      5  O   UNL     1       7.849  -0.441  24.212  0.00  0.00    -0.495 OA
ATOM     34  C   UNL     1       8.863  -0.151  23.250  0.00  0.00    +0.277 C 
ENDBRANCH  28   5
ENDBRANCH  19  20
ENDBRANCH  15   7
TORSDOF 7
ENDMDL
MODEL 5
REMARK VINA RESULT:       5.4      1.200      1.995
REMARK  Name = 11879562
REMARK  10 active torsions:
REMARK  status: ('A' for Active; 'I' for Inactive)
REMARK    1  A    between atoms: O_3  and  C_18
REMARK    2  A    between atoms: O_3  and  C_23
REMARK    3  A    between atoms: O_5  and  C_28
REMARK    4  A    between atoms: O_5  and  C_34
REMARK    5  A    between atoms: N_6  and  C_14
REMARK    6  A    between atoms: N_7  and  C_15
REMARK    7  A    between atoms: N_11  and  C_29
REMARK    8  A    between atoms: N_11  and  C_32
REMARK    9  A    between atoms: N_11  and  C_33
REMARK   10  A    between atoms: C_19  and  C_20
REMARK                            x       y       z     vdW  Elec       q    Type
REMARK                         _______ _______ _______ _____ _____    ______ ____
ROOT
ATOM      1  O   UNL     1      -2.888   4.077  26.864  0.00  0.00    -0.370 OA
ATOM      2  O   UNL     1      -2.382   4.680  23.820  0.00  0.00    -0.370 OA
ATOM     12  C   UNL     1      -2.892   3.544  24.541  0.00  0.00    +0.176 C 
ATOM     13  C   UNL     1      -2.109   3.447  25.836  0.00  0.00    +0.171 C 
ATOM     14  C   UNL     1      -4.322   3.808  24.974  0.00  0.00    +0.171 C 
ATOM     15  C   UNL     1      -0.850   4.241  25.572  0.00  0.00    +0.130 C 
ATOM     16  C   UNL     1      -4.150   4.495  26.324  0.00  0.00    +0.190 C 
ATOM     17  C   UNL     1      -1.328   5.286  24.581  0.00  0.00    +0.185 C 
ENDROOT
BRANCH  14   6
ATOM      6  N   UNL     1      -5.137   2.591  24.996  0.00  0.00    -0.187 N 
ATOM      8  N   UNL     1      -6.385   2.592  24.519  0.00  0.00    -0.041 NA
ATOM      9  N   UNL     1      -5.842   0.569  25.283  0.00  0.00    -0.071 NA
ATOM     10  N   UNL     1      -6.814   1.348  24.696  0.00  0.00    -0.020 NA
ATOM     18  C   UNL     1      -4.811   1.361  25.458  0.00  0.00    +0.342 A 
BRANCH  18   3
ATOM      3  O   UNL     1      -3.649   1.036  25.993  0.00  0.00    -0.423 OA
BRANCH   3  23
ATOM     23  C   UNL     1      -2.935  -0.089  25.604  0.00  0.00    +0.134 A 
ATOM     26  C   UNL     1      -3.556  -1.039  24.814  0.00  0.00    +0.069 A 
ATOM     27  C   UNL     1      -1.624  -0.226  26.017  0.00  0.00    +0.046 A 
ATOM     29  C   UNL     1      -2.837  -2.167  24.423  0.00  0.00    +0.033 A 
ATOM     30  C   UNL     1      -0.905  -1.355  25.624  0.00  0.00    +0.005 A 
ATOM     31  C   UNL     1      -1.511  -2.326  24.828  0.00  0.00    +0.023 A 
BRANCH  29  11
ATOM     11  N   UNL     1      -3.450  -3.148  23.616  0.00  0.00    -0.336 N 
ATOM     32  C   UNL     1      -4.864  -3.067  23.307  0.00  0.00    +0.129 C 
ATOM     33  C   UNL     1      -2.678  -4.259  23.096  0.00  0.00    +0.129 C 
ENDBRANCH  29  11
ENDBRANCH   3  23
ENDBRANCH  18   3
ENDBRANCH  14   6
BRANCH  15   7
ATOM      4  O   UNL     1      -1.230   2.023  23.789  0.00  0.00    -0.270 OA
ATOM      7  N   UNL     1       0.181   3.410  24.998  0.00  0.00    -0.304 N 
ATOM     19  C   UNL     1      -0.102   2.355  24.143  0.00  0.00    +0.244 C 
ATOM     35  H   UNL     1       1.127   3.554  25.337  0.00  0.00    +0.149 HD
BRANCH  19  20
ATOM     20  C   UNL     1       1.069   1.579  23.659  0.00  0.00    +0.037 A 
ATOM     21  C   UNL     1       0.913   0.235  23.388  0.00  0.00    +0.016 A 
ATOM     22  C   UNL     1       2.277   2.227  23.500  0.00  0.00    +0.016 A 
ATOM     24  C   UNL     1       2.013  -0.492  22.935  0.00  0.00    +0.046 A 
ATOM     25  C   UNL     1       3.377   1.497  23.046  0.00  0.00    +0.046 A 
ATOM     28  C   UNL     1       3.244   0.138  22.764  0.00  0.00    +0.120 A 
BRANCH  28   5
ATOM      5  O   UNL     1       4.318  -0.573  22.325  0.00  0.00    -0.495 OA
ATOM     34  C   UNL     1       5.554  -0.375  23.010  0.00  0.00    +0.277 C 
ENDBRANCH  28   5
ENDBRANCH  19  20
ENDBRANCH  15   7
TORSDOF 7
ENDMDL
