MODEL 1
REMARK VINA RESULT:       2.3      0.000      0.000
REMARK  Name = 51136916
REMARK  6 active torsions:
REMARK  status: ('A' for Active; 'I' for Inactive)
REMARK    1  A    between atoms: N_2  and  C_12
REMARK    2  A    between atoms: C_8  and  C_13
REMARK    3  A    between atoms: C_12  and  C_14
REMARK    4  A    between atoms: C_12  and  C_15
REMARK    5  A    between atoms: C_16  and  C_17
REMARK    6  A    between atoms: C_21  and  C_22
REMARK                            x       y       z     vdW  Elec       q    Type
REMARK                         _______ _______ _______ _____ _____    ______ ____
ROOT
ATOM      1  O   UNL     1      -3.378   2.187  22.301  0.00  0.00    -0.336 OA
ATOM      3  N   UNL     1      -2.091   2.097  24.132  0.00  0.00    -0.190 NA
ATOM      4  N   UNL     1      -2.159   1.631  21.893  0.00  0.00    -0.056 NA
ATOM     13  C   UNL     1      -3.254   2.432  23.632  0.00  0.00    +0.245 A 
ATOM     16  C   UNL     1      -1.453   1.610  23.028  0.00  0.00    +0.204 A 
ENDROOT
BRANCH  16  17
ATOM      5  N   UNL     1       2.161   1.390  23.870  0.00  0.00    -0.254 NA
ATOM     17  C   UNL     1      -0.110   1.111  23.092  0.00  0.00    +0.041 A 
ATOM     18  C   UNL     1       0.239  -0.084  22.473  0.00  0.00    +0.015 A 
ATOM     19  C   UNL     1       0.878   1.804  23.772  0.00  0.00    +0.123 A 
ATOM     20  C   UNL     1       1.550  -0.543  22.552  0.00  0.00    +0.029 A 
ATOM     21  C   UNL     1       2.465   0.224  23.256  0.00  0.00    +0.074 A 
BRANCH  21  22
ATOM      6  N   UNL     1       5.468  -1.889  23.898  0.00  0.00    -0.243 NA
ATOM      7  N   UNL     1       6.192   0.310  23.230  0.00  0.00    -0.243 NA
ATOM     22  C   UNL     1       3.842  -0.191  23.379  0.00  0.00    +0.037 A 
ATOM     23  C   UNL     1       4.192  -1.468  23.769  0.00  0.00    +0.124 A 
ATOM     24  C   UNL     1       4.894   0.664  23.120  0.00  0.00    +0.124 A 
ATOM     25  C   UNL     1       6.403  -0.962  23.616  0.00  0.00    +0.221 A 
ENDBRANCH  21  22
ENDBRANCH  16  17
BRANCH  13   8
ATOM      2  N   UNL     1      -4.756   2.399  25.616  0.00  0.00    -0.289 NA
ATOM      8  C   UNL     1      -4.455   3.044  24.322  0.00  0.00    +0.146 C 
ATOM      9  C   UNL     1      -4.252   4.531  24.663  0.00  0.00    +0.030 C 
ATOM     10  C   UNL     1      -5.379   3.424  26.453  0.00  0.00    +0.085 C 
ATOM     11  C   UNL     1      -4.518   4.636  26.158  0.00  0.00    +0.017 C 
BRANCH   2  12
ATOM     12  C   UNL     1      -5.592   1.213  25.486  0.00  0.00    +0.051 C 
ATOM     14  C   UNL     1      -6.773   1.521  24.570  0.00  0.00    +0.024 C 
ATOM     15  C   UNL     1      -4.773   0.043  24.951  0.00  0.00    +0.024 C 
ENDBRANCH   2  12
ENDBRANCH  13   8
TORSDOF 4
ENDMDL
MODEL 2
REMARK VINA RESULT:       3.2      0.944      2.052
REMARK  Name = 51136916
REMARK  6 active torsions:
REMARK  status: ('A' for Active; 'I' for Inactive)
REMARK    1  A    between atoms: N_2  and  C_12
REMARK    2  A    between atoms: C_8  and  C_13
REMARK    3  A    between atoms: C_12  and  C_14
REMARK    4  A    between atoms: C_12  and  C_15
REMARK    5  A    between atoms: C_16  and  C_17
REMARK    6  A    between atoms: C_21  and  C_22
REMARK                            x       y       z     vdW  Elec       q    Type
REMARK                         _______ _______ _______ _____ _____    ______ ____
ROOT
ATOM      1  O   UNL     1      -3.496   1.677  23.321  0.00  0.00    -0.336 OA
ATOM      3  N   UNL     1      -2.005   1.564  24.988  0.00  0.00    -0.190 NA
ATOM      4  N   UNL     1      -2.306   1.211  22.747  0.00  0.00    -0.056 NA
ATOM     13  C   UNL     1      -3.233   1.859  24.641  0.00  0.00    +0.245 A 
ATOM     16  C   UNL     1      -1.475   1.171  23.793  0.00  0.00    +0.204 A 
ENDROOT
BRANCH  16  17
ATOM      5  N   UNL     1       2.241   1.295  23.781  0.00  0.00    -0.254 NA
ATOM     17  C   UNL     1      -0.110   0.744  23.678  0.00  0.00    +0.041 A 
ATOM     18  C   UNL     1       0.204  -0.573  23.365  0.00  0.00    +0.015 A 
ATOM     19  C   UNL     1       0.935   1.632  23.875  0.00  0.00    +0.123 A 
ATOM     20  C   UNL     1       1.537  -0.958  23.260  0.00  0.00    +0.029 A 
ATOM     21  C   UNL     1       2.509   0.006  23.475  0.00  0.00    +0.074 A 
BRANCH  21  22
ATOM      6  N   UNL     1       5.717  -1.871  23.746  0.00  0.00    -0.243 NA
ATOM      7  N   UNL     1       6.158   0.286  22.765  0.00  0.00    -0.243 NA
ATOM     22  C   UNL     1       3.912  -0.322  23.383  0.00  0.00    +0.037 A 
ATOM     23  C   UNL     1       4.413  -1.533  23.813  0.00  0.00    +0.124 A 
ATOM     24  C   UNL     1       4.839   0.558  22.863  0.00  0.00    +0.124 A 
ATOM     25  C   UNL     1       6.522  -0.929  23.218  0.00  0.00    +0.221 A 
ENDBRANCH  21  22
ENDBRANCH  16  17
BRANCH  13   8
ATOM      2  N   UNL     1      -4.690   3.786  25.238  0.00  0.00    -0.289 NA
ATOM      8  C   UNL     1      -4.376   2.366  25.495  0.00  0.00    +0.146 C 
ATOM      9  C   UNL     1      -5.695   1.619  25.227  0.00  0.00    +0.030 C 
ATOM     10  C   UNL     1      -6.116   3.951  25.518  0.00  0.00    +0.085 C 
ATOM     11  C   UNL     1      -6.705   2.706  24.887  0.00  0.00    +0.017 C 
BRANCH   2  12
ATOM     12  C   UNL     1      -3.869   4.706  26.014  0.00  0.00    +0.051 C 
ATOM     14  C   UNL     1      -3.534   4.075  27.362  0.00  0.00    +0.024 C 
ATOM     15  C   UNL     1      -2.600   5.062  25.245  0.00  0.00    +0.024 C 
ENDBRANCH   2  12
ENDBRANCH  13   8
TORSDOF 4
ENDMDL
