MODEL 1
REMARK VINA RESULT:      -5.9      0.000      0.000
REMARK  Name = 56775726
REMARK  7 active torsions:
REMARK  status: ('A' for Active; 'I' for Inactive)
REMARK    1  A    between atoms: O_3  and  C_23
REMARK    2  A    between atoms: N_4  and  C_6
REMARK    3  A    between atoms: N_4  and  C_11
REMARK    4  A    between atoms: C_6  and  C_9
REMARK    5  A    between atoms: C_9  and  C_10
REMARK    6  A    between atoms: C_11  and  C_12
REMARK    7  A    between atoms: C_14  and  C_17
REMARK                            x       y       z     vdW  Elec       q    Type
REMARK                         _______ _______ _______ _____ _____    ______ ____
ROOT
ATOM      9  C   UNL     1      -2.523   4.043  25.731  0.00  0.00    +0.085 C 
ENDROOT
BRANCH   9  10
ATOM      2  O   UNL     1       0.385   1.968  25.708  0.00  0.00    -0.354 OA
ATOM      5  N   UNL     1      -0.566   2.742  26.361  0.00  0.00    -0.083 NA
ATOM     10  C   UNL     1      -1.380   3.178  25.395  0.00  0.00    +0.086 A 
ATOM     13  C   UNL     1      -0.995   2.716  24.124  0.00  0.00    +0.076 A 
ATOM     14  C   UNL     1       0.119   1.960  24.377  0.00  0.00    +0.168 A 
BRANCH  14  17
ATOM     17  C   UNL     1       1.027   1.190  23.561  0.00  0.00    +0.023 A 
ATOM     21  C   UNL     1       2.392   1.470  23.581  0.00  0.00    +0.057 A 
ATOM     22  C   UNL     1       0.536   0.166  22.751  0.00  0.00    +0.012 A 
ATOM     23  C   UNL     1       3.269   0.727  22.791  0.00  0.00    +0.118 A 
ATOM     24  C   UNL     1       1.413  -0.578  21.960  0.00  0.00    +0.004 A 
ATOM     25  C   UNL     1       2.779  -0.298  21.980  0.00  0.00    +0.045 A 
BRANCH  23   3
ATOM      3  O   UNL     1       4.602   1.001  22.811  0.00  0.00    -0.507 OA
ATOM     27  H   UNL     1       5.094   0.167  22.901  0.00  0.00    +0.292 HD
ENDBRANCH  23   3
ENDBRANCH  14  17
ENDBRANCH   9  10
BRANCH   9   6
ATOM      1  O   UNL     1      -5.898   3.871  25.659  0.00  0.00    -0.376 OA
ATOM      6  C   UNL     1      -3.847   3.408  25.290  0.00  0.00    +0.072 C 
ATOM      7  C   UNL     1      -4.925   4.294  24.677  0.00  0.00    +0.184 C 
ATOM      8  C   UNL     1      -4.898   3.083  26.346  0.00  0.00    +0.184 C 
BRANCH   6   4
ATOM      4  N   UNL     1      -3.660   2.239  24.439  0.00  0.00    -0.302 NA
ATOM     26  H   UNL     1      -2.693   1.946  24.313  0.00  0.00    +0.123 HD
BRANCH   4  11
ATOM     11  C   UNL     1      -4.453   1.124  24.951  0.00  0.00    +0.117 C 
BRANCH  11  12
ATOM     12  C   UNL     1      -3.734  -0.190  24.801  0.00  0.00    -0.034 A 
ATOM     15  C   UNL     1      -2.438  -0.336  25.297  0.00  0.00    +0.005 A 
ATOM     16  C   UNL     1      -4.363  -1.261  24.167  0.00  0.00    +0.005 A 
ATOM     18  C   UNL     1      -1.771  -1.553  25.159  0.00  0.00    +0.000 A 
ATOM     19  C   UNL     1      -3.696  -2.479  24.028  0.00  0.00    +0.000 A 
ATOM     20  C   UNL     1      -2.400  -2.625  24.524  0.00  0.00    +0.000 A 
ENDBRANCH  11  12
ENDBRANCH   4  11
ENDBRANCH   6   4
ENDBRANCH   9   6
TORSDOF 7
ENDMDL
MODEL 2
REMARK VINA RESULT:      -5.8      1.476      6.081
REMARK  Name = 56775726
REMARK  7 active torsions:
REMARK  status: ('A' for Active; 'I' for Inactive)
REMARK    1  A    between atoms: O_3  and  C_23
REMARK    2  A    between atoms: N_4  and  C_6
REMARK    3  A    between atoms: N_4  and  C_11
REMARK    4  A    between atoms: C_6  and  C_9
REMARK    5  A    between atoms: C_9  and  C_10
REMARK    6  A    between atoms: C_11  and  C_12
REMARK    7  A    between atoms: C_14  and  C_17
REMARK                            x       y       z     vdW  Elec       q    Type
REMARK                         _______ _______ _______ _____ _____    ______ ____
ROOT
ATOM      9  C   UNL     1       1.073   2.135  23.595  0.00  0.00    +0.085 C 
ENDROOT
BRANCH   9  10
ATOM      2  O   UNL     1      -1.595   2.685  25.906  0.00  0.00    -0.354 OA
ATOM      5  N   UNL     1      -0.246   2.625  25.579  0.00  0.00    -0.083 NA
ATOM     10  C   UNL     1      -0.217   2.291  24.286  0.00  0.00    +0.086 A 
ATOM     13  C   UNL     1      -1.506   2.127  23.749  0.00  0.00    +0.076 A 
ATOM     14  C   UNL     1      -2.335   2.386  24.808  0.00  0.00    +0.168 A 
BRANCH  14  17
ATOM     17  C   UNL     1      -3.766   2.410  24.992  0.00  0.00    +0.023 A 
ATOM     21  C   UNL     1      -4.401   3.589  25.380  0.00  0.00    +0.057 A 
ATOM     22  C   UNL     1      -4.514   1.251  24.784  0.00  0.00    +0.012 A 
ATOM     23  C   UNL     1      -5.783   3.611  25.560  0.00  0.00    +0.118 A 
ATOM     24  C   UNL     1      -5.897   1.272  24.965  0.00  0.00    +0.004 A 
ATOM     25  C   UNL     1      -6.532   2.451  25.353  0.00  0.00    +0.045 A 
BRANCH  23   3
ATOM      3  O   UNL     1      -6.403   4.762  25.939  0.00  0.00    -0.507 OA
ATOM     27  H   UNL     1      -7.340   4.715  25.682  0.00  0.00    +0.292 HD
ENDBRANCH  23   3
ENDBRANCH  14  17
ENDBRANCH   9  10
BRANCH   9   6
ATOM      1  O   UNL     1       2.470  -0.398  21.846  0.00  0.00    -0.376 OA
ATOM      6  C   UNL     1       1.404   0.655  23.366  0.00  0.00    +0.072 C 
ATOM      7  C   UNL     1       2.847   0.255  23.080  0.00  0.00    +0.184 C 
ATOM      8  C   UNL     1       1.099   0.032  22.008  0.00  0.00    +0.184 C 
BRANCH   6   4
ATOM      4  N   UNL     1       0.874  -0.213  24.410  0.00  0.00    -0.302 NA
ATOM     26  H   UNL     1       0.325   0.258  25.127  0.00  0.00    +0.123 HD
BRANCH   4  11
ATOM     11  C   UNL     1       0.086  -1.286  23.808  0.00  0.00    +0.117 C 
BRANCH  11  12
ATOM     12  C   UNL     1      -1.214  -1.503  24.536  0.00  0.00    -0.034 A 
ATOM     15  C   UNL     1      -1.451  -0.854  25.748  0.00  0.00    +0.005 A 
ATOM     16  C   UNL     1      -2.180  -2.353  23.999  0.00  0.00    +0.005 A 
ATOM     18  C   UNL     1      -2.655  -1.056  26.423  0.00  0.00    +0.000 A 
ATOM     19  C   UNL     1      -3.385  -2.555  24.674  0.00  0.00    +0.000 A 
ATOM     20  C   UNL     1      -3.622  -1.906  25.886  0.00  0.00    +0.000 A 
ENDBRANCH  11  12
ENDBRANCH   4  11
ENDBRANCH   6   4
ENDBRANCH   9   6
TORSDOF 7
ENDMDL
MODEL 3
REMARK VINA RESULT:      -3.9      1.935      2.622
REMARK  Name = 56775726
REMARK  7 active torsions:
REMARK  status: ('A' for Active; 'I' for Inactive)
REMARK    1  A    between atoms: O_3  and  C_23
REMARK    2  A    between atoms: N_4  and  C_6
REMARK    3  A    between atoms: N_4  and  C_11
REMARK    4  A    between atoms: C_6  and  C_9
REMARK    5  A    between atoms: C_9  and  C_10
REMARK    6  A    between atoms: C_11  and  C_12
REMARK    7  A    between atoms: C_14  and  C_17
REMARK                            x       y       z     vdW  Elec       q    Type
REMARK                         _______ _______ _______ _____ _____    ______ ____
ROOT
ATOM      9  C   UNL     1      -2.234   1.651  23.043  0.00  0.00    +0.085 C 
ENDROOT
BRANCH   9  10
ATOM      2  O   UNL     1       0.404  -0.674  23.670  0.00  0.00    -0.354 OA
ATOM      5  N   UNL     1      -0.941  -0.327  23.615  0.00  0.00    -0.083 NA
ATOM     10  C   UNL     1      -0.953   0.947  23.213  0.00  0.00    +0.086 A 
ATOM     13  C   UNL     1       0.342   1.452  23.001  0.00  0.00    +0.076 A 
ATOM     14  C   UNL     1       1.157   0.394  23.302  0.00  0.00    +0.168 A 
BRANCH  14  17
ATOM     17  C   UNL     1       2.585   0.184  23.308  0.00  0.00    +0.023 A 
ATOM     21  C   UNL     1       3.107  -1.058  23.664  0.00  0.00    +0.057 A 
ATOM     22  C   UNL     1       3.443   1.228  22.959  0.00  0.00    +0.012 A 
ATOM     23  C   UNL     1       4.487  -1.260  23.671  0.00  0.00    +0.118 A 
ATOM     24  C   UNL     1       4.823   1.027  22.967  0.00  0.00    +0.004 A 
ATOM     25  C   UNL     1       5.346  -0.216  23.323  0.00  0.00    +0.045 A 
BRANCH  23   3
ATOM      3  O   UNL     1       4.996  -2.473  24.019  0.00  0.00    -0.507 OA
ATOM     27  H   UNL     1       5.420  -2.872  23.239  0.00  0.00    +0.292 HD
ENDBRANCH  23   3
ENDBRANCH  14  17
ENDBRANCH   9  10
BRANCH   9   6
ATOM      1  O   UNL     1      -1.722   3.433  25.870  0.00  0.00    -0.376 OA
ATOM      6  C   UNL     1      -2.700   2.280  24.363  0.00  0.00    +0.072 C 
ATOM      7  C   UNL     1      -2.395   3.750  24.629  0.00  0.00    +0.184 C 
ATOM      8  C   UNL     1      -1.894   2.017  25.630  0.00  0.00    +0.184 C 
BRANCH   6   4
ATOM      4  N   UNL     1      -4.109   2.034  24.642  0.00  0.00    -0.302 NA
ATOM     26  H   UNL     1      -4.661   1.724  23.845  0.00  0.00    +0.123 HD
BRANCH   4  11
ATOM     11  C   UNL     1      -4.234   1.073  25.735  0.00  0.00    +0.117 C 
BRANCH  11  12
ATOM     12  C   UNL     1      -4.028  -0.342  25.264  0.00  0.00    -0.034 A 
ATOM     15  C   UNL     1      -3.333  -1.250  26.063  0.00  0.00    +0.005 A 
ATOM     16  C   UNL     1      -4.532  -0.745  24.027  0.00  0.00    +0.005 A 
ATOM     18  C   UNL     1      -3.142  -2.560  25.626  0.00  0.00    +0.000 A 
ATOM     19  C   UNL     1      -4.341  -2.056  23.590  0.00  0.00    +0.000 A 
ATOM     20  C   UNL     1      -3.646  -2.963  24.389  0.00  0.00    +0.000 A 
ENDBRANCH  11  12
ENDBRANCH   4  11
ENDBRANCH   6   4
ENDBRANCH   9   6
TORSDOF 7
ENDMDL
MODEL 4
REMARK VINA RESULT:      -3.1      1.879      6.827
REMARK  Name = 56775726
REMARK  7 active torsions:
REMARK  status: ('A' for Active; 'I' for Inactive)
REMARK    1  A    between atoms: O_3  and  C_23
REMARK    2  A    between atoms: N_4  and  C_6
REMARK    3  A    between atoms: N_4  and  C_11
REMARK    4  A    between atoms: C_6  and  C_9
REMARK    5  A    between atoms: C_9  and  C_10
REMARK    6  A    between atoms: C_11  and  C_12
REMARK    7  A    between atoms: C_14  and  C_17
REMARK                            x       y       z     vdW  Elec       q    Type
REMARK                         _______ _______ _______ _____ _____    ______ ____
ROOT
ATOM      9  C   UNL     1       0.406  -1.152  23.819  0.00  0.00    +0.085 C 
ENDROOT
BRANCH   9  10
ATOM      2  O   UNL     1      -2.327  -0.304  25.956  0.00  0.00    -0.354 OA
ATOM      5  N   UNL     1      -1.090  -0.890  25.718  0.00  0.00    -0.083 NA
ATOM     10  C   UNL     1      -0.842  -0.662  24.425  0.00  0.00    +0.086 A 
ATOM     13  C   UNL     1      -1.878   0.055  23.802  0.00  0.00    +0.076 A 
ATOM     14  C   UNL     1      -2.786   0.254  24.808  0.00  0.00    +0.168 A 
BRANCH  14  17
ATOM     17  C   UNL     1      -4.070   0.907  24.899  0.00  0.00    +0.023 A 
ATOM     21  C   UNL     1      -4.149   2.239  25.305  0.00  0.00    +0.057 A 
ATOM     22  C   UNL     1      -5.233   0.204  24.582  0.00  0.00    +0.012 A 
ATOM     23  C   UNL     1      -5.390   2.869  25.395  0.00  0.00    +0.118 A 
ATOM     24  C   UNL     1      -6.475   0.834  24.672  0.00  0.00    +0.004 A 
ATOM     25  C   UNL     1      -6.554   2.166  25.078  0.00  0.00    +0.045 A 
BRANCH  23   3
ATOM      3  O   UNL     1      -5.467   4.168  25.792  0.00  0.00    -0.507 OA
ATOM     27  H   UNL     1      -4.747   4.670  25.371  0.00  0.00    +0.292 HD
ENDBRANCH  23   3
ENDBRANCH  14  17
ENDBRANCH   9  10
BRANCH   9   6
ATOM      1  O   UNL     1       2.784  -0.036  21.691  0.00  0.00    -0.376 OA
ATOM      6  C   UNL     1       1.070  -0.066  22.963  0.00  0.00    +0.072 C 
ATOM      7  C   UNL     1       1.389  -0.366  21.503  0.00  0.00    +0.184 C 
ATOM      8  C   UNL     1       2.569   0.173  23.106  0.00  0.00    +0.184 C 
BRANCH   6   4
ATOM      4  N   UNL     1       0.381   1.216  23.039  0.00  0.00    -0.302 NA
ATOM     26  H   UNL     1      -0.630   1.159  23.151  0.00  0.00    +0.123 HD
BRANCH   4  11
ATOM     11  C   UNL     1       0.953   2.022  24.115  0.00  0.00    +0.117 C 
BRANCH  11  12
ATOM     12  C   UNL     1      -0.059   2.965  24.708  0.00  0.00    -0.034 A 
ATOM     15  C   UNL     1      -0.429   4.118  24.015  0.00  0.00    +0.005 A 
ATOM     16  C   UNL     1      -0.627   2.686  25.951  0.00  0.00    +0.005 A 
ATOM     18  C   UNL     1      -1.367   4.991  24.565  0.00  0.00    +0.000 A 
ATOM     19  C   UNL     1      -1.565   3.560  26.502  0.00  0.00    +0.000 A 
ATOM     20  C   UNL     1      -1.935   4.712  25.808  0.00  0.00    +0.000 A 
ENDBRANCH  11  12
ENDBRANCH   4  11
ENDBRANCH   6   4
ENDBRANCH   9   6
TORSDOF 7
ENDMDL
MODEL 5
REMARK VINA RESULT:      -3.1      2.412      5.398
REMARK  Name = 56775726
REMARK  7 active torsions:
REMARK  status: ('A' for Active; 'I' for Inactive)
REMARK    1  A    between atoms: O_3  and  C_23
REMARK    2  A    between atoms: N_4  and  C_6
REMARK    3  A    between atoms: N_4  and  C_11
REMARK    4  A    between atoms: C_6  and  C_9
REMARK    5  A    between atoms: C_9  and  C_10
REMARK    6  A    between atoms: C_11  and  C_12
REMARK    7  A    between atoms: C_14  and  C_17
REMARK                            x       y       z     vdW  Elec       q    Type
REMARK                         _______ _______ _______ _____ _____    ______ ____
ROOT
ATOM      9  C   UNL     1      -0.907  -1.967  24.673  0.00  0.00    +0.085 C 
ENDROOT
BRANCH   9  10
ATOM      2  O   UNL     1       0.388   1.271  23.901  0.00  0.00    -0.354 OA
ATOM      5  N   UNL     1       0.433  -0.116  23.840  0.00  0.00    -0.083 NA
ATOM     10  C   UNL     1      -0.635  -0.528  24.528  0.00  0.00    +0.086 A 
ATOM     13  C   UNL     1      -1.384   0.545  25.044  0.00  0.00    +0.076 A 
ATOM     14  C   UNL     1      -0.697   1.652  24.621  0.00  0.00    +0.168 A 
BRANCH  14  17
ATOM     17  C   UNL     1      -0.880   3.076  24.772  0.00  0.00    +0.023 A 
ATOM     21  C   UNL     1      -1.892   3.566  25.597  0.00  0.00    +0.057 A 
ATOM     22  C   UNL     1      -0.046   3.961  24.089  0.00  0.00    +0.012 A 
ATOM     23  C   UNL     1      -2.070   4.942  25.741  0.00  0.00    +0.118 A 
ATOM     24  C   UNL     1      -0.224   5.337  24.232  0.00  0.00    +0.004 A 
ATOM     25  C   UNL     1      -1.235   5.828  25.058  0.00  0.00    +0.045 A 
BRANCH  23   3
ATOM      3  O   UNL     1      -3.057   5.420  26.546  0.00  0.00    -0.507 OA
ATOM     27  H   UNL     1      -3.444   6.212  26.134  0.00  0.00    +0.292 HD
ENDBRANCH  23   3
ENDBRANCH  14  17
ENDBRANCH   9  10
BRANCH   9   6
ATOM      1  O   UNL     1      -3.659  -3.892  25.057  0.00  0.00    -0.376 OA
ATOM      6  C   UNL     1      -2.397  -2.273  24.473  0.00  0.00    +0.072 C 
ATOM      7  C   UNL     1      -3.242  -2.656  25.682  0.00  0.00    +0.184 C 
ATOM      8  C   UNL     1      -2.803  -3.635  23.920  0.00  0.00    +0.184 C 
BRANCH   6   4
ATOM      4  N   UNL     1      -3.093  -1.236  23.723  0.00  0.00    -0.302 NA
ATOM     26  H   UNL     1      -3.207  -1.423  22.728  0.00  0.00    +0.123 HD
BRANCH   4  11
ATOM     11  C   UNL     1      -4.397  -0.978  24.330  0.00  0.00    +0.117 C 
BRANCH  11  12
ATOM     12  C   UNL     1      -4.649   0.495  24.511  0.00  0.00    -0.034 A 
ATOM     15  C   UNL     1      -4.119   1.411  23.601  0.00  0.00    +0.005 A 
ATOM     16  C   UNL     1      -5.412   0.944  25.588  0.00  0.00    +0.005 A 
ATOM     18  C   UNL     1      -4.352   2.775  23.769  0.00  0.00    +0.000 A 
ATOM     19  C   UNL     1      -5.646   2.310  25.757  0.00  0.00    +0.000 A 
ATOM     20  C   UNL     1      -5.116   3.225  24.847  0.00  0.00    +0.000 A 
ENDBRANCH  11  12
ENDBRANCH   4  11
ENDBRANCH   6   4
ENDBRANCH   9   6
TORSDOF 7
ENDMDL
MODEL 6
REMARK VINA RESULT:      -3.1      2.083      4.248
REMARK  Name = 56775726
REMARK  7 active torsions:
REMARK  status: ('A' for Active; 'I' for Inactive)
REMARK    1  A    between atoms: O_3  and  C_23
REMARK    2  A    between atoms: N_4  and  C_6
REMARK    3  A    between atoms: N_4  and  C_11
REMARK    4  A    between atoms: C_6  and  C_9
REMARK    5  A    between atoms: C_9  and  C_10
REMARK    6  A    between atoms: C_11  and  C_12
REMARK    7  A    between atoms: C_14  and  C_17
REMARK                            x       y       z     vdW  Elec       q    Type
REMARK                         _______ _______ _______ _____ _____    ______ ____
ROOT
ATOM      9  C   UNL     1      -2.651   0.252  23.360  0.00  0.00    +0.085 C 
ENDROOT
BRANCH   9  10
ATOM      2  O   UNL     1       0.569   1.599  24.121  0.00  0.00    -0.354 OA
ATOM      5  N   UNL     1      -0.820   1.638  24.160  0.00  0.00    -0.083 NA
ATOM     10  C   UNL     1      -1.215   0.538  23.514  0.00  0.00    +0.086 A 
ATOM     13  C   UNL     1      -0.131  -0.226  23.048  0.00  0.00    +0.076 A 
ATOM     14  C   UNL     1       0.967   0.485  23.456  0.00  0.00    +0.168 A 
BRANCH  14  17
ATOM     17  C   UNL     1       2.393   0.304  23.334  0.00  0.00    +0.023 A 
ATOM     21  C   UNL     1       2.980  -0.898  23.726  0.00  0.00    +0.057 A 
ATOM     22  C   UNL     1       3.185   1.335  22.826  0.00  0.00    +0.012 A 
ATOM     23  C   UNL     1       4.359  -1.072  23.611  0.00  0.00    +0.118 A 
ATOM     24  C   UNL     1       4.564   1.162  22.711  0.00  0.00    +0.004 A 
ATOM     25  C   UNL     1       5.152  -0.041  23.103  0.00  0.00    +0.045 A 
BRANCH  23   3
ATOM      3  O   UNL     1       4.932  -2.245  23.994  0.00  0.00    -0.507 OA
ATOM     27  H   UNL     1       4.272  -2.956  23.924  0.00  0.00    +0.292 HD
ENDBRANCH  23   3
ENDBRANCH  14  17
ENDBRANCH   9  10
BRANCH   9   6
ATOM      1  O   UNL     1      -2.887  -2.671  25.041  0.00  0.00    -0.376 OA
ATOM      6  C   UNL     1      -3.167  -0.623  24.510  0.00  0.00    +0.072 C 
ATOM      7  C   UNL     1      -2.171  -1.446  25.318  0.00  0.00    +0.184 C 
ATOM      8  C   UNL     1      -3.812  -1.966  24.183  0.00  0.00    +0.184 C 
BRANCH   6   4
ATOM      4  N   UNL     1      -4.034   0.102  25.430  0.00  0.00    -0.302 NA
ATOM     26  H   UNL     1      -3.569   0.487  26.250  0.00  0.00    +0.123 HD
BRANCH   4  11
ATOM     11  C   UNL     1      -4.735   1.165  24.713  0.00  0.00    +0.117 C 
BRANCH  11  12
ATOM     12  C   UNL     1      -4.037   2.491  24.856  0.00  0.00    -0.034 A 
ATOM     15  C   UNL     1      -3.975   3.368  23.773  0.00  0.00    +0.005 A 
ATOM     16  C   UNL     1      -3.450   2.843  26.072  0.00  0.00    +0.005 A 
ATOM     18  C   UNL     1      -3.329   4.597  23.905  0.00  0.00    +0.000 A 
ATOM     19  C   UNL     1      -2.803   4.072  26.205  0.00  0.00    +0.000 A 
ATOM     20  C   UNL     1      -2.743   4.949  25.121  0.00  0.00    +0.000 A 
ENDBRANCH  11  12
ENDBRANCH   4  11
ENDBRANCH   6   4
ENDBRANCH   9   6
TORSDOF 7
ENDMDL
MODEL 7
REMARK VINA RESULT:      -3.0      2.579      4.636
REMARK  Name = 56775726
REMARK  7 active torsions:
REMARK  status: ('A' for Active; 'I' for Inactive)
REMARK    1  A    between atoms: O_3  and  C_23
REMARK    2  A    between atoms: N_4  and  C_6
REMARK    3  A    between atoms: N_4  and  C_11
REMARK    4  A    between atoms: C_6  and  C_9
REMARK    5  A    between atoms: C_9  and  C_10
REMARK    6  A    between atoms: C_11  and  C_12
REMARK    7  A    between atoms: C_14  and  C_17
REMARK                            x       y       z     vdW  Elec       q    Type
REMARK                         _______ _______ _______ _____ _____    ______ ____
ROOT
ATOM      9  C   UNL     1      -4.360   4.078  23.548  0.00  0.00    +0.085 C 
ENDROOT
BRANCH   9  10
ATOM      2  O   UNL     1      -2.581   1.099  22.699  0.00  0.00    -0.354 OA
ATOM      5  N   UNL     1      -2.876   2.445  22.525  0.00  0.00    -0.083 NA
ATOM     10  C   UNL     1      -3.806   2.718  23.444  0.00  0.00    +0.086 A 
ATOM     13  C   UNL     1      -4.135   1.593  24.221  0.00  0.00    +0.076 A 
ATOM     14  C   UNL     1      -3.337   0.603  23.711  0.00  0.00    +0.168 A 
BRANCH  14  17
ATOM     17  C   UNL     1      -3.139  -0.794  24.014  0.00  0.00    +0.023 A 
ATOM     21  C   UNL     1      -1.900  -1.241  24.471  0.00  0.00    +0.057 A 
ATOM     22  C   UNL     1      -4.188  -1.698  23.847  0.00  0.00    +0.012 A 
ATOM     23  C   UNL     1      -1.708  -2.591  24.762  0.00  0.00    +0.118 A 
ATOM     24  C   UNL     1      -3.998  -3.049  24.137  0.00  0.00    +0.004 A 
ATOM     25  C   UNL     1      -2.758  -3.496  24.594  0.00  0.00    +0.045 A 
BRANCH  23   3
ATOM      3  O   UNL     1      -0.499  -3.027  25.208  0.00  0.00    -0.507 OA
ATOM     27  H   UNL     1      -0.146  -3.678  24.577  0.00  0.00    +0.292 HD
ENDBRANCH  23   3
ENDBRANCH  14  17
ENDBRANCH   9  10
BRANCH   9   6
ATOM      1  O   UNL     1      -6.457   4.111  26.199  0.00  0.00    -0.376 OA
ATOM      6  C   UNL     1      -4.719   4.421  25.000  0.00  0.00    +0.072 C 
ATOM      7  C   UNL     1      -5.279   3.327  25.901  0.00  0.00    +0.184 C 
ATOM      8  C   UNL     1      -6.029   5.146  25.285  0.00  0.00    +0.184 C 
BRANCH   6   4
ATOM      4  N   UNL     1      -3.641   5.104  25.704  0.00  0.00    -0.302 NA
ATOM     26  H   UNL     1      -3.930   5.902  26.267  0.00  0.00    +0.123 HD
BRANCH   4  11
ATOM     11  C   UNL     1      -2.912   4.149  26.536  0.00  0.00    +0.117 C 
BRANCH  11  12
ATOM     12  C   UNL     1      -1.720   3.576  25.817  0.00  0.00    -0.034 A 
ATOM     15  C   UNL     1      -1.046   4.340  24.863  0.00  0.00    +0.005 A 
ATOM     16  C   UNL     1      -1.290   2.280  26.103  0.00  0.00    +0.005 A 
ATOM     18  C   UNL     1       0.058   3.808  24.197  0.00  0.00    +0.000 A 
ATOM     19  C   UNL     1      -0.185   1.748  25.437  0.00  0.00    +0.000 A 
ATOM     20  C   UNL     1       0.488   2.513  24.483  0.00  0.00    +0.000 A 
ENDBRANCH  11  12
ENDBRANCH   4  11
ENDBRANCH   6   4
ENDBRANCH   9   6
TORSDOF 7
ENDMDL
MODEL 8
REMARK VINA RESULT:      -2.9      2.695      5.074
REMARK  Name = 56775726
REMARK  7 active torsions:
REMARK  status: ('A' for Active; 'I' for Inactive)
REMARK    1  A    between atoms: O_3  and  C_23
REMARK    2  A    between atoms: N_4  and  C_6
REMARK    3  A    between atoms: N_4  and  C_11
REMARK    4  A    between atoms: C_6  and  C_9
REMARK    5  A    between atoms: C_9  and  C_10
REMARK    6  A    between atoms: C_11  and  C_12
REMARK    7  A    between atoms: C_14  and  C_17
REMARK                            x       y       z     vdW  Elec       q    Type
REMARK                         _______ _______ _______ _____ _____    ______ ____
ROOT
ATOM      9  C   UNL     1      -1.547  -1.912  24.632  0.00  0.00    +0.085 C 
ENDROOT
BRANCH   9  10
ATOM      2  O   UNL     1      -0.669   1.216  26.117  0.00  0.00    -0.354 OA
ATOM      5  N   UNL     1      -0.841  -0.162  26.167  0.00  0.00    -0.083 NA
ATOM     10  C   UNL     1      -1.260  -0.502  24.945  0.00  0.00    +0.086 A 
ATOM     13  C   UNL     1      -1.370   0.609  24.090  0.00  0.00    +0.076 A 
ATOM     14  C   UNL     1      -0.988   1.663  24.876  0.00  0.00    +0.168 A 
BRANCH  14  17
ATOM     17  C   UNL     1      -0.855   3.085  24.669  0.00  0.00    +0.023 A 
ATOM     21  C   UNL     1      -0.076   3.568  23.619  0.00  0.00    +0.057 A 
ATOM     22  C   UNL     1      -1.506   3.976  25.522  0.00  0.00    +0.012 A 
ATOM     23  C   UNL     1       0.054   4.942  23.420  0.00  0.00    +0.118 A 
ATOM     24  C   UNL     1      -1.377   5.351  25.324  0.00  0.00    +0.004 A 
ATOM     25  C   UNL     1      -0.597   5.835  24.274  0.00  0.00    +0.045 A 
BRANCH  23   3
ATOM      3  O   UNL     1       0.815   5.414  22.395  0.00  0.00    -0.507 OA
ATOM     27  H   UNL     1       1.752   5.365  22.650  0.00  0.00    +0.292 HD
ENDBRANCH  23   3
ENDBRANCH  14  17
ENDBRANCH   9  10
BRANCH   9   6
ATOM      1  O   UNL     1      -4.278  -3.800  23.996  0.00  0.00    -0.376 OA
ATOM      6  C   UNL     1      -3.054  -2.196  24.692  0.00  0.00    +0.072 C 
ATOM      7  C   UNL     1      -3.531  -3.549  25.208  0.00  0.00    +0.184 C 
ATOM      8  C   UNL     1      -3.785  -2.574  23.409  0.00  0.00    +0.184 C 
BRANCH   6   4
ATOM      4  N   UNL     1      -3.803  -1.145  25.368  0.00  0.00    -0.302 NA
ATOM     26  H   UNL     1      -3.236  -0.447  25.846  0.00  0.00    +0.123 HD
BRANCH   4  11
ATOM     11  C   UNL     1      -4.698  -0.488  24.417  0.00  0.00    +0.117 C 
BRANCH  11  12
ATOM     12  C   UNL     1      -4.833   0.984  24.700  0.00  0.00    -0.034 A 
ATOM     15  C   UNL     1      -5.527   1.417  25.830  0.00  0.00    +0.005 A 
ATOM     16  C   UNL     1      -4.263   1.916  23.832  0.00  0.00    +0.005 A 
ATOM     18  C   UNL     1      -5.652   2.781  26.092  0.00  0.00    +0.000 A 
ATOM     19  C   UNL     1      -4.387   3.280  24.094  0.00  0.00    +0.000 A 
ATOM     20  C   UNL     1      -5.082   3.713  25.224  0.00  0.00    +0.000 A 
ENDBRANCH  11  12
ENDBRANCH   4  11
ENDBRANCH   6   4
ENDBRANCH   9   6
TORSDOF 7
ENDMDL
MODEL 9
REMARK VINA RESULT:      -2.2      1.794      2.011
REMARK  Name = 56775726
REMARK  7 active torsions:
REMARK  status: ('A' for Active; 'I' for Inactive)
REMARK    1  A    between atoms: O_3  and  C_23
REMARK    2  A    between atoms: N_4  and  C_6
REMARK    3  A    between atoms: N_4  and  C_11
REMARK    4  A    between atoms: C_6  and  C_9
REMARK    5  A    between atoms: C_9  and  C_10
REMARK    6  A    between atoms: C_11  and  C_12
REMARK    7  A    between atoms: C_14  and  C_17
REMARK                            x       y       z     vdW  Elec       q    Type
REMARK                         _______ _______ _______ _____ _____    ______ ____
ROOT
ATOM      9  C   UNL     1      -4.015   3.578  23.524  0.00  0.00    +0.085 C 
ENDROOT
BRANCH   9  10
ATOM      2  O   UNL     1      -1.729   1.289  22.009  0.00  0.00    -0.354 OA
ATOM      5  N   UNL     1      -2.827   2.140  21.963  0.00  0.00    -0.083 NA
ATOM     10  C   UNL     1      -2.939   2.626  23.203  0.00  0.00    +0.086 A 
ATOM     13  C   UNL     1      -1.949   2.123  24.065  0.00  0.00    +0.076 A 
ATOM     14  C   UNL     1      -1.216   1.287  23.265  0.00  0.00    +0.168 A 
BRANCH  14  17
ATOM     17  C   UNL     1      -0.061   0.446  23.469  0.00  0.00    +0.023 A 
ATOM     21  C   UNL     1       1.181   0.832  22.969  0.00  0.00    +0.057 A 
ATOM     22  C   UNL     1      -0.190  -0.757  24.165  0.00  0.00    +0.012 A 
ATOM     23  C   UNL     1       2.296   0.017  23.164  0.00  0.00    +0.118 A 
ATOM     24  C   UNL     1       0.924  -1.572  24.360  0.00  0.00    +0.004 A 
ATOM     25  C   UNL     1       2.168  -1.186  23.859  0.00  0.00    +0.045 A 
BRANCH  23   3
ATOM      3  O   UNL     1       3.509   0.394  22.675  0.00  0.00    -0.507 OA
ATOM     27  H   UNL     1       3.752   1.254  23.061  0.00  0.00    +0.292 HD
ENDBRANCH  23   3
ENDBRANCH  14  17
ENDBRANCH   9  10
BRANCH   9   6
ATOM      1  O   UNL     1      -5.141   4.139  26.662  0.00  0.00    -0.376 OA
ATOM      6  C   UNL     1      -4.756   3.164  24.802  0.00  0.00    +0.072 C 
ATOM      7  C   UNL     1      -5.811   4.100  25.381  0.00  0.00    +0.184 C 
ATOM      8  C   UNL     1      -4.058   3.331  26.147  0.00  0.00    +0.184 C 
BRANCH   6   4
ATOM      4  N   UNL     1      -5.312   1.819  24.726  0.00  0.00    -0.302 NA
ATOM     26  H   UNL     1      -5.179   1.346  23.834  0.00  0.00    +0.123 HD
BRANCH   4  11
ATOM     11  C   UNL     1      -4.771   0.999  25.807  0.00  0.00    +0.117 C 
BRANCH  11  12
ATOM     12  C   UNL     1      -4.260  -0.324  25.304  0.00  0.00    -0.034 A 
ATOM     15  C   UNL     1      -3.460  -1.121  26.124  0.00  0.00    +0.005 A 
ATOM     16  C   UNL     1      -4.585  -0.754  24.018  0.00  0.00    +0.005 A 
ATOM     18  C   UNL     1      -2.986  -2.347  25.659  0.00  0.00    +0.000 A 
ATOM     19  C   UNL     1      -4.110  -1.981  23.551  0.00  0.00    +0.000 A 
ATOM     20  C   UNL     1      -3.311  -2.777  24.372  0.00  0.00    +0.000 A 
ENDBRANCH  11  12
ENDBRANCH   4  11
ENDBRANCH   6   4
ENDBRANCH   9   6
TORSDOF 7
ENDMDL
