MODEL 1
REMARK VINA RESULT:      -6.5      0.000      0.000
REMARK  Name = 75367758
REMARK  5 active torsions:
REMARK  status: ('A' for Active; 'I' for Inactive)
REMARK    1  A    between atoms: O_2  and  C_6
REMARK    2  A    between atoms: O_3  and  C_14
REMARK    3  A    between atoms: O_3  and  C_17
REMARK    4  A    between atoms: N_4  and  C_8
REMARK    5  A    between atoms: C_8  and  C_11
REMARK                            x       y       z     vdW  Elec       q    Type
REMARK                         _______ _______ _______ _____ _____    ______ ____
ROOT
ATOM      1  O   UNL     1      -2.803   4.284  25.012  0.00  0.00    -0.376 OA
ATOM      4  N   UNL     1      -4.252   1.540  24.709  0.00  0.00    -0.293 NA
ATOM      5  C   UNL     1      -5.410   2.370  25.056  0.00  0.00    +0.118 C 
ATOM      6  C   UNL     1      -5.178   3.876  25.252  0.00  0.00    +0.154 C 
ATOM      7  C   UNL     1      -3.295   2.183  23.808  0.00  0.00    +0.113 C 
ATOM      9  C   UNL     1      -3.871   4.226  25.951  0.00  0.00    +0.192 C 
ATOM     10  C   UNL     1      -2.299   3.017  24.615  0.00  0.00    +0.175 C 
ENDROOT
BRANCH   6   2
ATOM      2  O   UNL     1      -6.251   4.393  26.039  0.00  0.00    -0.388 OA
ATOM     18  H   UNL     1      -6.537   5.228  25.631  0.00  0.00    +0.210 HD
ENDBRANCH   6   2
BRANCH   4   8
ATOM      8  C   UNL     1      -4.698   0.249  24.182  0.00  0.00    +0.119 C 
BRANCH   8  11
ATOM     11  C   UNL     1      -3.639  -0.811  24.321  0.00  0.00    -0.030 A 
ATOM     12  C   UNL     1      -2.295  -0.447  24.406  0.00  0.00    +0.050 A 
ATOM     13  C   UNL     1      -4.001  -2.157  24.365  0.00  0.00    +0.005 A 
ATOM     14  C   UNL     1      -1.313  -1.429  24.534  0.00  0.00    +0.120 A 
ATOM     15  C   UNL     1      -3.018  -3.140  24.494  0.00  0.00    +0.004 A 
ATOM     16  C   UNL     1      -1.674  -2.776  24.578  0.00  0.00    +0.045 A 
BRANCH  14   3
ATOM      3  O   UNL     1      -0.002  -1.073  24.615  0.00  0.00    -0.495 OA
ATOM     17  C   UNL     1       0.521  -0.270  23.558  0.00  0.00    +0.277 C 
ENDBRANCH  14   3
ENDBRANCH   8  11
ENDBRANCH   4   8
TORSDOF 4
ENDMDL
MODEL 2
REMARK VINA RESULT:      -6.4      1.751      5.760
REMARK  Name = 75367758
REMARK  5 active torsions:
REMARK  status: ('A' for Active; 'I' for Inactive)
REMARK    1  A    between atoms: O_2  and  C_6
REMARK    2  A    between atoms: O_3  and  C_14
REMARK    3  A    between atoms: O_3  and  C_17
REMARK    4  A    between atoms: N_4  and  C_8
REMARK    5  A    between atoms: C_8  and  C_11
REMARK                            x       y       z     vdW  Elec       q    Type
REMARK                         _______ _______ _______ _____ _____    ______ ____
ROOT
ATOM      1  O   UNL     1      -1.266  -2.171  25.293  0.00  0.00    -0.376 OA
ATOM      4  N   UNL     1      -1.841   0.381  23.596  0.00  0.00    -0.293 NA
ATOM      5  C   UNL     1      -3.192  -0.190  23.613  0.00  0.00    +0.118 C 
ATOM      6  C   UNL     1      -3.414  -1.481  24.416  0.00  0.00    +0.154 C 
ATOM      7  C   UNL     1      -1.117   0.258  24.862  0.00  0.00    +0.113 C 
ATOM      9  C   UNL     1      -2.267  -2.480  24.330  0.00  0.00    +0.192 C 
ATOM     10  C   UNL     1      -0.410  -1.097  24.929  0.00  0.00    +0.175 C 
ENDROOT
BRANCH   6   2
ATOM      2  O   UNL     1      -4.591  -2.118  23.917  0.00  0.00    -0.388 OA
ATOM     18  H   UNL     1      -4.723  -2.932  24.433  0.00  0.00    +0.210 HD
ENDBRANCH   6   2
BRANCH   4   8
ATOM      8  C   UNL     1      -1.888   1.771  23.139  0.00  0.00    +0.119 C 
BRANCH   8  11
ATOM     11  C   UNL     1      -2.391   2.698  24.212  0.00  0.00    -0.030 A 
ATOM     12  C   UNL     1      -3.712   2.606  24.649  0.00  0.00    +0.050 A 
ATOM     13  C   UNL     1      -1.537   3.650  24.769  0.00  0.00    +0.005 A 
ATOM     14  C   UNL     1      -4.180   3.466  25.643  0.00  0.00    +0.120 A 
ATOM     15  C   UNL     1      -2.004   4.510  25.763  0.00  0.00    +0.004 A 
ATOM     16  C   UNL     1      -3.327   4.418  26.201  0.00  0.00    +0.045 A 
BRANCH  14   3
ATOM      3  O   UNL     1      -5.470   3.376  26.069  0.00  0.00    -0.495 OA
ATOM     17  C   UNL     1      -6.140   2.136  25.853  0.00  0.00    +0.277 C 
ENDBRANCH  14   3
ENDBRANCH   8  11
ENDBRANCH   4   8
TORSDOF 4
ENDMDL
MODEL 3
REMARK VINA RESULT:      -6.0      1.580      2.579
REMARK  Name = 75367758
REMARK  5 active torsions:
REMARK  status: ('A' for Active; 'I' for Inactive)
REMARK    1  A    between atoms: O_2  and  C_6
REMARK    2  A    between atoms: O_3  and  C_14
REMARK    3  A    between atoms: O_3  and  C_17
REMARK    4  A    between atoms: N_4  and  C_8
REMARK    5  A    between atoms: C_8  and  C_11
REMARK                            x       y       z     vdW  Elec       q    Type
REMARK                         _______ _______ _______ _____ _____    ______ ____
ROOT
ATOM      1  O   UNL     1      -1.702   5.092  25.387  0.00  0.00    -0.376 OA
ATOM      4  N   UNL     1      -3.013   2.305  24.898  0.00  0.00    -0.293 NA
ATOM      5  C   UNL     1      -1.761   1.861  25.520  0.00  0.00    +0.118 C 
ATOM      6  C   UNL     1      -0.779   2.940  26.002  0.00  0.00    +0.154 C 
ATOM      7  C   UNL     1      -3.594   3.506  25.499  0.00  0.00    +0.113 C 
ATOM      9  C   UNL     1      -0.677   4.152  25.086  0.00  0.00    +0.192 C 
ATOM     10  C   UNL     1      -2.980   4.756  24.866  0.00  0.00    +0.175 C 
ENDROOT
BRANCH   6   2
ATOM      2  O   UNL     1       0.518   2.350  26.098  0.00  0.00    -0.388 OA
ATOM     18  H   UNL     1       0.448   1.588  26.698  0.00  0.00    +0.210 HD
ENDBRANCH   6   2
BRANCH   4   8
ATOM      8  C   UNL     1      -3.976   1.204  24.864  0.00  0.00    +0.119 C 
BRANCH   8  11
ATOM     11  C   UNL     1      -3.298  -0.131  24.717  0.00  0.00    -0.030 A 
ATOM     12  C   UNL     1      -1.930  -0.192  24.450  0.00  0.00    +0.050 A 
ATOM     13  C   UNL     1      -4.036  -1.307  24.845  0.00  0.00    +0.005 A 
ATOM     14  C   UNL     1      -1.300  -1.429  24.312  0.00  0.00    +0.120 A 
ATOM     15  C   UNL     1      -3.407  -2.545  24.707  0.00  0.00    +0.004 A 
ATOM     16  C   UNL     1      -2.039  -2.606  24.441  0.00  0.00    +0.045 A 
BRANCH  14   3
ATOM      3  O   UNL     1       0.034  -1.489  24.052  0.00  0.00    -0.495 OA
ATOM     17  C   UNL     1       0.625  -0.352  23.426  0.00  0.00    +0.277 C 
ENDBRANCH  14   3
ENDBRANCH   8  11
ENDBRANCH   4   8
TORSDOF 4
ENDMDL
MODEL 4
REMARK VINA RESULT:      -6.0      1.488      5.664
REMARK  Name = 75367758
REMARK  5 active torsions:
REMARK  status: ('A' for Active; 'I' for Inactive)
REMARK    1  A    between atoms: O_2  and  C_6
REMARK    2  A    between atoms: O_3  and  C_14
REMARK    3  A    between atoms: O_3  and  C_17
REMARK    4  A    between atoms: N_4  and  C_8
REMARK    5  A    between atoms: C_8  and  C_11
REMARK                            x       y       z     vdW  Elec       q    Type
REMARK                         _______ _______ _______ _____ _____    ______ ____
ROOT
ATOM      1  O   UNL     1      -1.447  -2.775  25.188  0.00  0.00    -0.376 OA
ATOM      4  N   UNL     1      -2.903  -0.193  24.222  0.00  0.00    -0.293 NA
ATOM      5  C   UNL     1      -1.549   0.123  23.756  0.00  0.00    +0.118 C 
ATOM      6  C   UNL     1      -0.453  -0.933  23.971  0.00  0.00    +0.154 C 
ATOM      7  C   UNL     1      -3.292  -1.592  24.046  0.00  0.00    +0.113 C 
ATOM      9  C   UNL     1      -0.548  -1.677  25.296  0.00  0.00    +0.192 C 
ATOM     10  C   UNL     1      -2.821  -2.419  25.244  0.00  0.00    +0.175 C 
ENDROOT
BRANCH   6   2
ATOM      2  O   UNL     1       0.813  -0.276  23.924  0.00  0.00    -0.388 OA
ATOM     18  H   UNL     1       0.862   0.321  24.691  0.00  0.00    +0.210 HD
ENDBRANCH   6   2
BRANCH   4   8
ATOM      8  C   UNL     1      -3.872   0.713  23.603  0.00  0.00    +0.119 C 
BRANCH   8  11
ATOM     11  C   UNL     1      -4.084   1.956  24.425  0.00  0.00    -0.030 A 
ATOM     12  C   UNL     1      -3.011   2.807  24.690  0.00  0.00    +0.050 A 
ATOM     13  C   UNL     1      -5.351   2.255  24.923  0.00  0.00    +0.005 A 
ATOM     14  C   UNL     1      -3.206   3.959  25.453  0.00  0.00    +0.120 A 
ATOM     15  C   UNL     1      -5.547   3.407  25.686  0.00  0.00    +0.004 A 
ATOM     16  C   UNL     1      -4.474   4.259  25.951  0.00  0.00    +0.045 A 
BRANCH  14   3
ATOM      3  O   UNL     1      -2.160   4.790  25.711  0.00  0.00    -0.495 OA
ATOM     17  C   UNL     1      -0.938   4.528  25.023  0.00  0.00    +0.277 C 
ENDBRANCH  14   3
ENDBRANCH   8  11
ENDBRANCH   4   8
TORSDOF 4
ENDMDL
MODEL 5
REMARK VINA RESULT:      -6.0      1.579      5.415
REMARK  Name = 75367758
REMARK  5 active torsions:
REMARK  status: ('A' for Active; 'I' for Inactive)
REMARK    1  A    between atoms: O_2  and  C_6
REMARK    2  A    between atoms: O_3  and  C_14
REMARK    3  A    between atoms: O_3  and  C_17
REMARK    4  A    between atoms: N_4  and  C_8
REMARK    5  A    between atoms: C_8  and  C_11
REMARK                            x       y       z     vdW  Elec       q    Type
REMARK                         _______ _______ _______ _____ _____    ______ ____
ROOT
ATOM      1  O   UNL     1      -0.472  -1.577  25.144  0.00  0.00    -0.376 OA
ATOM      4  N   UNL     1      -2.605   0.061  23.566  0.00  0.00    -0.293 NA
ATOM      5  C   UNL     1      -3.481  -0.977  24.121  0.00  0.00    +0.118 C 
ATOM      6  C   UNL     1      -2.850  -2.022  25.054  0.00  0.00    +0.154 C 
ATOM      7  C   UNL     1      -1.573   0.537  24.487  0.00  0.00    +0.113 C 
ATOM      9  C   UNL     1      -1.456  -2.474  24.642  0.00  0.00    +0.192 C 
ATOM     10  C   UNL     1      -0.343  -0.370  24.406  0.00  0.00    +0.175 C 
ENDROOT
BRANCH   6   2
ATOM      2  O   UNL     1      -3.698  -3.171  25.073  0.00  0.00    -0.388 OA
ATOM     18  H   UNL     1      -3.295  -3.841  24.495  0.00  0.00    +0.210 HD
ENDBRANCH   6   2
BRANCH   4   8
ATOM      8  C   UNL     1      -3.407   1.168  23.043  0.00  0.00    +0.119 C 
BRANCH   8  11
ATOM     11  C   UNL     1      -3.715   2.189  24.106  0.00  0.00    -0.030 A 
ATOM     12  C   UNL     1      -2.765   3.153  24.442  0.00  0.00    +0.050 A 
ATOM     13  C   UNL     1      -4.950   2.171  24.754  0.00  0.00    +0.005 A 
ATOM     14  C   UNL     1      -3.049   4.099  25.427  0.00  0.00    +0.120 A 
ATOM     15  C   UNL     1      -5.235   3.117  25.739  0.00  0.00    +0.004 A 
ATOM     16  C   UNL     1      -4.284   4.081  26.076  0.00  0.00    +0.045 A 
BRANCH  14   3
ATOM      3  O   UNL     1      -2.121   5.039  25.756  0.00  0.00    -0.495 OA
ATOM     17  C   UNL     1      -0.933   5.082  24.968  0.00  0.00    +0.277 C 
ENDBRANCH  14   3
ENDBRANCH   8  11
ENDBRANCH   4   8
TORSDOF 4
ENDMDL
MODEL 6
REMARK VINA RESULT:      -5.7      2.092      5.257
REMARK  Name = 75367758
REMARK  5 active torsions:
REMARK  status: ('A' for Active; 'I' for Inactive)
REMARK    1  A    between atoms: O_2  and  C_6
REMARK    2  A    between atoms: O_3  and  C_14
REMARK    3  A    between atoms: O_3  and  C_17
REMARK    4  A    between atoms: N_4  and  C_8
REMARK    5  A    between atoms: C_8  and  C_11
REMARK                            x       y       z     vdW  Elec       q    Type
REMARK                         _______ _______ _______ _____ _____    ______ ____
ROOT
ATOM      1  O   UNL     1      -3.019  -2.884  24.129  0.00  0.00    -0.376 OA
ATOM      4  N   UNL     1      -4.026  -0.025  24.862  0.00  0.00    -0.293 NA
ATOM      5  C   UNL     1      -2.647   0.088  25.350  0.00  0.00    +0.118 C 
ATOM      6  C   UNL     1      -1.713  -1.114  25.141  0.00  0.00    +0.154 C 
ATOM      7  C   UNL     1      -4.164  -0.757  23.603  0.00  0.00    +0.113 C 
ATOM      9  C   UNL     1      -2.380  -2.470  25.332  0.00  0.00    +0.192 C 
ATOM     10  C   UNL     1      -4.270  -2.257  23.881  0.00  0.00    +0.175 C 
ENDROOT
BRANCH   6   2
ATOM      2  O   UNL     1      -0.643  -1.014  26.081  0.00  0.00    -0.388 OA
ATOM     18  H   UNL     1      -0.958  -1.387  26.923  0.00  0.00    +0.210 HD
ENDBRANCH   6   2
BRANCH   4   8
ATOM      8  C   UNL     1      -4.640   1.301  24.780  0.00  0.00    +0.119 C 
BRANCH   8  11
ATOM     11  C   UNL     1      -3.637   2.400  25.007  0.00  0.00    -0.030 A 
ATOM     12  C   UNL     1      -2.378   2.328  24.412  0.00  0.00    +0.050 A 
ATOM     13  C   UNL     1      -3.967   3.490  25.813  0.00  0.00    +0.005 A 
ATOM     14  C   UNL     1      -1.447   3.345  24.623  0.00  0.00    +0.120 A 
ATOM     15  C   UNL     1      -3.037   4.508  26.023  0.00  0.00    +0.004 A 
ATOM     16  C   UNL     1      -1.776   4.436  25.428  0.00  0.00    +0.045 A 
BRANCH  14   3
ATOM      3  O   UNL     1      -0.218   3.275  24.042  0.00  0.00    -0.495 OA
ATOM     17  C   UNL     1       0.496   2.048  24.181  0.00  0.00    +0.277 C 
ENDBRANCH  14   3
ENDBRANCH   8  11
ENDBRANCH   4   8
TORSDOF 4
ENDMDL
MODEL 7
REMARK VINA RESULT:      -5.7      1.914      6.138
REMARK  Name = 75367758
REMARK  5 active torsions:
REMARK  status: ('A' for Active; 'I' for Inactive)
REMARK    1  A    between atoms: O_2  and  C_6
REMARK    2  A    between atoms: O_3  and  C_14
REMARK    3  A    between atoms: O_3  and  C_17
REMARK    4  A    between atoms: N_4  and  C_8
REMARK    5  A    between atoms: C_8  and  C_11
REMARK                            x       y       z     vdW  Elec       q    Type
REMARK                         _______ _______ _______ _____ _____    ______ ____
ROOT
ATOM      1  O   UNL     1      -4.058  -1.489  24.048  0.00  0.00    -0.376 OA
ATOM      4  N   UNL     1      -1.620   0.338  24.714  0.00  0.00    -0.293 NA
ATOM      5  C   UNL     1      -0.957  -0.967  24.807  0.00  0.00    +0.118 C 
ATOM      6  C   UNL     1      -1.791  -2.217  24.488  0.00  0.00    +0.154 C 
ATOM      7  C   UNL     1      -2.585   0.450  23.620  0.00  0.00    +0.113 C 
ATOM      9  C   UNL     1      -3.228  -2.160  24.989  0.00  0.00    +0.192 C 
ATOM     10  C   UNL     1      -3.950  -0.072  24.073  0.00  0.00    +0.175 C 
ENDROOT
BRANCH   6   2
ATOM      2  O   UNL     1      -1.156  -3.342  25.097  0.00  0.00    -0.388 OA
ATOM     18  H   UNL     1      -1.342  -4.119  24.541  0.00  0.00    +0.210 HD
ENDBRANCH   6   2
BRANCH   4   8
ATOM      8  C   UNL     1      -0.621   1.407  24.657  0.00  0.00    +0.119 C 
BRANCH   8  11
ATOM     11  C   UNL     1      -1.230   2.759  24.917  0.00  0.00    -0.030 A 
ATOM     12  C   UNL     1      -2.556   2.857  25.337  0.00  0.00    +0.050 A 
ATOM     13  C   UNL     1      -0.468   3.913  24.737  0.00  0.00    +0.005 A 
ATOM     14  C   UNL     1      -3.121   4.109  25.578  0.00  0.00    +0.120 A 
ATOM     15  C   UNL     1      -1.033   5.166  24.977  0.00  0.00    +0.004 A 
ATOM     16  C   UNL     1      -2.360   5.265  25.398  0.00  0.00    +0.045 A 
BRANCH  14   3
ATOM      3  O   UNL     1      -4.415   4.205  25.987  0.00  0.00    -0.495 OA
ATOM     17  C   UNL     1      -5.272   3.102  25.696  0.00  0.00    +0.277 C 
ENDBRANCH  14   3
ENDBRANCH   8  11
ENDBRANCH   4   8
TORSDOF 4
ENDMDL
MODEL 8
REMARK VINA RESULT:      -5.2      2.437      5.322
REMARK  Name = 75367758
REMARK  5 active torsions:
REMARK  status: ('A' for Active; 'I' for Inactive)
REMARK    1  A    between atoms: O_2  and  C_6
REMARK    2  A    between atoms: O_3  and  C_14
REMARK    3  A    between atoms: O_3  and  C_17
REMARK    4  A    between atoms: N_4  and  C_8
REMARK    5  A    between atoms: C_8  and  C_11
REMARK                            x       y       z     vdW  Elec       q    Type
REMARK                         _______ _______ _______ _____ _____    ______ ____
ROOT
ATOM      1  O   UNL     1      -1.492  -2.618  25.111  0.00  0.00    -0.376 OA
ATOM      4  N   UNL     1      -3.139   0.009  24.780  0.00  0.00    -0.293 NA
ATOM      5  C   UNL     1      -4.151  -0.951  24.327  0.00  0.00    +0.118 C 
ATOM      6  C   UNL     1      -3.791  -2.445  24.373  0.00  0.00    +0.154 C 
ATOM      7  C   UNL     1      -2.344  -0.444  25.922  0.00  0.00    +0.113 C 
ATOM      9  C   UNL     1      -2.352  -2.757  23.986  0.00  0.00    +0.192 C 
ATOM     10  C   UNL     1      -1.157  -1.275  25.433  0.00  0.00    +0.175 C 
ENDROOT
BRANCH   6   2
ATOM      2  O   UNL     1      -4.651  -3.137  23.467  0.00  0.00    -0.388 OA
ATOM     18  H   UNL     1      -4.377  -4.070  23.459  0.00  0.00    +0.210 HD
ENDBRANCH   6   2
BRANCH   4   8
ATOM      8  C   UNL     1      -3.761   1.308  25.043  0.00  0.00    +0.119 C 
BRANCH   8  11
ATOM     11  C   UNL     1      -2.756   2.428  25.012  0.00  0.00    -0.030 A 
ATOM     12  C   UNL     1      -1.445   2.176  24.612  0.00  0.00    +0.050 A 
ATOM     13  C   UNL     1      -3.137   3.717  25.384  0.00  0.00    +0.005 A 
ATOM     14  C   UNL     1      -0.512   3.214  24.584  0.00  0.00    +0.120 A 
ATOM     15  C   UNL     1      -2.206   4.755  25.355  0.00  0.00    +0.004 A 
ATOM     16  C   UNL     1      -0.892   4.504  24.955  0.00  0.00    +0.045 A 
BRANCH  14   3
ATOM      3  O   UNL     1       0.768   2.968  24.194  0.00  0.00    -0.495 OA
ATOM     17  C   UNL     1       1.089   1.628  23.825  0.00  0.00    +0.277 C 
ENDBRANCH  14   3
ENDBRANCH   8  11
ENDBRANCH   4   8
TORSDOF 4
ENDMDL
MODEL 9
REMARK VINA RESULT:      -5.0      1.245      2.923
REMARK  Name = 75367758
REMARK  5 active torsions:
REMARK  status: ('A' for Active; 'I' for Inactive)
REMARK    1  A    between atoms: O_2  and  C_6
REMARK    2  A    between atoms: O_3  and  C_14
REMARK    3  A    between atoms: O_3  and  C_17
REMARK    4  A    between atoms: N_4  and  C_8
REMARK    5  A    between atoms: C_8  and  C_11
REMARK                            x       y       z     vdW  Elec       q    Type
REMARK                         _______ _______ _______ _____ _____    ______ ____
ROOT
ATOM      1  O   UNL     1      -5.849   2.870  26.105  0.00  0.00    -0.376 OA
ATOM      4  N   UNL     1      -3.756   2.386  23.845  0.00  0.00    -0.293 NA
ATOM      5  C   UNL     1      -2.985   3.320  24.672  0.00  0.00    +0.118 C 
ATOM      6  C   UNL     1      -3.621   3.809  25.982  0.00  0.00    +0.154 C 
ATOM      7  C   UNL     1      -4.537   1.409  24.604  0.00  0.00    +0.113 C 
ATOM      9  C   UNL     1      -5.118   4.073  25.894  0.00  0.00    +0.192 C 
ATOM     10  C   UNL     1      -5.895   2.005  24.979  0.00  0.00    +0.175 C 
ENDROOT
BRANCH   6   2
ATOM      2  O   UNL     1      -2.980   5.028  26.360  0.00  0.00    -0.388 OA
ATOM     18  H   UNL     1      -3.653   5.597  26.771  0.00  0.00    +0.210 HD
ENDBRANCH   6   2
BRANCH   4   8
ATOM      8  C   UNL     1      -2.877   1.731  22.874  0.00  0.00    +0.119 C 
BRANCH   8  11
ATOM     11  C   UNL     1      -2.006   0.687  23.520  0.00  0.00    -0.030 A 
ATOM     12  C   UNL     1      -2.566  -0.510  23.965  0.00  0.00    +0.050 A 
ATOM     13  C   UNL     1      -0.639   0.918  23.675  0.00  0.00    +0.005 A 
ATOM     14  C   UNL     1      -1.759  -1.477  24.565  0.00  0.00    +0.120 A 
ATOM     15  C   UNL     1       0.168  -0.049  24.274  0.00  0.00    +0.004 A 
ATOM     16  C   UNL     1      -0.392  -1.247  24.719  0.00  0.00    +0.045 A 
BRANCH  14   3
ATOM      3  O   UNL     1      -2.306  -2.645  24.999  0.00  0.00    -0.495 OA
ATOM     17  C   UNL     1      -3.621  -2.957  24.542  0.00  0.00    +0.277 C 
ENDBRANCH  14   3
ENDBRANCH   8  11
ENDBRANCH   4   8
TORSDOF 4
ENDMDL
MODEL 10
REMARK VINA RESULT:      -4.6      1.651      6.282
REMARK  Name = 75367758
REMARK  5 active torsions:
REMARK  status: ('A' for Active; 'I' for Inactive)
REMARK    1  A    between atoms: O_2  and  C_6
REMARK    2  A    between atoms: O_3  and  C_14
REMARK    3  A    between atoms: O_3  and  C_17
REMARK    4  A    between atoms: N_4  and  C_8
REMARK    5  A    between atoms: C_8  and  C_11
REMARK                            x       y       z     vdW  Elec       q    Type
REMARK                         _______ _______ _______ _____ _____    ______ ____
ROOT
ATOM      1  O   UNL     1      -1.437  -2.301  24.773  0.00  0.00    -0.376 OA
ATOM      4  N   UNL     1      -1.746   0.683  23.919  0.00  0.00    -0.293 NA
ATOM      5  C   UNL     1      -0.360   0.466  23.489  0.00  0.00    +0.118 C 
ATOM      6  C   UNL     1       0.232  -0.941  23.665  0.00  0.00    +0.154 C 
ATOM      7  C   UNL     1      -2.641  -0.447  23.667  0.00  0.00    +0.113 C 
ATOM      9  C   UNL     1      -0.187  -1.644  24.949  0.00  0.00    +0.192 C 
ATOM     10  C   UNL     1      -2.566  -1.441  24.828  0.00  0.00    +0.175 C 
ENDROOT
BRANCH   6   2
ATOM      2  O   UNL     1       1.655  -0.827  23.669  0.00  0.00    -0.388 OA
ATOM     18  H   UNL     1       2.006  -1.517  23.079  0.00  0.00    +0.210 HD
ENDBRANCH   6   2
BRANCH   4   8
ATOM      8  C   UNL     1      -2.266   1.919  23.334  0.00  0.00    +0.119 C 
BRANCH   8  11
ATOM     11  C   UNL     1      -2.833   2.841  24.380  0.00  0.00    -0.030 A 
ATOM     12  C   UNL     1      -4.154   2.689  24.801  0.00  0.00    +0.050 A 
ATOM     13  C   UNL     1      -2.037   3.847  24.928  0.00  0.00    +0.005 A 
ATOM     14  C   UNL     1      -4.680   3.544  25.770  0.00  0.00    +0.120 A 
ATOM     15  C   UNL     1      -2.563   4.702  25.897  0.00  0.00    +0.004 A 
ATOM     16  C   UNL     1      -3.885   4.550  26.319  0.00  0.00    +0.045 A 
BRANCH  14   3
ATOM      3  O   UNL     1      -5.969   3.396  26.180  0.00  0.00    -0.495 OA
ATOM     17  C   UNL     1      -6.466   2.063  26.293  0.00  0.00    +0.277 C 
ENDBRANCH  14   3
ENDBRANCH   8  11
ENDBRANCH   4   8
TORSDOF 4
ENDMDL
