MODEL 1
REMARK VINA RESULT:       6.8      0.000      0.000
REMARK  Name = 7673876
REMARK  5 active torsions:
REMARK  status: ('A' for Active; 'I' for Inactive)
REMARK    1  A    between atoms: S_1  and  N_6
REMARK    2  A    between atoms: S_1  and  C_21
REMARK    3  A    between atoms: N_8  and  C_19
REMARK    4  A    between atoms: C_26  and  C_28
REMARK    5  A    between atoms: C_33  and  C_34
REMARK                            x       y       z     vdW  Elec       q    Type
REMARK                         _______ _______ _______ _____ _____    ______ ____
ROOT
ATOM      4  O   UNL     1       0.138   2.646  26.040  0.00  0.00    -0.266 OA
ATOM      6  N   UNL     1      -4.758   2.012  25.368  0.00  0.00    -0.176 NA
ATOM      7  N   UNL     1      -1.882   3.287  25.057  0.00  0.00    -0.310 N 
ATOM     10  C   UNL     1      -3.890   4.103  26.419  0.00  0.00    +0.025 C 
ATOM     11  C   UNL     1      -4.059   3.949  23.973  0.00  0.00    +0.052 C 
ATOM     12  C   UNL     1      -4.244   4.887  25.162  0.00  0.00    +0.017 C 
ATOM     13  C   UNL     1      -4.815   2.885  26.575  0.00  0.00    +0.114 C 
ATOM     14  C   UNL     1      -5.026   2.757  24.102  0.00  0.00    +0.119 C 
ATOM     15  C   UNL     1      -2.409   3.711  26.360  0.00  0.00    +0.130 C 
ATOM     16  C   UNL     1      -2.625   3.458  23.884  0.00  0.00    +0.026 A 
ATOM     17  C   UNL     1      -2.080   3.170  22.690  0.00  0.00    +0.024 A 
ATOM     18  C   UNL     1      -0.560   2.798  25.036  0.00  0.00    +0.273 A 
ATOM     19  C   UNL     1       0.002   2.467  23.688  0.00  0.00    +0.099 A 
ATOM     20  C   UNL     1      -0.741   2.663  22.594  0.00  0.00    +0.030 A 
ENDROOT
BRANCH  19   8
ATOM      5  O   UNL     1       0.750  -0.213  23.051  0.00  0.00    -0.270 OA
ATOM      8  N   UNL     1       1.274   1.979  23.627  0.00  0.00    -0.277 N 
ATOM     26  C   UNL     1       1.574   0.660  23.311  0.00  0.00    +0.248 C 
ATOM     35  H   UNL     1       1.992   2.605  23.974  0.00  0.00    +0.155 HD
BRANCH  26  28
ATOM     28  C   UNL     1       3.019   0.320  23.271  0.00  0.00    +0.037 A 
ATOM     29  C   UNL     1       3.917   1.276  22.841  0.00  0.00    +0.014 A 
ATOM     30  C   UNL     1       3.418  -0.940  23.665  0.00  0.00    +0.014 A 
ATOM     31  C   UNL     1       5.274   0.958  22.803  0.00  0.00    +0.019 A 
ATOM     32  C   UNL     1       4.776  -1.259  23.626  0.00  0.00    +0.019 A 
ATOM     33  C   UNL     1       5.703  -0.310  23.196  0.00  0.00    +0.052 A 
BRANCH  33  34
ATOM      9  N   UNL     1       8.225  -0.903  23.124  0.00  0.00    -0.191 NA
ATOM     34  C   UNL     1       7.095  -0.638  23.156  0.00  0.00    +0.099 C 
ENDBRANCH  33  34
ENDBRANCH  26  28
ENDBRANCH  19   8
BRANCH   6   1
ATOM      1  S   UNL     1      -5.540   0.496  25.514  0.00  0.00    +0.061 S 
ATOM      2  O   UNL     1      -6.506   0.357  24.446  0.00  0.00    -0.153 OA
ATOM      3  O   UNL     1      -5.924   0.296  26.896  0.00  0.00    -0.153 OA
BRANCH   1  21
ATOM     21  C   UNL     1      -4.188  -0.584  25.164  0.00  0.00    +0.105 A 
ATOM     22  C   UNL     1      -4.412  -1.730  24.419  0.00  0.00    +0.028 A 
ATOM     23  C   UNL     1      -2.927  -0.268  25.641  0.00  0.00    +0.028 A 
ATOM     24  C   UNL     1      -3.344  -2.584  24.143  0.00  0.00    +0.002 A 
ATOM     25  C   UNL     1      -1.859  -1.121  25.365  0.00  0.00    +0.002 A 
ATOM     27  C   UNL     1      -2.067  -2.280  24.616  0.00  0.00    +0.000 A 
ENDBRANCH   1  21
ENDBRANCH   6   1
TORSDOF 5
ENDMDL
MODEL 2
REMARK VINA RESULT:       9.0      1.867      4.144
REMARK  Name = 7673876
REMARK  5 active torsions:
REMARK  status: ('A' for Active; 'I' for Inactive)
REMARK    1  A    between atoms: S_1  and  N_6
REMARK    2  A    between atoms: S_1  and  C_21
REMARK    3  A    between atoms: N_8  and  C_19
REMARK    4  A    between atoms: C_26  and  C_28
REMARK    5  A    between atoms: C_33  and  C_34
REMARK                            x       y       z     vdW  Elec       q    Type
REMARK                         _______ _______ _______ _____ _____    ______ ____
ROOT
ATOM      4  O   UNL     1      -0.654   0.069  22.515  0.00  0.00    -0.266 OA
ATOM      6  N   UNL     1      -4.388   1.895  25.262  0.00  0.00    -0.176 NA
ATOM      7  N   UNL     1      -2.444  -0.245  23.983  0.00  0.00    -0.310 N 
ATOM     10  C   UNL     1      -4.860   0.337  23.369  0.00  0.00    +0.025 C 
ATOM     11  C   UNL     1      -4.353  -0.569  25.595  0.00  0.00    +0.052 C 
ATOM     12  C   UNL     1      -5.227  -0.761  24.358  0.00  0.00    +0.017 C 
ATOM     13  C   UNL     1      -5.126   1.724  23.977  0.00  0.00    +0.114 C 
ATOM     14  C   UNL     1      -4.661   0.797  26.236  0.00  0.00    +0.119 C 
ATOM     15  C   UNL     1      -3.399   0.155  22.942  0.00  0.00    +0.130 C 
ATOM     16  C   UNL     1      -2.880  -0.668  25.243  0.00  0.00    +0.026 A 
ATOM     17  C   UNL     1      -1.998  -1.137  26.141  0.00  0.00    +0.024 A 
ATOM     18  C   UNL     1      -1.083  -0.277  23.616  0.00  0.00    +0.273 A 
ATOM     19  C   UNL     1      -0.130  -0.786  24.653  0.00  0.00    +0.099 A 
ATOM     20  C   UNL     1      -0.596  -1.195  25.838  0.00  0.00    +0.030 A 
ENDROOT
BRANCH  19   8
ATOM      5  O   UNL     1       1.380   1.327  23.470  0.00  0.00    -0.270 OA
ATOM      8  N   UNL     1       1.197  -0.821  24.342  0.00  0.00    -0.277 N 
ATOM     26  C   UNL     1       1.877   0.244  23.765  0.00  0.00    +0.248 C 
ATOM     35  H   UNL     1       1.633  -1.733  24.420  0.00  0.00    +0.155 HD
BRANCH  26  28
ATOM     28  C   UNL     1       3.325   0.026  23.519  0.00  0.00    +0.037 A 
ATOM     29  C   UNL     1       3.891  -1.175  23.895  0.00  0.00    +0.014 A 
ATOM     30  C   UNL     1       4.059   1.030  22.924  0.00  0.00    +0.014 A 
ATOM     31  C   UNL     1       5.251  -1.381  23.666  0.00  0.00    +0.019 A 
ATOM     32  C   UNL     1       5.420   0.826  22.694  0.00  0.00    +0.019 A 
ATOM     33  C   UNL     1       6.015  -0.380  23.065  0.00  0.00    +0.052 A 
BRANCH  33  34
ATOM      9  N   UNL     1       8.543  -0.759  22.640  0.00  0.00    -0.191 NA
ATOM     34  C   UNL     1       7.410  -0.589  22.830  0.00  0.00    +0.099 C 
ENDBRANCH  33  34
ENDBRANCH  26  28
ENDBRANCH  19   8
BRANCH   6   1
ATOM      1  S   UNL     1      -4.392   3.478  25.911  0.00  0.00    +0.061 S 
ATOM      2  O   UNL     1      -4.467   3.398  27.354  0.00  0.00    -0.153 OA
ATOM      3  O   UNL     1      -5.326   4.292  25.161  0.00  0.00    -0.153 OA
BRANCH   1  21
ATOM     21  C   UNL     1      -2.758   3.993  25.483  0.00  0.00    +0.105 A 
ATOM     22  C   UNL     1      -2.508   5.336  25.255  0.00  0.00    +0.028 A 
ATOM     23  C   UNL     1      -1.754   3.044  25.383  0.00  0.00    +0.028 A 
ATOM     24  C   UNL     1      -1.217   5.742  24.916  0.00  0.00    +0.002 A 
ATOM     25  C   UNL     1      -0.463   3.450  25.044  0.00  0.00    +0.002 A 
ATOM     27  C   UNL     1      -0.194   4.799  24.812  0.00  0.00    +0.000 A 
ENDBRANCH   1  21
ENDBRANCH   6   1
TORSDOF 5
ENDMDL
