MODEL 1
REMARK VINA RESULT:      -5.9      0.000      0.000
REMARK  Name = 26744529
REMARK  7 active torsions:
REMARK  status: ('A' for Active; 'I' for Inactive)
REMARK    1  A    between atoms: S_1  and  C_16
REMARK    2  A    between atoms: S_1  and  C_17
REMARK    3  A    between atoms: O_2  and  C_11
REMARK    4  A    between atoms: N_6  and  C_14
REMARK    5  A    between atoms: C_9  and  C_13
REMARK    6  A    between atoms: C_15  and  C_16
REMARK    7  A    between atoms: C_20  and  C_23
REMARK                            x       y       z     vdW  Elec       q    Type
REMARK                         _______ _______ _______ _____ _____    ______ ____
ROOT
ATOM      3  O   UNL     1      -0.130   3.585  24.664  0.00  0.00    -0.336 OA
ATOM      7  N   UNL     1      -1.723   2.420  25.725  0.00  0.00    -0.193 NA
ATOM      8  N   UNL     1      -1.123   4.509  25.010  0.00  0.00    -0.060 NA
ATOM     13  C   UNL     1      -0.562   2.380  25.121  0.00  0.00    +0.245 A 
ATOM     15  C   UNL     1      -2.028   3.747  25.632  0.00  0.00    +0.193 A 
ENDROOT
BRANCH  13   9
ATOM      6  N   UNL     1      -0.395  -0.028  24.510  0.00  0.00    -0.292 NA
ATOM      9  C   UNL     1       0.349   1.196  24.870  0.00  0.00    +0.148 C 
ATOM     10  C   UNL     1       1.318   1.429  23.695  0.00  0.00    +0.061 C 
ATOM     11  C   UNL     1       1.076   0.260  22.748  0.00  0.00    +0.130 C 
ATOM     12  C   UNL     1       0.489  -0.811  23.648  0.00  0.00    +0.116 C 
ATOM     14  C   UNL     1      -0.846  -0.788  25.668  0.00  0.00    +0.105 C 
BRANCH  11   2
ATOM      2  O   UNL     1       2.288  -0.162  22.153  0.00  0.00    -0.390 OA
ATOM     24  H   UNL     1       2.072  -0.873  21.525  0.00  0.00    +0.210 HD
ENDBRANCH  11   2
ENDBRANCH  13   9
BRANCH  15  16
ATOM     16  C   UNL     1      -3.269   4.304  26.181  0.00  0.00    +0.251 C 
BRANCH  16   1
ATOM      1  S   UNL     1      -4.592   3.963  25.053  0.00  0.00    +0.004 S 
ATOM      4  O   UNL     1      -4.319   4.689  23.828  0.00  0.00    -0.169 OA
ATOM      5  O   UNL     1      -5.850   4.142  25.751  0.00  0.00    -0.169 OA
BRANCH   1  17
ATOM     17  C   UNL     1      -4.425   2.236  24.716  0.00  0.00    +0.089 A 
ATOM     18  C   UNL     1      -4.992   1.300  25.581  0.00  0.00    +0.027 A 
ATOM     19  C   UNL     1      -3.726   1.810  23.588  0.00  0.00    +0.027 A 
ATOM     20  C   UNL     1      -4.158  -0.489  24.188  0.00  0.00    -0.050 A 
ATOM     21  C   UNL     1      -4.858  -0.064  25.317  0.00  0.00    +0.005 A 
ATOM     22  C   UNL     1      -3.592   0.447  23.323  0.00  0.00    +0.005 A 
ATOM     23  C   UNL     1      -4.016  -1.947  23.906  0.00  0.00    +0.044 C 
ENDBRANCH   1  17
ENDBRANCH  16   1
ENDBRANCH  15  16
TORSDOF 5
ENDMDL
MODEL 2
REMARK VINA RESULT:      -4.7      2.288      3.621
REMARK  Name = 26744529
REMARK  7 active torsions:
REMARK  status: ('A' for Active; 'I' for Inactive)
REMARK    1  A    between atoms: S_1  and  C_16
REMARK    2  A    between atoms: S_1  and  C_17
REMARK    3  A    between atoms: O_2  and  C_11
REMARK    4  A    between atoms: N_6  and  C_14
REMARK    5  A    between atoms: C_9  and  C_13
REMARK    6  A    between atoms: C_15  and  C_16
REMARK    7  A    between atoms: C_20  and  C_23
REMARK                            x       y       z     vdW  Elec       q    Type
REMARK                         _______ _______ _______ _____ _____    ______ ____
ROOT
ATOM      3  O   UNL     1       0.590   0.448  23.839  0.00  0.00    -0.336 OA
ATOM      7  N   UNL     1      -1.085   1.188  25.130  0.00  0.00    -0.193 NA
ATOM      8  N   UNL     1       0.962   1.729  24.263  0.00  0.00    -0.060 NA
ATOM     13  C   UNL     1      -0.627   0.207  24.393  0.00  0.00    +0.245 A 
ATOM     15  C   UNL     1      -0.075   2.100  25.019  0.00  0.00    +0.193 A 
ENDROOT
BRANCH  13   9
ATOM      6  N   UNL     1      -1.319  -2.020  25.266  0.00  0.00    -0.292 NA
ATOM      9  C   UNL     1      -1.257  -1.136  24.085  0.00  0.00    +0.148 C 
ATOM     10  C   UNL     1      -2.716  -1.013  23.607  0.00  0.00    +0.061 C 
ATOM     11  C   UNL     1      -3.516  -1.899  24.554  0.00  0.00    +0.130 C 
ATOM     12  C   UNL     1      -2.485  -2.881  25.078  0.00  0.00    +0.116 C 
ATOM     14  C   UNL     1      -0.098  -2.788  25.473  0.00  0.00    +0.105 C 
BRANCH  11   2
ATOM      2  O   UNL     1      -4.561  -2.555  23.864  0.00  0.00    -0.390 OA
ATOM     24  H   UNL     1      -4.337  -2.546  22.917  0.00  0.00    +0.210 HD
ENDBRANCH  11   2
ENDBRANCH  13   9
BRANCH  15  16
ATOM     16  C   UNL     1      -0.123   3.404  25.689  0.00  0.00    +0.251 C 
BRANCH  16   1
ATOM      1  S   UNL     1      -1.157   4.489  24.745  0.00  0.00    +0.004 S 
ATOM      4  O   UNL     1      -0.680   4.466  23.376  0.00  0.00    -0.169 OA
ATOM      5  O   UNL     1      -1.283   5.744  25.461  0.00  0.00    -0.169 OA
BRANCH   1  17
ATOM     17  C   UNL     1      -2.741   3.705  24.787  0.00  0.00    +0.089 A 
ATOM     18  C   UNL     1      -3.538   3.806  25.927  0.00  0.00    +0.027 A 
ATOM     19  C   UNL     1      -3.192   2.985  23.682  0.00  0.00    +0.027 A 
ATOM     20  C   UNL     1      -5.238   2.465  24.857  0.00  0.00    -0.050 A 
ATOM     21  C   UNL     1      -4.787   3.186  25.963  0.00  0.00    +0.005 A 
ATOM     22  C   UNL     1      -4.441   2.364  23.716  0.00  0.00    +0.005 A 
ATOM     23  C   UNL     1      -6.573   1.802  24.894  0.00  0.00    +0.044 C 
ENDBRANCH   1  17
ENDBRANCH  16   1
ENDBRANCH  15  16
TORSDOF 5
ENDMDL
MODEL 3
REMARK VINA RESULT:      -4.2      2.290      3.736
REMARK  Name = 26744529
REMARK  7 active torsions:
REMARK  status: ('A' for Active; 'I' for Inactive)
REMARK    1  A    between atoms: S_1  and  C_16
REMARK    2  A    between atoms: S_1  and  C_17
REMARK    3  A    between atoms: O_2  and  C_11
REMARK    4  A    between atoms: N_6  and  C_14
REMARK    5  A    between atoms: C_9  and  C_13
REMARK    6  A    between atoms: C_15  and  C_16
REMARK    7  A    between atoms: C_20  and  C_23
REMARK                            x       y       z     vdW  Elec       q    Type
REMARK                         _______ _______ _______ _____ _____    ______ ____
ROOT
ATOM      3  O   UNL     1       0.004   0.026  24.232  0.00  0.00    -0.336 OA
ATOM      7  N   UNL     1      -1.091   1.079  25.879  0.00  0.00    -0.193 NA
ATOM      8  N   UNL     1       0.522   1.326  24.275  0.00  0.00    -0.060 NA
ATOM     13  C   UNL     1      -0.940  -0.035  25.208  0.00  0.00    +0.245 A 
ATOM     15  C   UNL     1      -0.173   1.885  25.270  0.00  0.00    +0.193 A 
ENDROOT
BRANCH  13   9
ATOM      6  N   UNL     1      -3.114  -1.247  25.148  0.00  0.00    -0.292 NA
ATOM      9  C   UNL     1      -1.658  -1.358  25.372  0.00  0.00    +0.148 C 
ATOM     10  C   UNL     1      -1.185  -2.422  24.362  0.00  0.00    +0.061 C 
ATOM     11  C   UNL     1      -2.451  -2.880  23.650  0.00  0.00    +0.130 C 
ATOM     12  C   UNL     1      -3.555  -2.542  24.635  0.00  0.00    +0.116 C 
ATOM     14  C   UNL     1      -3.850  -0.850  26.342  0.00  0.00    +0.105 C 
BRANCH  11   2
ATOM      2  O   UNL     1      -2.399  -4.267  23.377  0.00  0.00    -0.390 OA
ATOM     24  H   UNL     1      -3.295  -4.624  23.509  0.00  0.00    +0.210 HD
ENDBRANCH  11   2
ENDBRANCH  13   9
BRANCH  15  16
ATOM     16  C   UNL     1       0.041   3.277  25.682  0.00  0.00    +0.251 C 
BRANCH  16   1
ATOM      1  S   UNL     1      -0.956   4.329  24.664  0.00  0.00    +0.004 S 
ATOM      4  O   UNL     1      -0.465   4.214  23.304  0.00  0.00    -0.169 OA
ATOM      5  O   UNL     1      -1.057   5.627  25.303  0.00  0.00    -0.169 OA
BRANCH   1  17
ATOM     17  C   UNL     1      -2.559   3.589  24.734  0.00  0.00    +0.089 A 
ATOM     18  C   UNL     1      -2.986   2.754  23.702  0.00  0.00    +0.027 A 
ATOM     19  C   UNL     1      -3.397   3.841  25.819  0.00  0.00    +0.027 A 
ATOM     20  C   UNL     1      -5.091   2.424  24.841  0.00  0.00    -0.050 A 
ATOM     21  C   UNL     1      -4.253   2.171  23.755  0.00  0.00    +0.005 A 
ATOM     22  C   UNL     1      -4.664   3.259  25.873  0.00  0.00    +0.005 A 
ATOM     23  C   UNL     1      -6.445   1.801  24.898  0.00  0.00    +0.044 C 
ENDBRANCH   1  17
ENDBRANCH  16   1
ENDBRANCH  15  16
TORSDOF 5
ENDMDL
MODEL 4
REMARK VINA RESULT:      -3.8      2.204      4.119
REMARK  Name = 26744529
REMARK  7 active torsions:
REMARK  status: ('A' for Active; 'I' for Inactive)
REMARK    1  A    between atoms: S_1  and  C_16
REMARK    2  A    between atoms: S_1  and  C_17
REMARK    3  A    between atoms: O_2  and  C_11
REMARK    4  A    between atoms: N_6  and  C_14
REMARK    5  A    between atoms: C_9  and  C_13
REMARK    6  A    between atoms: C_15  and  C_16
REMARK    7  A    between atoms: C_20  and  C_23
REMARK                            x       y       z     vdW  Elec       q    Type
REMARK                         _______ _______ _______ _____ _____    ______ ____
ROOT
ATOM      3  O   UNL     1      -5.268   0.456  25.331  0.00  0.00    -0.336 OA
ATOM      7  N   UNL     1      -3.341   1.561  25.040  0.00  0.00    -0.193 NA
ATOM      8  N   UNL     1      -5.616   1.795  25.114  0.00  0.00    -0.060 NA
ATOM     13  C   UNL     1      -3.911   0.405  25.272  0.00  0.00    +0.245 A 
ATOM     15  C   UNL     1      -4.427   2.383  24.950  0.00  0.00    +0.193 A 
ENDROOT
BRANCH  13   9
ATOM      6  N   UNL     1      -3.130  -1.710  24.215  0.00  0.00    -0.292 NA
ATOM      9  C   UNL     1      -3.276  -0.955  25.476  0.00  0.00    +0.148 C 
ATOM     10  C   UNL     1      -1.849  -0.865  26.049  0.00  0.00    +0.061 C 
ATOM     11  C   UNL     1      -0.980  -1.637  25.065  0.00  0.00    +0.130 C 
ATOM     12  C   UNL     1      -1.961  -2.571  24.381  0.00  0.00    +0.116 C 
ATOM     14  C   UNL     1      -4.323  -2.466  23.857  0.00  0.00    +0.105 C 
BRANCH  11   2
ATOM      2  O   UNL     1       0.036  -2.349  25.744  0.00  0.00    -0.390 OA
ATOM     24  H   UNL     1      -0.345  -2.676  26.578  0.00  0.00    +0.210 HD
ENDBRANCH  11   2
ENDBRANCH  13   9
BRANCH  15  16
ATOM     16  C   UNL     1      -4.299   3.820  24.690  0.00  0.00    +0.251 C 
BRANCH  16   1
ATOM      1  S   UNL     1      -2.813   4.406  25.454  0.00  0.00    +0.004 S 
ATOM      4  O   UNL     1      -2.954   4.217  26.885  0.00  0.00    -0.169 OA
ATOM      5  O   UNL     1      -2.499   5.714  24.911  0.00  0.00    -0.169 OA
BRANCH   1  17
ATOM     17  C   UNL     1      -1.571   3.291  24.873  0.00  0.00    +0.089 A 
ATOM     18  C   UNL     1      -1.625   2.808  23.565  0.00  0.00    +0.027 A 
ATOM     19  C   UNL     1      -0.539   2.892  25.721  0.00  0.00    +0.027 A 
ATOM     20  C   UNL     1       0.386   1.527  23.956  0.00  0.00    -0.050 A 
ATOM     21  C   UNL     1      -0.647   1.926  23.106  0.00  0.00    +0.005 A 
ATOM     22  C   UNL     1       0.440   2.010  25.263  0.00  0.00    +0.005 A 
ATOM     23  C   UNL     1       1.431   0.584  23.466  0.00  0.00    +0.044 C 
ENDBRANCH   1  17
ENDBRANCH  16   1
ENDBRANCH  15  16
TORSDOF 5
ENDMDL
MODEL 5
REMARK VINA RESULT:      -3.8      2.671      6.126
REMARK  Name = 26744529
REMARK  7 active torsions:
REMARK  status: ('A' for Active; 'I' for Inactive)
REMARK    1  A    between atoms: S_1  and  C_16
REMARK    2  A    between atoms: S_1  and  C_17
REMARK    3  A    between atoms: O_2  and  C_11
REMARK    4  A    between atoms: N_6  and  C_14
REMARK    5  A    between atoms: C_9  and  C_13
REMARK    6  A    between atoms: C_15  and  C_16
REMARK    7  A    between atoms: C_20  and  C_23
REMARK                            x       y       z     vdW  Elec       q    Type
REMARK                         _______ _______ _______ _____ _____    ______ ____
ROOT
ATOM      3  O   UNL     1      -4.417  -0.154  25.742  0.00  0.00    -0.336 OA
ATOM      7  N   UNL     1      -3.231   0.214  23.877  0.00  0.00    -0.193 NA
ATOM      8  N   UNL     1      -3.521  -1.224  25.633  0.00  0.00    -0.060 NA
ATOM     13  C   UNL     1      -4.181   0.646  24.669  0.00  0.00    +0.245 A 
ATOM     15  C   UNL     1      -2.857  -0.936  24.510  0.00  0.00    +0.193 A 
ENDROOT
BRANCH  13   9
ATOM      6  N   UNL     1      -5.338   2.495  25.869  0.00  0.00    -0.292 NA
ATOM      9  C   UNL     1      -5.032   1.893  24.555  0.00  0.00    +0.148 C 
ATOM     10  C   UNL     1      -4.340   3.016  23.759  0.00  0.00    +0.061 C 
ATOM     11  C   UNL     1      -4.344   4.221  24.691  0.00  0.00    +0.130 C 
ATOM     12  C   UNL     1      -5.492   3.931  25.641  0.00  0.00    +0.116 C 
ATOM     14  C   UNL     1      -6.511   1.913  26.509  0.00  0.00    +0.105 C 
BRANCH  11   2
ATOM      2  O   UNL     1      -4.554   5.416  23.965  0.00  0.00    -0.390 OA
ATOM     24  H   UNL     1      -5.185   5.217  23.251  0.00  0.00    +0.210 HD
ENDBRANCH  11   2
ENDBRANCH  13   9
BRANCH  15  16
ATOM     16  C   UNL     1      -1.792  -1.802  23.992  0.00  0.00    +0.251 C 
BRANCH  16   1
ATOM      1  S   UNL     1      -0.239  -1.225  24.617  0.00  0.00    +0.004 S 
ATOM      4  O   UNL     1       0.763  -1.480  23.601  0.00  0.00    -0.169 OA
ATOM      5  O   UNL     1      -0.068  -1.733  25.965  0.00  0.00    -0.169 OA
BRANCH   1  17
ATOM     17  C   UNL     1      -0.457   0.524  24.745  0.00  0.00    +0.089 A 
ATOM     18  C   UNL     1      -0.419   1.316  23.598  0.00  0.00    +0.027 A 
ATOM     19  C   UNL     1      -0.666   1.111  25.992  0.00  0.00    +0.027 A 
ATOM     20  C   UNL     1      -0.798   3.285  24.947  0.00  0.00    -0.050 A 
ATOM     21  C   UNL     1      -0.589   2.698  23.699  0.00  0.00    +0.005 A 
ATOM     22  C   UNL     1      -0.836   2.492  26.094  0.00  0.00    +0.005 A 
ATOM     23  C   UNL     1      -0.980   4.761  25.055  0.00  0.00    +0.044 C 
ENDBRANCH   1  17
ENDBRANCH  16   1
ENDBRANCH  15  16
TORSDOF 5
ENDMDL
MODEL 6
REMARK VINA RESULT:      -3.6      2.130      3.819
REMARK  Name = 26744529
REMARK  7 active torsions:
REMARK  status: ('A' for Active; 'I' for Inactive)
REMARK    1  A    between atoms: S_1  and  C_16
REMARK    2  A    between atoms: S_1  and  C_17
REMARK    3  A    between atoms: O_2  and  C_11
REMARK    4  A    between atoms: N_6  and  C_14
REMARK    5  A    between atoms: C_9  and  C_13
REMARK    6  A    between atoms: C_15  and  C_16
REMARK    7  A    between atoms: C_20  and  C_23
REMARK                            x       y       z     vdW  Elec       q    Type
REMARK                         _______ _______ _______ _____ _____    ______ ____
ROOT
ATOM      3  O   UNL     1      -2.667  -1.045  26.179  0.00  0.00    -0.336 OA
ATOM      7  N   UNL     1      -3.019   0.379  24.485  0.00  0.00    -0.193 NA
ATOM      8  N   UNL     1      -4.055  -0.969  26.017  0.00  0.00    -0.060 NA
ATOM     13  C   UNL     1      -2.133  -0.222  25.239  0.00  0.00    +0.245 A 
ATOM     15  C   UNL     1      -4.184  -0.111  25.000  0.00  0.00    +0.193 A 
ENDROOT
BRANCH  13   9
ATOM      6  N   UNL     1      -0.005  -1.180  24.372  0.00  0.00    -0.292 NA
ATOM      9  C   UNL     1      -0.621  -0.127  25.204  0.00  0.00    +0.148 C 
ATOM     10  C   UNL     1      -0.122   1.198  24.597  0.00  0.00    +0.061 C 
ATOM     11  C   UNL     1       0.804   0.786  23.460  0.00  0.00    +0.130 C 
ATOM     12  C   UNL     1       1.236  -0.617  23.844  0.00  0.00    +0.116 C 
ATOM     14  C   UNL     1       0.221  -2.425  25.095  0.00  0.00    +0.105 C 
BRANCH  11   2
ATOM      2  O   UNL     1       1.906   1.667  23.366  0.00  0.00    -0.390 OA
ATOM     24  H   UNL     1       2.713   1.140  23.504  0.00  0.00    +0.210 HD
ENDBRANCH  11   2
ENDBRANCH  13   9
BRANCH  15  16
ATOM     16  C   UNL     1      -5.497   0.278  24.472  0.00  0.00    +0.251 C 
BRANCH  16   1
ATOM      1  S   UNL     1      -6.001   1.784  25.256  0.00  0.00    +0.004 S 
ATOM      4  O   UNL     1      -6.247   1.487  26.654  0.00  0.00    -0.169 OA
ATOM      5  O   UNL     1      -7.028   2.405  24.443  0.00  0.00    -0.169 OA
BRANCH   1  17
ATOM     17  C   UNL     1      -4.567   2.812  25.157  0.00  0.00    +0.089 A 
ATOM     18  C   UNL     1      -4.038   3.151  23.912  0.00  0.00    +0.027 A 
ATOM     19  C   UNL     1      -3.965   3.283  26.323  0.00  0.00    +0.027 A 
ATOM     20  C   UNL     1      -2.302   4.432  25.000  0.00  0.00    -0.050 A 
ATOM     21  C   UNL     1      -2.904   3.961  23.833  0.00  0.00    +0.005 A 
ATOM     22  C   UNL     1      -2.832   4.093  26.245  0.00  0.00    +0.005 A 
ATOM     23  C   UNL     1      -1.091   5.297  24.916  0.00  0.00    +0.044 C 
ENDBRANCH   1  17
ENDBRANCH  16   1
ENDBRANCH  15  16
TORSDOF 5
ENDMDL
MODEL 7
REMARK VINA RESULT:      -3.1      3.081      7.157
REMARK  Name = 26744529
REMARK  7 active torsions:
REMARK  status: ('A' for Active; 'I' for Inactive)
REMARK    1  A    between atoms: S_1  and  C_16
REMARK    2  A    between atoms: S_1  and  C_17
REMARK    3  A    between atoms: O_2  and  C_11
REMARK    4  A    between atoms: N_6  and  C_14
REMARK    5  A    between atoms: C_9  and  C_13
REMARK    6  A    between atoms: C_15  and  C_16
REMARK    7  A    between atoms: C_20  and  C_23
REMARK                            x       y       z     vdW  Elec       q    Type
REMARK                         _______ _______ _______ _____ _____    ______ ____
ROOT
ATOM      3  O   UNL     1      -1.983   1.637  25.637  0.00  0.00    -0.336 OA
ATOM      7  N   UNL     1      -1.563   1.988  23.464  0.00  0.00    -0.193 NA
ATOM      8  N   UNL     1      -0.601   1.481  25.478  0.00  0.00    -0.060 NA
ATOM     13  C   UNL     1      -2.473   1.933  24.405  0.00  0.00    +0.245 A 
ATOM     15  C   UNL     1      -0.431   1.703  24.171  0.00  0.00    +0.193 A 
ENDROOT
BRANCH  13   9
ATOM      6  N   UNL     1      -4.735   1.256  25.193  0.00  0.00    -0.292 NA
ATOM      9  C   UNL     1      -3.968   2.155  24.307  0.00  0.00    +0.148 C 
ATOM     10  C   UNL     1      -4.388   3.576  24.727  0.00  0.00    +0.061 C 
ATOM     11  C   UNL     1      -5.427   3.372  25.823  0.00  0.00    +0.130 C 
ATOM     12  C   UNL     1      -5.955   1.975  25.556  0.00  0.00    +0.116 C 
ATOM     14  C   UNL     1      -5.021  -0.039  24.591  0.00  0.00    +0.105 C 
BRANCH  11   2
ATOM      2  O   UNL     1      -6.449   4.345  25.733  0.00  0.00    -0.390 OA
ATOM     24  H   UNL     1      -6.037   5.215  25.876  0.00  0.00    +0.210 HD
ENDBRANCH  11   2
ENDBRANCH  13   9
BRANCH  15  16
ATOM     16  C   UNL     1       0.891   1.647  23.538  0.00  0.00    +0.251 C 
BRANCH  16   1
ATOM      1  S   UNL     1       1.225  -0.029  23.071  0.00  0.00    +0.004 S 
ATOM      4  O   UNL     1       0.884  -0.168  21.668  0.00  0.00    -0.169 OA
ATOM      5  O   UNL     1       0.639  -0.910  24.063  0.00  0.00    -0.169 OA
BRANCH   1  17
ATOM     17  C   UNL     1       2.980  -0.169  23.224  0.00  0.00    +0.089 A 
ATOM     18  C   UNL     1       3.545  -1.347  23.712  0.00  0.00    +0.027 A 
ATOM     19  C   UNL     1       3.800   0.899  22.860  0.00  0.00    +0.027 A 
ATOM     20  C   UNL     1       5.750  -0.388  23.472  0.00  0.00    -0.050 A 
ATOM     21  C   UNL     1       4.931  -1.457  23.837  0.00  0.00    +0.005 A 
ATOM     22  C   UNL     1       5.185   0.790  22.984  0.00  0.00    +0.005 A 
ATOM     23  C   UNL     1       7.230  -0.505  23.604  0.00  0.00    +0.044 C 
ENDBRANCH   1  17
ENDBRANCH  16   1
ENDBRANCH  15  16
TORSDOF 5
ENDMDL
MODEL 8
REMARK VINA RESULT:      -3.1      2.547      4.079
REMARK  Name = 26744529
REMARK  7 active torsions:
REMARK  status: ('A' for Active; 'I' for Inactive)
REMARK    1  A    between atoms: S_1  and  C_16
REMARK    2  A    between atoms: S_1  and  C_17
REMARK    3  A    between atoms: O_2  and  C_11
REMARK    4  A    between atoms: N_6  and  C_14
REMARK    5  A    between atoms: C_9  and  C_13
REMARK    6  A    between atoms: C_15  and  C_16
REMARK    7  A    between atoms: C_20  and  C_23
REMARK                            x       y       z     vdW  Elec       q    Type
REMARK                         _______ _______ _______ _____ _____    ______ ____
ROOT
ATOM      3  O   UNL     1      -3.251   0.427  23.729  0.00  0.00    -0.336 OA
ATOM      7  N   UNL     1      -4.708   0.347  25.430  0.00  0.00    -0.193 NA
ATOM      8  N   UNL     1      -4.183   1.445  23.492  0.00  0.00    -0.060 NA
ATOM     13  C   UNL     1      -3.633  -0.170  24.888  0.00  0.00    +0.245 A 
ATOM     15  C   UNL     1      -5.009   1.334  24.537  0.00  0.00    +0.193 A 
ENDROOT
BRANCH  13   9
ATOM      6  N   UNL     1      -2.514  -2.319  24.316  0.00  0.00    -0.292 NA
ATOM      9  C   UNL     1      -2.773  -1.319  25.372  0.00  0.00    +0.148 C 
ATOM     10  C   UNL     1      -1.376  -0.864  25.835  0.00  0.00    +0.061 C 
ATOM     11  C   UNL     1      -0.399  -1.695  25.015  0.00  0.00    +0.130 C 
ATOM     12  C   UNL     1      -1.213  -2.913  24.619  0.00  0.00    +0.116 C 
ATOM     14  C   UNL     1      -3.563  -3.324  24.206  0.00  0.00    +0.105 C 
BRANCH  11   2
ATOM      2  O   UNL     1       0.731  -2.050  25.790  0.00  0.00    -0.390 OA
ATOM     24  H   UNL     1       1.519  -1.722  25.322  0.00  0.00    +0.210 HD
ENDBRANCH  11   2
ENDBRANCH  13   9
BRANCH  15  16
ATOM     16  C   UNL     1      -6.164   2.221  24.712  0.00  0.00    +0.251 C 
BRANCH  16   1
ATOM      1  S   UNL     1      -5.756   3.454  25.916  0.00  0.00    +0.004 S 
ATOM      4  O   UNL     1      -5.805   2.824  27.221  0.00  0.00    -0.169 OA
ATOM      5  O   UNL     1      -6.538   4.644  25.642  0.00  0.00    -0.169 OA
BRANCH   1  17
ATOM     17  C   UNL     1      -4.070   3.848  25.561  0.00  0.00    +0.089 A 
ATOM     18  C   UNL     1      -3.059   3.428  26.426  0.00  0.00    +0.027 A 
ATOM     19  C   UNL     1      -3.751   4.581  24.418  0.00  0.00    +0.027 A 
ATOM     20  C   UNL     1      -1.409   4.474  25.004  0.00  0.00    -0.050 A 
ATOM     21  C   UNL     1      -1.728   3.741  26.147  0.00  0.00    +0.005 A 
ATOM     22  C   UNL     1      -2.420   4.894  24.139  0.00  0.00    +0.005 A 
ATOM     23  C   UNL     1       0.013   4.809  24.706  0.00  0.00    +0.044 C 
ENDBRANCH   1  17
ENDBRANCH  16   1
ENDBRANCH  15  16
TORSDOF 5
ENDMDL
MODEL 9
REMARK VINA RESULT:      -2.6      2.179      5.462
REMARK  Name = 26744529
REMARK  7 active torsions:
REMARK  status: ('A' for Active; 'I' for Inactive)
REMARK    1  A    between atoms: S_1  and  C_16
REMARK    2  A    between atoms: S_1  and  C_17
REMARK    3  A    between atoms: O_2  and  C_11
REMARK    4  A    between atoms: N_6  and  C_14
REMARK    5  A    between atoms: C_9  and  C_13
REMARK    6  A    between atoms: C_15  and  C_16
REMARK    7  A    between atoms: C_20  and  C_23
REMARK                            x       y       z     vdW  Elec       q    Type
REMARK                         _______ _______ _______ _____ _____    ______ ____
ROOT
ATOM      3  O   UNL     1      -1.625   2.692  25.567  0.00  0.00    -0.336 OA
ATOM      7  N   UNL     1      -1.257   1.910  23.500  0.00  0.00    -0.193 NA
ATOM      8  N   UNL     1      -0.246   2.466  25.477  0.00  0.00    -0.060 NA
ATOM     13  C   UNL     1      -2.144   2.339  24.362  0.00  0.00    +0.245 A 
ATOM     15  C   UNL     1      -0.107   2.006  24.230  0.00  0.00    +0.193 A 
ENDROOT
BRANCH  13   9
ATOM      6  N   UNL     1      -4.404   1.463  24.933  0.00  0.00    -0.292 NA
ATOM      9  C   UNL     1      -3.642   2.494  24.200  0.00  0.00    +0.148 C 
ATOM     10  C   UNL     1      -4.165   3.835  24.750  0.00  0.00    +0.061 C 
ATOM     11  C   UNL     1      -5.247   3.455  25.751  0.00  0.00    +0.130 C 
ATOM     12  C   UNL     1      -5.681   2.074  25.299  0.00  0.00    +0.116 C 
ATOM     14  C   UNL     1      -4.582   0.232  24.173  0.00  0.00    +0.105 C 
BRANCH  11   2
ATOM      2  O   UNL     1      -6.317   4.380  25.709  0.00  0.00    -0.390 OA
ATOM     24  H   UNL     1      -7.111   3.923  26.036  0.00  0.00    +0.210 HD
ENDBRANCH  11   2
ENDBRANCH  13   9
BRANCH  15  16
ATOM     16  C   UNL     1       1.200   1.630  23.681  0.00  0.00    +0.251 C 
BRANCH  16   1
ATOM      1  S   UNL     1       1.126  -0.055  23.141  0.00  0.00    +0.004 S 
ATOM      4  O   UNL     1       2.359  -0.699  23.548  0.00  0.00    -0.169 OA
ATOM      5  O   UNL     1       0.706  -0.076  21.753  0.00  0.00    -0.169 OA
BRANCH   1  17
ATOM     17  C   UNL     1      -0.194  -0.746  24.093  0.00  0.00    +0.089 A 
ATOM     18  C   UNL     1      -1.120  -1.594  23.487  0.00  0.00    +0.027 A 
ATOM     19  C   UNL     1      -0.310  -0.440  25.448  0.00  0.00    +0.027 A 
ATOM     20  C   UNL     1      -2.279  -1.832  25.593  0.00  0.00    -0.050 A 
ATOM     21  C   UNL     1      -2.164  -2.137  24.237  0.00  0.00    +0.005 A 
ATOM     22  C   UNL     1      -1.353  -0.983  26.199  0.00  0.00    +0.005 A 
ATOM     23  C   UNL     1      -3.394  -2.412  26.395  0.00  0.00    +0.044 C 
ENDBRANCH   1  17
ENDBRANCH  16   1
ENDBRANCH  15  16
TORSDOF 5
ENDMDL
MODEL 10
REMARK VINA RESULT:      -2.6      2.691      5.057
REMARK  Name = 26744529
REMARK  7 active torsions:
REMARK  status: ('A' for Active; 'I' for Inactive)
REMARK    1  A    between atoms: S_1  and  C_16
REMARK    2  A    between atoms: S_1  and  C_17
REMARK    3  A    between atoms: O_2  and  C_11
REMARK    4  A    between atoms: N_6  and  C_14
REMARK    5  A    between atoms: C_9  and  C_13
REMARK    6  A    between atoms: C_15  and  C_16
REMARK    7  A    between atoms: C_20  and  C_23
REMARK                            x       y       z     vdW  Elec       q    Type
REMARK                         _______ _______ _______ _____ _____    ______ ____
ROOT
ATOM      3  O   UNL     1       0.112   1.078  24.075  0.00  0.00    -0.336 OA
ATOM      7  N   UNL     1      -1.025   0.324  25.852  0.00  0.00    -0.193 NA
ATOM      8  N   UNL     1       0.069  -0.315  23.946  0.00  0.00    -0.060 NA
ATOM     13  C   UNL     1      -0.554   1.371  25.223  0.00  0.00    +0.245 A 
ATOM     15  C   UNL     1      -0.617  -0.687  25.031  0.00  0.00    +0.193 A 
ENDROOT
BRANCH  13   9
ATOM      6  N   UNL     1      -0.873   3.706  24.419  0.00  0.00    -0.292 NA
ATOM      9  C   UNL     1      -0.652   2.837  25.592  0.00  0.00    +0.148 C 
ATOM     10  C   UNL     1      -1.836   3.136  26.532  0.00  0.00    +0.061 C 
ATOM     11  C   UNL     1      -2.640   4.217  25.821  0.00  0.00    +0.130 C 
ATOM     12  C   UNL     1      -1.626   4.864  24.896  0.00  0.00    +0.116 C 
ATOM     14  C   UNL     1       0.363   4.093  23.750  0.00  0.00    +0.105 C 
BRANCH  11   2
ATOM      2  O   UNL     1      -3.167   5.143  26.750  0.00  0.00    -0.390 OA
ATOM     24  H   UNL     1      -2.785   6.014  26.544  0.00  0.00    +0.210 HD
ENDBRANCH  11   2
ENDBRANCH  13   9
BRANCH  15  16
ATOM     16  C   UNL     1      -0.915  -2.095  25.318  0.00  0.00    +0.251 C 
BRANCH  16   1
ATOM      1  S   UNL     1      -2.513  -2.482  24.659  0.00  0.00    +0.004 S 
ATOM      4  O   UNL     1      -3.191  -3.325  25.625  0.00  0.00    -0.169 OA
ATOM      5  O   UNL     1      -2.351  -2.918  23.285  0.00  0.00    -0.169 OA
BRANCH   1  17
ATOM     17  C   UNL     1      -3.341  -0.922  24.614  0.00  0.00    +0.089 A 
ATOM     18  C   UNL     1      -3.208  -0.094  23.500  0.00  0.00    +0.027 A 
ATOM     19  C   UNL     1      -4.126  -0.518  25.694  0.00  0.00    +0.027 A 
ATOM     20  C   UNL     1      -4.644   1.544  24.545  0.00  0.00    -0.050 A 
ATOM     21  C   UNL     1      -3.859   1.140  23.465  0.00  0.00    +0.005 A 
ATOM     22  C   UNL     1      -4.777   0.716  25.660  0.00  0.00    +0.005 A 
ATOM     23  C   UNL     1      -5.340   2.861  24.509  0.00  0.00    +0.044 C 
ENDBRANCH   1  17
ENDBRANCH  16   1
ENDBRANCH  15  16
TORSDOF 5
ENDMDL
