MODEL 1
REMARK VINA RESULT:      -3.0      0.000      0.000
REMARK  Name = 11866366
REMARK  9 active torsions:
REMARK  status: ('A' for Active; 'I' for Inactive)
REMARK    1  A    between atoms: O_3  and  C_12
REMARK    2  A    between atoms: O_4  and  C_15
REMARK    3  A    between atoms: O_5  and  C_17
REMARK    4  A    between atoms: N_9  and  C_13
REMARK    5  A    between atoms: N_10  and  C_20
REMARK    6  A    between atoms: C_12  and  C_18
REMARK    7  A    between atoms: C_19  and  C_21
REMARK    8  A    between atoms: C_20  and  C_22
REMARK    9  A    between atoms: C_22  and  C_25
REMARK                            x       y       z     vdW  Elec       q    Type
REMARK                         _______ _______ _______ _____ _____    ______ ____
ROOT
ATOM     12  C   UNL     1      -3.320   1.917  24.241  0.00  0.00    +0.146 C 
ATOM     13  C   UNL     1      -0.946   2.710  23.803  0.00  0.00    +0.107 C 
ATOM     14  C   UNL     1      -1.865   1.503  24.013  0.00  0.00    +0.069 C 
ATOM     15  C   UNL     1      -1.076   3.732  24.941  0.00  0.00    +0.163 C 
ATOM     16  C   UNL     1      -3.438   2.918  25.388  0.00  0.00    +0.078 C 
ATOM     17  C   UNL     1      -2.532   4.134  25.187  0.00  0.00    +0.148 C 
ENDROOT
BRANCH  12  18
ATOM      6  O   UNL     1      -5.121   0.756  25.296  0.00  0.00    -0.273 OA
ATOM     10  N   UNL     1      -3.756  -0.397  23.804  0.00  0.00    -0.312 N 
ATOM     18  C   UNL     1      -4.176   0.716  24.512  0.00  0.00    +0.245 C 
ATOM     33  H   UNL     1      -2.947  -0.342  23.195  0.00  0.00    +0.149 HD
BRANCH  10  20
ATOM     20  C   UNL     1      -4.399  -1.688  23.906  0.00  0.00    +0.113 C 
BRANCH  20  22
ATOM     22  C   UNL     1      -3.510  -2.723  24.581  0.00  0.00    +0.114 C 
BRANCH  22  25
ATOM      8  O   UNL     1      -1.857  -1.458  25.832  0.00  0.00    -0.276 OA
ATOM     11  N   UNL     1      -1.175  -2.668  24.000  0.00  0.00    -0.329 N 
ATOM     25  C   UNL     1      -2.118  -2.208  24.895  0.00  0.00    +0.212 C 
ATOM     34  H   UNL     1      -1.414  -3.284  23.231  0.00  0.00    +0.145 HD
ATOM     35  H   UNL     1      -0.200  -2.401  24.086  0.00  0.00    +0.145 HD
ENDBRANCH  22  25
ENDBRANCH  20  22
ENDBRANCH  10  20
ENDBRANCH  12  18
BRANCH  13   9
ATOM      7  O   UNL     1      -0.060   0.085  23.052  0.00  0.00    -0.270 OA
ATOM      9  N   UNL     1       0.425   2.265  23.674  0.00  0.00    -0.306 N 
ATOM     19  C   UNL     1       0.751   0.971  23.305  0.00  0.00    +0.244 C 
ATOM     29  H   UNL     1       1.145   2.909  23.982  0.00  0.00    +0.149 HD
BRANCH  19  21
ATOM      1 CL   UNL     1       4.556  -2.464  23.942  0.00  0.00    -0.081 Cl
ATOM      2  F   UNL     1       6.213  -0.168  23.063  0.00  0.00    -0.204 F 
ATOM     21  C   UNL     1       2.204   0.664  23.242  0.00  0.00    +0.038 A 
ATOM     23  C   UNL     1       2.632  -0.602  23.583  0.00  0.00    +0.036 A 
ATOM     24  C   UNL     1       3.077   1.655  22.845  0.00  0.00    +0.016 A 
ATOM     26  C   UNL     1       3.995  -0.892  23.523  0.00  0.00    +0.077 A 
ATOM     27  C   UNL     1       4.440   1.366  22.785  0.00  0.00    +0.040 A 
ATOM     28  C   UNL     1       4.900   0.094  23.124  0.00  0.00    +0.142 A 
ENDBRANCH  19  21
ENDBRANCH  13   9
BRANCH  12   3
ATOM      3  O   UNL     1      -3.863   2.497  23.060  0.00  0.00    -0.379 OA
ATOM     30  H   UNL     1      -4.729   2.881  23.276  0.00  0.00    +0.211 HD
ENDBRANCH  12   3
BRANCH  15   4
ATOM      4  O   UNL     1      -0.353   4.916  24.591  0.00  0.00    -0.387 OA
ATOM     31  H   UNL     1      -0.935   5.676  24.758  0.00  0.00    +0.210 HD
ENDBRANCH  15   4
BRANCH  17   5
ATOM      5  O   UNL     1      -2.585   4.947  26.360  0.00  0.00    -0.389 OA
ATOM     32  H   UNL     1      -2.299   5.843  26.112  0.00  0.00    +0.210 HD
ENDBRANCH  17   5
TORSDOF 9
ENDMDL
MODEL 2
REMARK VINA RESULT:      -2.4      1.588      4.334
REMARK  Name = 11866366
REMARK  9 active torsions:
REMARK  status: ('A' for Active; 'I' for Inactive)
REMARK    1  A    between atoms: O_3  and  C_12
REMARK    2  A    between atoms: O_4  and  C_15
REMARK    3  A    between atoms: O_5  and  C_17
REMARK    4  A    between atoms: N_9  and  C_13
REMARK    5  A    between atoms: N_10  and  C_20
REMARK    6  A    between atoms: C_12  and  C_18
REMARK    7  A    between atoms: C_19  and  C_21
REMARK    8  A    between atoms: C_20  and  C_22
REMARK    9  A    between atoms: C_22  and  C_25
REMARK                            x       y       z     vdW  Elec       q    Type
REMARK                         _______ _______ _______ _____ _____    ______ ____
ROOT
ATOM     12  C   UNL     1      -3.716   0.134  25.114  0.00  0.00    +0.146 C 
ATOM     13  C   UNL     1      -1.464  -1.034  24.973  0.00  0.00    +0.107 C 
ATOM     14  C   UNL     1      -2.213   0.300  24.885  0.00  0.00    +0.069 C 
ATOM     15  C   UNL     1      -2.070  -2.091  24.040  0.00  0.00    +0.163 C 
ATOM     16  C   UNL     1      -4.310  -0.906  24.167  0.00  0.00    +0.078 C 
ATOM     17  C   UNL     1      -3.578  -2.246  24.251  0.00  0.00    +0.148 C 
ENDROOT
BRANCH  12  18
ATOM      6  O   UNL     1      -5.639   1.551  25.101  0.00  0.00    -0.273 OA
ATOM     10  N   UNL     1      -3.559   2.469  24.603  0.00  0.00    -0.312 N 
ATOM     18  C   UNL     1      -4.425   1.447  24.951  0.00  0.00    +0.245 C 
ATOM     33  H   UNL     1      -2.570   2.283  24.478  0.00  0.00    +0.149 HD
BRANCH  10  20
ATOM     20  C   UNL     1      -3.994   3.827  24.365  0.00  0.00    +0.113 C 
BRANCH  20  22
ATOM     22  C   UNL     1      -3.163   4.843  25.137  0.00  0.00    +0.114 C 
BRANCH  22  25
ATOM      8  O   UNL     1      -1.519   3.427  26.230  0.00  0.00    -0.276 OA
ATOM     11  N   UNL     1      -0.791   5.075  24.801  0.00  0.00    -0.329 N 
ATOM     25  C   UNL     1      -1.763   4.353  25.461  0.00  0.00    +0.212 C 
ATOM     34  H   UNL     1      -1.016   5.839  24.173  0.00  0.00    +0.145 HD
ATOM     35  H   UNL     1       0.193   4.860  24.925  0.00  0.00    +0.145 HD
ENDBRANCH  22  25
ENDBRANCH  20  22
ENDBRANCH  10  20
ENDBRANCH  12  18
BRANCH  13   9
ATOM      7  O   UNL     1      -0.389   0.505  22.801  0.00  0.00    -0.270 OA
ATOM      9  N   UNL     1      -0.064  -0.829  24.669  0.00  0.00    -0.306 N 
ATOM     19  C   UNL     1       0.356  -0.067  23.592  0.00  0.00    +0.244 C 
ATOM     29  H   UNL     1       0.604  -1.369  25.209  0.00  0.00    +0.149 HD
BRANCH  19  21
ATOM      1 CL   UNL     1       4.985  -2.339  23.898  0.00  0.00    -0.081 Cl
ATOM      2  F   UNL     1       5.881   0.290  22.862  0.00  0.00    -0.204 F 
ATOM     21  C   UNL     1       1.826   0.024  23.400  0.00  0.00    +0.038 A 
ATOM     23  C   UNL     1       2.607  -1.071  23.706  0.00  0.00    +0.036 A 
ATOM     24  C   UNL     1       2.363   1.201  22.921  0.00  0.00    +0.016 A 
ATOM     26  C   UNL     1       3.988  -0.987  23.525  0.00  0.00    +0.077 A 
ATOM     27  C   UNL     1       3.744   1.286  22.739  0.00  0.00    +0.040 A 
ATOM     28  C   UNL     1       4.556   0.193  23.041  0.00  0.00    +0.142 A 
ENDBRANCH  19  21
ENDBRANCH  13   9
BRANCH  12   3
ATOM      3  O   UNL     1      -3.975  -0.259  26.458  0.00  0.00    -0.379 OA
ATOM     30  H   UNL     1      -3.127  -0.456  26.890  0.00  0.00    +0.211 HD
ENDBRANCH  12   3
BRANCH  15   4
ATOM      4  O   UNL     1      -1.462  -3.357  24.313  0.00  0.00    -0.387 OA
ATOM     31  H   UNL     1      -2.130  -4.045  24.151  0.00  0.00    +0.210 HD
ENDBRANCH  15   4
BRANCH  17   5
ATOM      5  O   UNL     1      -4.090  -3.115  23.240  0.00  0.00    -0.389 OA
ATOM     32  H   UNL     1      -3.677  -3.987  23.363  0.00  0.00    +0.210 HD
ENDBRANCH  17   5
TORSDOF 9
ENDMDL
MODEL 3
REMARK VINA RESULT:      -0.6      1.075      1.411
REMARK  Name = 11866366
REMARK  9 active torsions:
REMARK  status: ('A' for Active; 'I' for Inactive)
REMARK    1  A    between atoms: O_3  and  C_12
REMARK    2  A    between atoms: O_4  and  C_15
REMARK    3  A    between atoms: O_5  and  C_17
REMARK    4  A    between atoms: N_9  and  C_13
REMARK    5  A    between atoms: N_10  and  C_20
REMARK    6  A    between atoms: C_12  and  C_18
REMARK    7  A    between atoms: C_19  and  C_21
REMARK    8  A    between atoms: C_20  and  C_22
REMARK    9  A    between atoms: C_22  and  C_25
REMARK                            x       y       z     vdW  Elec       q    Type
REMARK                         _______ _______ _______ _____ _____    ______ ____
ROOT
ATOM     12  C   UNL     1      -2.990   1.782  23.969  0.00  0.00    +0.146 C 
ATOM     13  C   UNL     1      -0.510   2.285  23.733  0.00  0.00    +0.107 C 
ATOM     14  C   UNL     1      -1.571   1.209  23.986  0.00  0.00    +0.069 C 
ATOM     15  C   UNL     1      -0.659   3.470  24.697  0.00  0.00    +0.163 C 
ATOM     16  C   UNL     1      -3.129   2.947  24.946  0.00  0.00    +0.078 C 
ATOM     17  C   UNL     1      -2.081   4.034  24.699  0.00  0.00    +0.148 C 
ENDROOT
BRANCH  12  18
ATOM      6  O   UNL     1      -4.975   0.938  24.995  0.00  0.00    -0.273 OA
ATOM     10  N   UNL     1      -3.664  -0.504  23.721  0.00  0.00    -0.312 N 
ATOM     18  C   UNL     1      -3.995   0.715  24.289  0.00  0.00    +0.245 C 
ATOM     33  H   UNL     1      -2.819  -0.599  23.170  0.00  0.00    +0.149 HD
BRANCH  10  20
ATOM     20  C   UNL     1      -4.458  -1.699  23.897  0.00  0.00    +0.113 C 
BRANCH  20  22
ATOM     22  C   UNL     1      -3.672  -2.820  24.562  0.00  0.00    +0.114 C 
BRANCH  22  25
ATOM      8  O   UNL     1      -1.849  -1.788  25.793  0.00  0.00    -0.276 OA
ATOM     11  N   UNL     1      -1.369  -2.963  23.876  0.00  0.00    -0.329 N 
ATOM     25  C   UNL     1      -2.222  -2.459  24.835  0.00  0.00    +0.212 C 
ATOM     34  H   UNL     1      -1.701  -3.513  23.090  0.00  0.00    +0.145 HD
ATOM     35  H   UNL     1      -0.370  -2.797  23.928  0.00  0.00    +0.145 HD
ENDBRANCH  22  25
ENDBRANCH  20  22
ENDBRANCH  10  20
ENDBRANCH  12  18
BRANCH  13   9
ATOM      7  O   UNL     1       0.498   0.038  22.259  0.00  0.00    -0.270 OA
ATOM      9  N   UNL     1       0.811   1.705  23.840  0.00  0.00    -0.306 N 
ATOM     19  C   UNL     1       1.203   0.615  23.082  0.00  0.00    +0.244 C 
ATOM     29  H   UNL     1       1.404   2.055  24.584  0.00  0.00    +0.149 HD
BRANCH  19  21
ATOM      1 CL   UNL     1       6.222   1.685  23.673  0.00  0.00    -0.081 Cl
ATOM      2  F   UNL     1       6.383  -1.256  24.010  0.00  0.00    -0.204 F 
ATOM     21  C   UNL     1       2.583   0.121  23.328  0.00  0.00    +0.038 A 
ATOM     23  C   UNL     1       3.618   1.032  23.376  0.00  0.00    +0.036 A 
ATOM     24  C   UNL     1       2.785  -1.232  23.502  0.00  0.00    +0.016 A 
ATOM     26  C   UNL     1       4.914   0.570  23.608  0.00  0.00    +0.077 A 
ATOM     27  C   UNL     1       4.080  -1.695  23.734  0.00  0.00    +0.040 A 
ATOM     28  C   UNL     1       5.144  -0.795  23.787  0.00  0.00    +0.142 A 
ENDBRANCH  19  21
ENDBRANCH  13   9
BRANCH  12   3
ATOM      3  O   UNL     1      -3.332   2.228  22.661  0.00  0.00    -0.379 OA
ATOM     30  H   UNL     1      -4.225   2.609  22.690  0.00  0.00    +0.211 HD
ENDBRANCH  12   3
BRANCH  15   4
ATOM      4  O   UNL     1       0.222   4.520  24.284  0.00  0.00    -0.387 OA
ATOM     31  H   UNL     1       0.828   4.152  23.621  0.00  0.00    +0.210 HD
ENDBRANCH  15   4
BRANCH  17   5
ATOM      5  O   UNL     1      -2.179   5.012  25.735  0.00  0.00    -0.389 OA
ATOM     32  H   UNL     1      -2.966   4.802  26.267  0.00  0.00    +0.210 HD
ENDBRANCH  17   5
TORSDOF 9
ENDMDL
