MODEL 1
REMARK VINA RESULT:      28.5      0.000      0.000
REMARK  Name = 7050394
REMARK  3 active torsions:
REMARK  status: ('A' for Active; 'I' for Inactive)
REMARK    1  A    between atoms: N_6  and  C_10
REMARK    2  A    between atoms: C_18  and  C_23
REMARK    3  A    between atoms: C_21  and  C_24
REMARK                            x       y       z     vdW  Elec       q    Type
REMARK                         _______ _______ _______ _____ _____    ______ ____
ROOT
ATOM      2  O   UNL     1       1.659  -1.095  20.535  0.00  0.00    -0.273 OA
ATOM      3  O   UNL     1      -0.488  -0.642  25.266  0.00  0.00    -0.270 OA
ATOM      5  N   UNL     1       1.197  -0.395  23.688  0.00  0.00    -0.286 N 
ATOM      7  N   UNL     1      -0.326  -0.153  21.164  0.00  0.00    -0.283 N 
ATOM      9  C   UNL     1       1.682   0.301  22.503  0.00  0.00    +0.164 C 
ATOM     10  C   UNL     1       3.944  -0.870  22.822  0.00  0.00    +0.077 C 
ATOM     11  C   UNL     1       3.209   0.400  22.398  0.00  0.00    +0.054 C 
ATOM     12  C   UNL     1       3.466  -1.295  24.205  0.00  0.00    +0.041 C 
ATOM     13  C   UNL     1       1.965  -1.535  24.197  0.00  0.00    +0.111 C 
ATOM     14  C   UNL     1       1.024  -0.401  21.329  0.00  0.00    +0.238 C 
ATOM     15  C   UNL     1      -0.075  -0.158  24.211  0.00  0.00    +0.249 C 
ATOM     16  C   UNL     1      -1.026   0.671  23.424  0.00  0.00    +0.059 A 
ATOM     17  C   UNL     1      -1.187   0.559  22.031  0.00  0.00    +0.046 A 
ATOM     19  C   UNL     1      -1.933   1.445  24.168  0.00  0.00    +0.023 A 
ATOM     20  C   UNL     1      -2.295   1.173  21.424  0.00  0.00    +0.024 A 
ATOM     21  C   UNL     1      -2.999   2.089  23.540  0.00  0.00    -0.017 A 
ATOM     22  C   UNL     1      -3.188   1.941  22.171  0.00  0.00    +0.010 A 
ATOM     35  H   UNL     1      -0.721  -0.429  20.267  0.00  0.00    +0.155 HD
ENDROOT
BRANCH  21  24
ATOM      1 CL   UNL     1      -6.800   5.378  26.737  0.00  0.00    -0.084 Cl
ATOM     24  C   UNL     1      -3.922   2.887  24.317  0.00  0.00    -0.018 A 
ATOM     27  C   UNL     1      -3.636   4.228  24.578  0.00  0.00    +0.010 A 
ATOM     28  C   UNL     1      -5.098   2.318  24.804  0.00  0.00    +0.010 A 
ATOM     30  C   UNL     1      -4.526   4.997  25.327  0.00  0.00    +0.020 A 
ATOM     31  C   UNL     1      -5.988   3.088  25.553  0.00  0.00    +0.020 A 
ATOM     33  C   UNL     1      -5.703   4.428  25.814  0.00  0.00    +0.041 A 
ENDBRANCH  21  24
BRANCH  10   6
ATOM      4  O   UNL     1       5.351   0.951  24.452  0.00  0.00    -0.270 OA
ATOM      6  N   UNL     1       5.373  -0.661  22.815  0.00  0.00    -0.308 N 
ATOM     18  C   UNL     1       5.993   0.263  23.657  0.00  0.00    +0.246 C 
ATOM     34  H   UNL     1       5.918  -1.213  22.162  0.00  0.00    +0.149 HD
BRANCH  18  23
ATOM      8  N   UNL     1       9.499  -0.577  22.682  0.00  0.00    -0.263 NA
ATOM     23  C   UNL     1       7.458   0.338  23.556  0.00  0.00    +0.055 A 
ATOM     25  C   UNL     1       8.153   1.341  24.204  0.00  0.00    +0.016 A 
ATOM     26  C   UNL     1       8.155  -0.589  22.815  0.00  0.00    +0.123 A 
ATOM     29  C   UNL     1       9.538   1.387  24.091  0.00  0.00    +0.020 A 
ATOM     32  C   UNL     1      10.158   0.413  23.325  0.00  0.00    +0.111 A 
ENDBRANCH  18  23
ENDBRANCH  10   6
TORSDOF 3
ENDMDL
MODEL 2
REMARK VINA RESULT:      29.8      3.938     10.584
REMARK  Name = 7050394
REMARK  3 active torsions:
REMARK  status: ('A' for Active; 'I' for Inactive)
REMARK    1  A    between atoms: N_6  and  C_10
REMARK    2  A    between atoms: C_18  and  C_23
REMARK    3  A    between atoms: C_21  and  C_24
REMARK                            x       y       z     vdW  Elec       q    Type
REMARK                         _______ _______ _______ _____ _____    ______ ____
ROOT
ATOM      2  O   UNL     1      -0.878  -1.795  24.757  0.00  0.00    -0.273 OA
ATOM      3  O   UNL     1       2.252   0.155  21.069  0.00  0.00    -0.270 OA
ATOM      5  N   UNL     1       0.668   0.273  22.763  0.00  0.00    -0.286 N 
ATOM      7  N   UNL     1       1.374  -2.046  24.457  0.00  0.00    -0.283 N 
ATOM      9  C   UNL     1       0.380   0.184  24.189  0.00  0.00    +0.164 C 
ATOM     10  C   UNL     1      -1.982   1.062  23.700  0.00  0.00    +0.077 C 
ATOM     11  C   UNL     1      -0.794   1.049  24.661  0.00  0.00    +0.054 C 
ATOM     12  C   UNL     1      -1.498   1.423  22.300  0.00  0.00    +0.041 C 
ATOM     13  C   UNL     1      -0.452   0.427  21.829  0.00  0.00    +0.111 C 
ATOM     14  C   UNL     1       0.212  -1.299  24.470  0.00  0.00    +0.238 C 
ATOM     15  C   UNL     1       1.934  -0.007  22.248  0.00  0.00    +0.249 C 
ATOM     16  C   UNL     1       2.954  -0.605  23.152  0.00  0.00    +0.059 A 
ATOM     17  C   UNL     1       2.669  -1.624  24.078  0.00  0.00    +0.046 A 
ATOM     19  C   UNL     1       4.290  -0.253  22.894  0.00  0.00    +0.023 A 
ATOM     20  C   UNL     1       3.737  -2.314  24.677  0.00  0.00    +0.024 A 
ATOM     21  C   UNL     1       5.335  -0.916  23.537  0.00  0.00    -0.017 A 
ATOM     22  C   UNL     1       5.059  -1.955  24.417  0.00  0.00    +0.010 A 
ATOM     35  H   UNL     1       1.306  -2.978  24.861  0.00  0.00    +0.155 HD
ENDROOT
BRANCH  21  24
ATOM      1 CL   UNL     1      10.980   0.634  22.427  0.00  0.00    -0.084 Cl
ATOM     24  C   UNL     1       6.706  -0.540  23.266  0.00  0.00    -0.018 A 
ATOM     27  C   UNL     1       7.226   0.637  23.808  0.00  0.00    +0.010 A 
ATOM     28  C   UNL     1       7.507  -1.351  22.465  0.00  0.00    +0.010 A 
ATOM     30  C   UNL     1       8.547   0.999  23.548  0.00  0.00    +0.020 A 
ATOM     31  C   UNL     1       8.829  -0.989  22.205  0.00  0.00    +0.020 A 
ATOM     33  C   UNL     1       9.350   0.186  22.746  0.00  0.00    +0.041 A 
ENDBRANCH  21  24
BRANCH  10   6
ATOM      4  O   UNL     1      -4.249   0.413  25.248  0.00  0.00    -0.270 OA
ATOM      6  N   UNL     1      -2.992   1.991  24.149  0.00  0.00    -0.308 N 
ATOM     18  C   UNL     1      -4.087   1.588  24.914  0.00  0.00    +0.246 C 
ATOM     34  H   UNL     1      -2.880   2.962  23.878  0.00  0.00    +0.149 HD
BRANCH  18  23
ATOM      8  N   UNL     1      -7.019   3.296  26.474  0.00  0.00    -0.263 NA
ATOM     23  C   UNL     1      -5.011   2.656  25.321  0.00  0.00    +0.055 A 
ATOM     25  C   UNL     1      -4.767   3.967  24.961  0.00  0.00    +0.016 A 
ATOM     26  C   UNL     1      -6.130   2.363  26.068  0.00  0.00    +0.123 A 
ATOM     29  C   UNL     1      -5.659   4.956  25.360  0.00  0.00    +0.020 A 
ATOM     32  C   UNL     1      -6.760   4.572  26.109  0.00  0.00    +0.111 A 
ENDBRANCH  18  23
ENDBRANCH  10   6
TORSDOF 3
ENDMDL
