MODEL 1
REMARK VINA RESULT:       1.5      0.000      0.000
REMARK  Name = 25390041
REMARK  8 active torsions:
REMARK  status: ('A' for Active; 'I' for Inactive)
REMARK    1  A    between atoms: N_3  and  C_9
REMARK    2  A    between atoms: N_4  and  C_18
REMARK    3  A    between atoms: N_6  and  C_19
REMARK    4  A    between atoms: C_7  and  C_10
REMARK    5  A    between atoms: C_13  and  C_15
REMARK    6  A    between atoms: C_14  and  C_16
REMARK    7  A    between atoms: C_19  and  C_22
REMARK    8  A    between atoms: C_19  and  C_23
REMARK                            x       y       z     vdW  Elec       q    Type
REMARK                         _______ _______ _______ _____ _____    ______ ____
ROOT
ATOM      7  C   UNL     1      -1.686   1.621  24.369  0.00  0.00    +0.047 C 
ATOM      8  C   UNL     1      -1.521   2.540  25.598  0.00  0.00    +0.039 C 
ATOM      9  C   UNL     1      -2.238   3.848  25.243  0.00  0.00    +0.098 C 
ATOM     11  C   UNL     1      -1.969   2.602  23.269  0.00  0.00    -0.021 C 
ATOM     12  C   UNL     1      -2.273   3.813  23.750  0.00  0.00    -0.009 C 
ENDROOT
BRANCH   7  10
ATOM      4  N   UNL     1       1.510  -0.052  23.736  0.00  0.00    -0.236 N 
ATOM      5  N   UNL     1       0.763  -1.163  23.857  0.00  0.00    -0.171 NA
ATOM     10  C   UNL     1      -0.493   0.726  24.127  0.00  0.00    +0.003 A 
ATOM     13  C   UNL     1       0.806   1.106  23.889  0.00  0.00    +0.046 A 
ATOM     14  C   UNL     1      -0.460  -0.681  24.096  0.00  0.00    +0.064 A 
ATOM     15  C   UNL     1       1.419   2.445  23.799  0.00  0.00    +0.066 C 
ATOM     16  C   UNL     1      -1.582  -1.616  24.292  0.00  0.00    +0.068 C 
BRANCH   4  18
ATOM      1  F   UNL     1       6.920  -0.490  22.706  0.00  0.00    -0.205 F 
ATOM     18  C   UNL     1       2.876  -0.162  23.476  0.00  0.00    +0.066 A 
ATOM     20  C   UNL     1       3.583  -1.280  23.922  0.00  0.00    +0.030 A 
ATOM     21  C   UNL     1       3.536   0.843  22.769  0.00  0.00    +0.030 A 
ATOM     24  C   UNL     1       4.949  -1.390  23.662  0.00  0.00    +0.040 A 
ATOM     25  C   UNL     1       4.901   0.732  22.509  0.00  0.00    +0.040 A 
ATOM     26  C   UNL     1       5.609  -0.384  22.955  0.00  0.00    +0.124 A 
ENDBRANCH   4  18
ENDBRANCH   7  10
BRANCH   9   3
ATOM      2  O   UNL     1      -4.253   1.792  25.032  0.00  0.00    -0.253 OA
ATOM      3  N   UNL     1      -3.585   3.898  25.745  0.00  0.00    -0.293 N 
ATOM      6  N   UNL     1      -5.728   3.167  26.177  0.00  0.00    -0.297 N 
ATOM     17  C   UNL     1      -4.501   2.854  25.599  0.00  0.00    +0.300 C 
ATOM     27  H   UNL     1      -3.911   4.754  26.188  0.00  0.00    +0.151 HD
ATOM     28  H   UNL     1      -5.812   4.040  26.690  0.00  0.00    +0.150 HD
BRANCH   6  19
ATOM     19  C   UNL     1      -6.852   2.260  26.168  0.00  0.00    +0.068 C 
ATOM     22  C   UNL     1      -6.745   1.274  27.325  0.00  0.00    +0.027 C 
ATOM     23  C   UNL     1      -6.945   1.536  24.832  0.00  0.00    +0.027 C 
ENDBRANCH   6  19
ENDBRANCH   9   3
TORSDOF 4
ENDMDL
MODEL 2
REMARK VINA RESULT:       1.6      1.616      2.507
REMARK  Name = 25390041
REMARK  8 active torsions:
REMARK  status: ('A' for Active; 'I' for Inactive)
REMARK    1  A    between atoms: N_3  and  C_9
REMARK    2  A    between atoms: N_4  and  C_18
REMARK    3  A    between atoms: N_6  and  C_19
REMARK    4  A    between atoms: C_7  and  C_10
REMARK    5  A    between atoms: C_13  and  C_15
REMARK    6  A    between atoms: C_14  and  C_16
REMARK    7  A    between atoms: C_19  and  C_22
REMARK    8  A    between atoms: C_19  and  C_23
REMARK                            x       y       z     vdW  Elec       q    Type
REMARK                         _______ _______ _______ _____ _____    ______ ____
ROOT
ATOM      7  C   UNL     1      -2.310   0.110  24.839  0.00  0.00    +0.047 C 
ATOM      8  C   UNL     1      -3.372   0.151  23.719  0.00  0.00    +0.039 C 
ATOM      9  C   UNL     1      -4.710  -0.161  24.399  0.00  0.00    +0.098 C 
ATOM     11  C   UNL     1      -2.984  -0.721  25.891  0.00  0.00    -0.021 C 
ATOM     12  C   UNL     1      -4.291  -0.863  25.650  0.00  0.00    -0.009 C 
ENDROOT
BRANCH   7  10
ATOM      4  N   UNL     1       1.127  -0.627  23.810  0.00  0.00    -0.236 N 
ATOM      5  N   UNL     1       0.628  -1.860  23.615  0.00  0.00    -0.171 NA
ATOM     10  C   UNL     1      -0.972  -0.418  24.376  0.00  0.00    +0.003 A 
ATOM     13  C   UNL     1       0.210   0.274  24.266  0.00  0.00    +0.046 A 
ATOM     14  C   UNL     1      -0.655  -1.726  23.962  0.00  0.00    +0.064 A 
ATOM     15  C   UNL     1       0.533   1.685  24.552  0.00  0.00    +0.066 C 
ATOM     16  C   UNL     1      -1.553  -2.891  23.882  0.00  0.00    +0.068 C 
BRANCH   4  18
ATOM      1  F   UNL     1       6.460   0.364  22.763  0.00  0.00    -0.205 F 
ATOM     18  C   UNL     1       2.473  -0.377  23.546  0.00  0.00    +0.066 A 
ATOM     20  C   UNL     1       3.444  -1.303  23.929  0.00  0.00    +0.030 A 
ATOM     21  C   UNL     1       2.851   0.799  22.897  0.00  0.00    +0.030 A 
ATOM     24  C   UNL     1       4.790  -1.053  23.665  0.00  0.00    +0.040 A 
ATOM     25  C   UNL     1       4.197   1.049  22.633  0.00  0.00    +0.040 A 
ATOM     26  C   UNL     1       5.168   0.123  23.017  0.00  0.00    +0.124 A 
ENDBRANCH   4  18
ENDBRANCH   7  10
BRANCH   9   3
ATOM      2  O   UNL     1      -3.626   2.393  25.192  0.00  0.00    -0.253 OA
ATOM      3  N   UNL     1      -5.447   1.024  24.747  0.00  0.00    -0.293 N 
ATOM      6  N   UNL     1      -5.788   3.206  25.405  0.00  0.00    -0.297 N 
ATOM     17  C   UNL     1      -4.842   2.225  25.122  0.00  0.00    +0.300 C 
ATOM     27  H   UNL     1      -6.463   0.979  24.770  0.00  0.00    +0.151 HD
ATOM     28  H   UNL     1      -6.768   2.993  25.243  0.00  0.00    +0.150 HD
BRANCH   6  19
ATOM     19  C   UNL     1      -5.430   4.543  25.816  0.00  0.00    +0.068 C 
ATOM     22  C   UNL     1      -6.431   5.552  25.268  0.00  0.00    +0.027 C 
ATOM     23  C   UNL     1      -4.011   4.877  25.374  0.00  0.00    +0.027 C 
ENDBRANCH   6  19
ENDBRANCH   9   3
TORSDOF 4
ENDMDL
MODEL 3
REMARK VINA RESULT:       1.8      3.893      8.909
REMARK  Name = 25390041
REMARK  8 active torsions:
REMARK  status: ('A' for Active; 'I' for Inactive)
REMARK    1  A    between atoms: N_3  and  C_9
REMARK    2  A    between atoms: N_4  and  C_18
REMARK    3  A    between atoms: N_6  and  C_19
REMARK    4  A    between atoms: C_7  and  C_10
REMARK    5  A    between atoms: C_13  and  C_15
REMARK    6  A    between atoms: C_14  and  C_16
REMARK    7  A    between atoms: C_19  and  C_22
REMARK    8  A    between atoms: C_19  and  C_23
REMARK                            x       y       z     vdW  Elec       q    Type
REMARK                         _______ _______ _______ _____ _____    ______ ____
ROOT
ATOM      7  C   UNL     1       0.179   0.397  24.376  0.00  0.00    +0.047 C 
ATOM      8  C   UNL     1       0.403  -0.649  23.263  0.00  0.00    +0.039 C 
ATOM      9  C   UNL     1       1.678  -0.215  22.531  0.00  0.00    +0.098 C 
ATOM     11  C   UNL     1       0.961   1.575  23.873  0.00  0.00    -0.021 C 
ATOM     12  C   UNL     1       1.778   1.236  22.870  0.00  0.00    -0.009 C 
ENDROOT
BRANCH   7  10
ATOM      4  N   UNL     1      -3.209   1.638  25.007  0.00  0.00    -0.236 N 
ATOM      5  N   UNL     1      -3.499   0.327  25.065  0.00  0.00    -0.171 NA
ATOM     10  C   UNL     1      -1.281   0.676  24.650  0.00  0.00    +0.003 A 
ATOM     13  C   UNL     1      -1.894   1.901  24.760  0.00  0.00    +0.046 A 
ATOM     14  C   UNL     1      -2.317  -0.256  24.846  0.00  0.00    +0.064 A 
ATOM     15  C   UNL     1      -1.348   3.268  24.651  0.00  0.00    +0.066 C 
ATOM     16  C   UNL     1      -2.226  -1.726  24.833  0.00  0.00    +0.068 C 
BRANCH   4  18
ATOM      1  F   UNL     1      -7.218   5.367  25.747  0.00  0.00    -0.205 F 
ATOM     18  C   UNL     1      -4.221   2.579  25.194  0.00  0.00    +0.066 A 
ATOM     20  C   UNL     1      -3.970   3.931  24.955  0.00  0.00    +0.030 A 
ATOM     21  C   UNL     1      -5.485   2.170  25.618  0.00  0.00    +0.030 A 
ATOM     24  C   UNL     1      -4.982   4.872  25.142  0.00  0.00    +0.040 A 
ATOM     25  C   UNL     1      -6.497   3.112  25.805  0.00  0.00    +0.040 A 
ATOM     26  C   UNL     1      -6.246   4.463  25.567  0.00  0.00    +0.124 A 
ENDBRANCH   4  18
ENDBRANCH   7  10
BRANCH   9   3
ATOM      2  O   UNL     1       4.251   0.956  23.111  0.00  0.00    -0.253 OA
ATOM      3  N   UNL     1       2.852  -0.894  23.009  0.00  0.00    -0.293 N 
ATOM      6  N   UNL     1       5.032  -1.142  23.716  0.00  0.00    -0.297 N 
ATOM     17  C   UNL     1       4.064  -0.249  23.265  0.00  0.00    +0.300 C 
ATOM     27  H   UNL     1       2.821  -1.905  23.123  0.00  0.00    +0.151 HD
ATOM     28  H   UNL     1       4.759  -2.106  23.884  0.00  0.00    +0.150 HD
BRANCH   6  19
ATOM     19  C   UNL     1       6.376  -0.735  24.055  0.00  0.00    +0.068 C 
ATOM     22  C   UNL     1       6.363   0.642  24.707  0.00  0.00    +0.027 C 
ATOM     23  C   UNL     1       7.268  -0.753  22.821  0.00  0.00    +0.027 C 
ENDBRANCH   6  19
ENDBRANCH   9   3
TORSDOF 4
ENDMDL
