MODEL 1
REMARK VINA RESULT:      -3.3      0.000      0.000
REMARK  Name = 11943122
REMARK  6 active torsions:
REMARK  status: ('A' for Active; 'I' for Inactive)
REMARK    1  A    between atoms: O_1  and  C_13
REMARK    2  A    between atoms: O_1  and  C_15
REMARK    3  A    between atoms: N_4  and  C_16
REMARK    4  A    between atoms: C_6  and  C_12
REMARK    5  A    between atoms: C_8  and  C_13
REMARK    6  A    between atoms: C_12  and  C_14
REMARK                            x       y       z     vdW  Elec       q    Type
REMARK                         _______ _______ _______ _____ _____    ______ ____
ROOT
ATOM      2  O   UNL     1       0.436   1.257  23.945  0.00  0.00    -0.226 OA
ATOM      4  N   UNL     1      -1.195   1.560  25.596  0.00  0.00    -0.251 N 
ATOM     15  C   UNL     1      -0.251   0.855  24.876  0.00  0.00    +0.405 C 
ATOM     26  H   UNL     1      -1.647   1.023  26.327  0.00  0.00    +0.158 HD
ENDROOT
BRANCH   4  16
ATOM     16  C   UNL     1      -1.588   2.907  25.429  0.00  0.00    +0.044 A 
ATOM     17  C   UNL     1      -2.934   3.282  25.474  0.00  0.00    +0.003 A 
ATOM     18  C   UNL     1      -0.579   3.839  25.219  0.00  0.00    +0.024 A 
ATOM     19  C   UNL     1      -3.268   4.646  25.300  0.00  0.00    -0.016 A 
ATOM     20  C   UNL     1      -3.959   2.346  25.685  0.00  0.00    +0.010 A 
ATOM     21  C   UNL     1      -0.908   5.180  25.048  0.00  0.00    +0.002 A 
ATOM     22  C   UNL     1      -2.244   5.583  25.088  0.00  0.00    +0.008 A 
ATOM     23  C   UNL     1      -4.618   5.033  25.343  0.00  0.00    +0.008 A 
ATOM     24  C   UNL     1      -5.294   2.749  25.726  0.00  0.00    +0.001 A 
ATOM     25  C   UNL     1      -5.623   4.090  25.554  0.00  0.00    +0.001 A 
ENDBRANCH   4  16
BRANCH  15   1
ATOM      1  O   UNL     1      -0.173  -0.432  25.360  0.00  0.00    -0.449 OA
BRANCH   1  13
ATOM     13  C   UNL     1      -1.102  -0.791  26.365  0.00  0.00    +0.252 C 
BRANCH  13   8
ATOM      3  N   UNL     1      -1.768  -2.174  24.381  0.00  0.00    -0.296 NA
ATOM      5  C   UNL     1      -4.226  -1.325  24.375  0.00  0.00    -0.004 C 
ATOM      6  C   UNL     1      -3.403  -0.639  23.260  0.00  0.00    +0.006 C 
ATOM      7  C   UNL     1      -3.554  -1.068  25.736  0.00  0.00    +0.026 C 
ATOM      8  C   UNL     1      -2.151  -1.716  25.743  0.00  0.00    +0.094 C 
ATOM      9  C   UNL     1      -1.927  -1.071  23.403  0.00  0.00    +0.088 C 
ATOM     10  C   UNL     1      -4.160  -2.841  24.112  0.00  0.00    +0.019 C 
ATOM     11  C   UNL     1      -2.687  -3.271  23.992  0.00  0.00    +0.085 C 
BRANCH   6  12
ATOM     12  C   UNL     1      -3.548   0.881  23.253  0.00  0.00    +0.002 C 
ATOM     14  C   UNL     1      -2.608   1.521  22.251  0.00  0.00    +0.004 C 
ENDBRANCH   6  12
ENDBRANCH  13   8
ENDBRANCH   1  13
ENDBRANCH  15   1
TORSDOF 5
ENDMDL
MODEL 2
REMARK VINA RESULT:      -3.3      1.279      2.283
REMARK  Name = 11943122
REMARK  6 active torsions:
REMARK  status: ('A' for Active; 'I' for Inactive)
REMARK    1  A    between atoms: O_1  and  C_13
REMARK    2  A    between atoms: O_1  and  C_15
REMARK    3  A    between atoms: N_4  and  C_16
REMARK    4  A    between atoms: C_6  and  C_12
REMARK    5  A    between atoms: C_8  and  C_13
REMARK    6  A    between atoms: C_12  and  C_14
REMARK                            x       y       z     vdW  Elec       q    Type
REMARK                         _______ _______ _______ _____ _____    ______ ____
ROOT
ATOM      2  O   UNL     1       0.980   1.906  24.886  0.00  0.00    -0.226 OA
ATOM      4  N   UNL     1      -1.008   2.157  23.677  0.00  0.00    -0.251 N 
ATOM     15  C   UNL     1       0.217   1.596  23.979  0.00  0.00    +0.405 C 
ATOM     26  H   UNL     1      -1.470   1.740  22.877  0.00  0.00    +0.158 HD
ENDROOT
BRANCH   4  16
ATOM     16  C   UNL     1      -1.668   3.216  24.341  0.00  0.00    +0.044 A 
ATOM     17  C   UNL     1      -3.017   3.123  24.694  0.00  0.00    +0.003 A 
ATOM     18  C   UNL     1      -0.916   4.349  24.624  0.00  0.00    +0.024 A 
ATOM     19  C   UNL     1      -3.625   4.216  25.357  0.00  0.00    -0.016 A 
ATOM     20  C   UNL     1      -3.783   1.981  24.409  0.00  0.00    +0.010 A 
ATOM     21  C   UNL     1      -1.514   5.423  25.276  0.00  0.00    +0.002 A 
ATOM     22  C   UNL     1      -2.860   5.359  25.641  0.00  0.00    +0.008 A 
ATOM     23  C   UNL     1      -4.980   4.134  25.716  0.00  0.00    +0.008 A 
ATOM     24  C   UNL     1      -5.128   1.917  24.775  0.00  0.00    +0.001 A 
ATOM     25  C   UNL     1      -5.726   2.992  25.426  0.00  0.00    +0.001 A 
ENDBRANCH   4  16
BRANCH  15   1
ATOM      1  O   UNL     1       0.492   0.587  23.084  0.00  0.00    -0.449 OA
BRANCH   1  13
ATOM     13  C   UNL     1      -0.206  -0.631  23.262  0.00  0.00    +0.252 C 
BRANCH  13   8
ATOM      3  N   UNL     1      -0.841  -1.505  25.526  0.00  0.00    -0.296 NA
ATOM      5  C   UNL     1      -3.397  -1.392  25.063  0.00  0.00    -0.004 C 
ATOM      6  C   UNL     1      -2.882  -2.846  24.961  0.00  0.00    +0.006 C 
ATOM      7  C   UNL     1      -2.616  -0.504  24.077  0.00  0.00    +0.026 C 
ATOM      8  C   UNL     1      -1.123  -0.487  24.479  0.00  0.00    +0.094 C 
ATOM      9  C   UNL     1      -1.344  -2.833  25.101  0.00  0.00    +0.088 C 
ATOM     10  C   UNL     1      -3.066  -0.898  26.484  0.00  0.00    +0.019 C 
ATOM     11  C   UNL     1      -1.566  -1.108  26.757  0.00  0.00    +0.085 C 
BRANCH   6  12
ATOM     12  C   UNL     1      -3.326  -3.555  23.684  0.00  0.00    +0.002 C 
ATOM     14  C   UNL     1      -4.656  -3.020  23.189  0.00  0.00    +0.004 C 
ENDBRANCH   6  12
ENDBRANCH  13   8
ENDBRANCH   1  13
ENDBRANCH  15   1
TORSDOF 5
ENDMDL
MODEL 3
REMARK VINA RESULT:      -3.1      1.468      5.647
REMARK  Name = 11943122
REMARK  6 active torsions:
REMARK  status: ('A' for Active; 'I' for Inactive)
REMARK    1  A    between atoms: O_1  and  C_13
REMARK    2  A    between atoms: O_1  and  C_15
REMARK    3  A    between atoms: N_4  and  C_16
REMARK    4  A    between atoms: C_6  and  C_12
REMARK    5  A    between atoms: C_8  and  C_13
REMARK    6  A    between atoms: C_12  and  C_14
REMARK                            x       y       z     vdW  Elec       q    Type
REMARK                         _______ _______ _______ _____ _____    ______ ____
ROOT
ATOM      2  O   UNL     1       0.812   1.177  23.824  0.00  0.00    -0.226 OA
ATOM      4  N   UNL     1      -0.531   0.499  25.618  0.00  0.00    -0.251 N 
ATOM     15  C   UNL     1       0.264   1.372  24.902  0.00  0.00    +0.405 C 
ATOM     26  H   UNL     1      -0.880   0.875  26.491  0.00  0.00    +0.158 HD
ENDROOT
BRANCH   4  16
ATOM     16  C   UNL     1      -0.898  -0.823  25.275  0.00  0.00    +0.044 A 
ATOM     17  C   UNL     1      -2.173  -1.118  24.785  0.00  0.00    +0.003 A 
ATOM     18  C   UNL     1       0.063  -1.811  25.449  0.00  0.00    +0.024 A 
ATOM     19  C   UNL     1      -2.484  -2.459  24.459  0.00  0.00    -0.016 A 
ATOM     20  C   UNL     1      -3.150  -0.124  24.608  0.00  0.00    +0.010 A 
ATOM     21  C   UNL     1      -0.243  -3.129  25.129  0.00  0.00    +0.002 A 
ATOM     22  C   UNL     1      -1.509  -3.454  24.637  0.00  0.00    +0.008 A 
ATOM     23  C   UNL     1      -3.763  -2.768  23.966  0.00  0.00    +0.008 A 
ATOM     24  C   UNL     1      -4.414  -0.449  24.116  0.00  0.00    +0.001 A 
ATOM     25  C   UNL     1      -4.721  -1.768  23.796  0.00  0.00    +0.001 A 
ENDBRANCH   4  16
BRANCH  15   1
ATOM      1  O   UNL     1       0.371   2.561  25.589  0.00  0.00    -0.449 OA
BRANCH   1  13
ATOM     13  C   UNL     1      -0.819   3.081  26.152  0.00  0.00    +0.252 C 
BRANCH  13   8
ATOM      3  N   UNL     1      -2.330   4.999  25.580  0.00  0.00    -0.296 NA
ATOM      5  C   UNL     1      -3.884   3.570  24.062  0.00  0.00    -0.004 C 
ATOM      6  C   UNL     1      -4.544   3.832  25.435  0.00  0.00    +0.006 C 
ATOM      7  C   UNL     1      -2.526   2.877  24.273  0.00  0.00    +0.026 C 
ATOM      8  C   UNL     1      -1.587   3.823  25.056  0.00  0.00    +0.094 C 
ATOM      9  C   UNL     1      -3.523   4.557  26.341  0.00  0.00    +0.088 C 
ATOM     10  C   UNL     1      -3.601   4.947  23.431  0.00  0.00    +0.019 C 
ATOM     11  C   UNL     1      -2.792   5.802  24.422  0.00  0.00    +0.085 C 
BRANCH   6  12
ATOM     12  C   UNL     1      -5.084   2.566  26.095  0.00  0.00    +0.002 C 
ATOM     14  C   UNL     1      -6.243   1.984  25.309  0.00  0.00    +0.004 C 
ENDBRANCH   6  12
ENDBRANCH  13   8
ENDBRANCH   1  13
ENDBRANCH  15   1
TORSDOF 5
ENDMDL
MODEL 4
REMARK VINA RESULT:      -3.1      1.397      5.362
REMARK  Name = 11943122
REMARK  6 active torsions:
REMARK  status: ('A' for Active; 'I' for Inactive)
REMARK    1  A    between atoms: O_1  and  C_13
REMARK    2  A    between atoms: O_1  and  C_15
REMARK    3  A    between atoms: N_4  and  C_16
REMARK    4  A    between atoms: C_6  and  C_12
REMARK    5  A    between atoms: C_8  and  C_13
REMARK    6  A    between atoms: C_12  and  C_14
REMARK                            x       y       z     vdW  Elec       q    Type
REMARK                         _______ _______ _______ _____ _____    ______ ____
ROOT
ATOM      2  O   UNL     1       0.553   1.647  24.282  0.00  0.00    -0.226 OA
ATOM      4  N   UNL     1      -0.936   0.743  25.846  0.00  0.00    -0.251 N 
ATOM     15  C   UNL     1      -0.168   1.735  25.268  0.00  0.00    +0.405 C 
ATOM     26  H   UNL     1      -1.456   1.042  26.662  0.00  0.00    +0.158 HD
ENDROOT
BRANCH   4  16
ATOM     16  C   UNL     1      -1.071  -0.603  25.435  0.00  0.00    +0.044 A 
ATOM     17  C   UNL     1      -2.273  -1.084  24.910  0.00  0.00    +0.003 A 
ATOM     18  C   UNL     1       0.042  -1.422  25.578  0.00  0.00    +0.024 A 
ATOM     19  C   UNL     1      -2.350  -2.441  24.515  0.00  0.00    -0.016 A 
ATOM     20  C   UNL     1      -3.403  -0.262  24.763  0.00  0.00    +0.010 A 
ATOM     21  C   UNL     1      -0.034  -2.756  25.190  0.00  0.00    +0.002 A 
ATOM     22  C   UNL     1      -1.222  -3.264  24.662  0.00  0.00    +0.008 A 
ATOM     23  C   UNL     1      -3.553  -2.936  23.986  0.00  0.00    +0.008 A 
ATOM     24  C   UNL     1      -4.589  -0.771  24.235  0.00  0.00    +0.001 A 
ATOM     25  C   UNL     1      -4.665  -2.105  23.848  0.00  0.00    +0.001 A 
ENDBRANCH   4  16
BRANCH  15   1
ATOM      1  O   UNL     1      -0.321   2.904  25.980  0.00  0.00    -0.449 OA
BRANCH   1  13
ATOM     13  C   UNL     1      -0.687   4.054  25.243  0.00  0.00    +0.252 C 
BRANCH  13   8
ATOM      3  N   UNL     1      -2.942   3.153  25.872  0.00  0.00    -0.296 NA
ATOM      5  C   UNL     1      -4.215   4.581  24.110  0.00  0.00    -0.004 C 
ATOM      6  C   UNL     1      -4.078   3.116  23.638  0.00  0.00    +0.006 C 
ATOM      7  C   UNL     1      -2.815   5.160  24.387  0.00  0.00    +0.026 C 
ATOM      8  C   UNL     1      -2.155   4.371  25.539  0.00  0.00    +0.094 C 
ATOM      9  C   UNL     1      -3.193   2.353  24.650  0.00  0.00    +0.088 C 
ATOM     10  C   UNL     1      -4.969   4.550  25.453  0.00  0.00    +0.019 C 
ATOM     11  C   UNL     1      -4.250   3.590  26.416  0.00  0.00    +0.085 C 
BRANCH   6  12
ATOM     12  C   UNL     1      -3.542   2.989  22.213  0.00  0.00    +0.002 C 
ATOM     14  C   UNL     1      -2.423   1.969  22.132  0.00  0.00    +0.004 C 
ENDBRANCH   6  12
ENDBRANCH  13   8
ENDBRANCH   1  13
ENDBRANCH  15   1
TORSDOF 5
ENDMDL
MODEL 5
REMARK VINA RESULT:      -2.8      1.221      2.179
REMARK  Name = 11943122
REMARK  6 active torsions:
REMARK  status: ('A' for Active; 'I' for Inactive)
REMARK    1  A    between atoms: O_1  and  C_13
REMARK    2  A    between atoms: O_1  and  C_15
REMARK    3  A    between atoms: N_4  and  C_16
REMARK    4  A    between atoms: C_6  and  C_12
REMARK    5  A    between atoms: C_8  and  C_13
REMARK    6  A    between atoms: C_12  and  C_14
REMARK                            x       y       z     vdW  Elec       q    Type
REMARK                         _______ _______ _______ _____ _____    ______ ____
ROOT
ATOM      2  O   UNL     1       1.176   1.741  24.236  0.00  0.00    -0.226 OA
ATOM      4  N   UNL     1      -1.128   1.773  23.823  0.00  0.00    -0.251 N 
ATOM     15  C   UNL     1       0.145   1.239  23.805  0.00  0.00    +0.405 C 
ATOM     26  H   UNL     1      -1.835   1.179  23.406  0.00  0.00    +0.158 HD
ENDROOT
BRANCH   4  16
ATOM     16  C   UNL     1      -1.540   3.021  24.345  0.00  0.00    +0.044 A 
ATOM     17  C   UNL     1      -2.866   3.246  24.725  0.00  0.00    +0.003 A 
ATOM     18  C   UNL     1      -0.571   4.009  24.459  0.00  0.00    +0.024 A 
ATOM     19  C   UNL     1      -3.221   4.515  25.240  0.00  0.00    -0.016 A 
ATOM     20  C   UNL     1      -3.851   2.252  24.612  0.00  0.00    +0.010 A 
ATOM     21  C   UNL     1      -0.920   5.257  24.966  0.00  0.00    +0.002 A 
ATOM     22  C   UNL     1      -2.236   5.511  25.354  0.00  0.00    +0.008 A 
ATOM     23  C   UNL     1      -4.550   4.753  25.627  0.00  0.00    +0.008 A 
ATOM     24  C   UNL     1      -5.166   2.506  25.001  0.00  0.00    +0.001 A 
ATOM     25  C   UNL     1      -5.516   3.754  25.506  0.00  0.00    +0.001 A 
ENDBRANCH   4  16
BRANCH  15   1
ATOM      1  O   UNL     1       0.113  -0.000  23.205  0.00  0.00    -0.449 OA
BRANCH   1  13
ATOM     13  C   UNL     1      -0.154  -1.107  24.045  0.00  0.00    +0.252 C 
BRANCH  13   8
ATOM      3  N   UNL     1      -2.600  -0.602  23.820  0.00  0.00    -0.296 NA
ATOM      5  C   UNL     1      -3.354  -2.765  25.051  0.00  0.00    -0.004 C 
ATOM      6  C   UNL     1      -3.477  -1.533  25.976  0.00  0.00    +0.006 C 
ATOM      7  C   UNL     1      -1.902  -2.888  24.555  0.00  0.00    +0.026 C 
ATOM      8  C   UNL     1      -1.546  -1.645  23.707  0.00  0.00    +0.094 C 
ATOM      9  C   UNL     1      -2.883  -0.308  25.245  0.00  0.00    +0.088 C 
ATOM     10  C   UNL     1      -4.236  -2.490  23.818  0.00  0.00    +0.019 C 
ATOM     11  C   UNL     1      -3.839  -1.136  23.204  0.00  0.00    +0.085 C 
BRANCH   6  12
ATOM     12  C   UNL     1      -2.832  -1.740  27.345  0.00  0.00    +0.002 C 
ATOM     14  C   UNL     1      -1.486  -1.047  27.432  0.00  0.00    +0.004 C 
ENDBRANCH   6  12
ENDBRANCH  13   8
ENDBRANCH   1  13
ENDBRANCH  15   1
TORSDOF 5
ENDMDL
MODEL 6
REMARK VINA RESULT:      -1.9     14.234     16.802
REMARK  Name = 11943122
REMARK  6 active torsions:
REMARK  status: ('A' for Active; 'I' for Inactive)
REMARK    1  A    between atoms: O_1  and  C_13
REMARK    2  A    between atoms: O_1  and  C_15
REMARK    3  A    between atoms: N_4  and  C_16
REMARK    4  A    between atoms: C_6  and  C_12
REMARK    5  A    between atoms: C_8  and  C_13
REMARK    6  A    between atoms: C_12  and  C_14
REMARK                            x       y       z     vdW  Elec       q    Type
REMARK                         _______ _______ _______ _____ _____    ______ ____
ROOT
ATOM      2  O   UNL     1      -4.470  -8.960  14.905  0.00  0.00    -0.226 OA
ATOM      4  N   UNL     1      -5.536 -10.496  13.497  0.00  0.00    -0.251 N 
ATOM     15  C   UNL     1      -5.208  -9.917  14.707  0.00  0.00    +0.405 C 
ATOM     26  H   UNL     1      -6.168 -11.285  13.571  0.00  0.00    +0.158 HD
ENDROOT
BRANCH   4  16
ATOM     16  C   UNL     1      -5.100 -10.120  12.207  0.00  0.00    +0.044 A 
ATOM     17  C   UNL     1      -6.004  -9.696  11.229  0.00  0.00    +0.003 A 
ATOM     18  C   UNL     1      -3.736 -10.194  11.955  0.00  0.00    +0.024 A 
ATOM     19  C   UNL     1      -5.509  -9.332   9.955  0.00  0.00    -0.016 A 
ATOM     20  C   UNL     1      -7.385  -9.620  11.477  0.00  0.00    +0.010 A 
ATOM     21  C   UNL     1      -3.250  -9.836  10.701  0.00  0.00    +0.002 A 
ATOM     22  C   UNL     1      -4.129  -9.408   9.706  0.00  0.00    +0.008 A 
ATOM     23  C   UNL     1      -6.409  -8.903   8.965  0.00  0.00    +0.008 A 
ATOM     24  C   UNL     1      -8.263  -9.191  10.482  0.00  0.00    +0.001 A 
ATOM     25  C   UNL     1      -7.777  -8.834   9.228  0.00  0.00    +0.001 A 
ENDBRANCH   4  16
BRANCH  15   1
ATOM      1  O   UNL     1      -5.850 -10.589  15.724  0.00  0.00    -0.449 OA
BRANCH   1  13
ATOM     13  C   UNL     1      -6.668  -9.815  16.581  0.00  0.00    +0.252 C 
BRANCH  13   8
ATOM      3  N   UNL     1      -8.685  -8.335  16.403  0.00  0.00    -0.296 NA
ATOM      5  C   UNL     1     -10.357 -10.317  16.199  0.00  0.00    -0.004 C 
ATOM      6  C   UNL     1     -10.391  -9.710  17.621  0.00  0.00    +0.006 C 
ATOM      7  C   UNL     1      -8.921 -10.767  15.872  0.00  0.00    +0.026 C 
ATOM      8  C   UNL     1      -7.989  -9.534  15.863  0.00  0.00    +0.094 C 
ATOM      9  C   UNL     1      -9.282  -8.639  17.725  0.00  0.00    +0.088 C 
ATOM     10  C   UNL     1     -10.714  -9.183  15.220  0.00  0.00    +0.019 C 
ATOM     11  C   UNL     1      -9.783  -7.985  15.470  0.00  0.00    +0.085 C 
BRANCH   6  12
ATOM     12  C   UNL     1     -10.270 -10.757  18.726  0.00  0.00    +0.002 C 
ATOM     14  C   UNL     1      -9.247 -10.346  19.767  0.00  0.00    +0.004 C 
ENDBRANCH   6  12
ENDBRANCH  13   8
ENDBRANCH   1  13
ENDBRANCH  15   1
TORSDOF 5
ENDMDL
MODEL 7
REMARK VINA RESULT:      -1.5     13.920     16.513
REMARK  Name = 11943122
REMARK  6 active torsions:
REMARK  status: ('A' for Active; 'I' for Inactive)
REMARK    1  A    between atoms: O_1  and  C_13
REMARK    2  A    between atoms: O_1  and  C_15
REMARK    3  A    between atoms: N_4  and  C_16
REMARK    4  A    between atoms: C_6  and  C_12
REMARK    5  A    between atoms: C_8  and  C_13
REMARK    6  A    between atoms: C_12  and  C_14
REMARK                            x       y       z     vdW  Elec       q    Type
REMARK                         _______ _______ _______ _____ _____    ______ ____
ROOT
ATOM      2  O   UNL     1      -4.410  -9.386  15.151  0.00  0.00    -0.226 OA
ATOM      4  N   UNL     1      -5.601 -10.489  13.464  0.00  0.00    -0.251 N 
ATOM     15  C   UNL     1      -5.298 -10.136  14.765  0.00  0.00    +0.405 C 
ATOM     26  H   UNL     1      -6.382 -11.129  13.378  0.00  0.00    +0.158 HD
ENDROOT
BRANCH   4  16
ATOM     16  C   UNL     1      -4.961 -10.068  12.277  0.00  0.00    +0.044 A 
ATOM     17  C   UNL     1      -3.568  -9.972  12.199  0.00  0.00    +0.003 A 
ATOM     18  C   UNL     1      -5.775  -9.753  11.197  0.00  0.00    +0.024 A 
ATOM     19  C   UNL     1      -2.982  -9.544  10.984  0.00  0.00    -0.016 A 
ATOM     20  C   UNL     1      -2.739 -10.287  13.287  0.00  0.00    +0.010 A 
ATOM     21  C   UNL     1      -5.199  -9.332  10.003  0.00  0.00    +0.002 A 
ATOM     22  C   UNL     1      -3.811  -9.227   9.895  0.00  0.00    +0.008 A 
ATOM     23  C   UNL     1      -1.584  -9.444  10.893  0.00  0.00    +0.008 A 
ATOM     24  C   UNL     1      -1.352 -10.182  13.178  0.00  0.00    +0.001 A 
ATOM     25  C   UNL     1      -0.775  -9.761  11.984  0.00  0.00    +0.001 A 
ENDBRANCH   4  16
BRANCH  15   1
ATOM      1  O   UNL     1      -6.168 -10.769  15.625  0.00  0.00    -0.449 OA
BRANCH   1  13
ATOM     13  C   UNL     1      -6.817  -9.958  16.585  0.00  0.00    +0.252 C 
BRANCH  13   8
ATOM      3  N   UNL     1      -8.515  -8.112  16.593  0.00  0.00    -0.296 NA
ATOM      5  C   UNL     1     -10.546  -9.721  16.368  0.00  0.00    -0.004 C 
ATOM      6  C   UNL     1     -10.405  -9.211  17.820  0.00  0.00    +0.006 C 
ATOM      7  C   UNL     1      -9.239 -10.414  15.942  0.00  0.00    +0.026 C 
ATOM      8  C   UNL     1      -8.087  -9.384  15.953  0.00  0.00    +0.094 C 
ATOM      9  C   UNL     1      -9.106  -8.380  17.926  0.00  0.00    +0.088 C 
ATOM     10  C   UNL     1     -10.716  -8.479  15.471  0.00  0.00    +0.019 C 
ATOM     11  C   UNL     1      -9.561  -7.499  15.739  0.00  0.00    +0.085 C 
BRANCH   6  12
ATOM     12  C   UNL     1     -10.444 -10.330  18.858  0.00  0.00    +0.002 C 
ATOM     14  C   UNL     1      -9.052 -10.682  19.344  0.00  0.00    +0.004 C 
ENDBRANCH   6  12
ENDBRANCH  13   8
ENDBRANCH   1  13
ENDBRANCH  15   1
TORSDOF 5
ENDMDL
MODEL 8
REMARK VINA RESULT:      -1.4      2.190      4.347
REMARK  Name = 11943122
REMARK  6 active torsions:
REMARK  status: ('A' for Active; 'I' for Inactive)
REMARK    1  A    between atoms: O_1  and  C_13
REMARK    2  A    between atoms: O_1  and  C_15
REMARK    3  A    between atoms: N_4  and  C_16
REMARK    4  A    between atoms: C_6  and  C_12
REMARK    5  A    between atoms: C_8  and  C_13
REMARK    6  A    between atoms: C_12  and  C_14
REMARK                            x       y       z     vdW  Elec       q    Type
REMARK                         _______ _______ _______ _____ _____    ______ ____
ROOT
ATOM      2  O   UNL     1      -3.441  -1.454  26.555  0.00  0.00    -0.226 OA
ATOM      4  N   UNL     1      -3.379  -0.148  24.614  0.00  0.00    -0.251 N 
ATOM     15  C   UNL     1      -3.047  -1.219  25.420  0.00  0.00    +0.405 C 
ATOM     26  H   UNL     1      -2.929  -0.155  23.706  0.00  0.00    +0.158 HD
ENDROOT
BRANCH   4  16
ATOM     16  C   UNL     1      -4.252   0.924  24.908  0.00  0.00    +0.044 A 
ATOM     17  C   UNL     1      -3.763   2.166  25.323  0.00  0.00    +0.003 A 
ATOM     18  C   UNL     1      -5.614   0.687  24.769  0.00  0.00    +0.024 A 
ATOM     19  C   UNL     1      -4.684   3.202  25.604  0.00  0.00    -0.016 A 
ATOM     20  C   UNL     1      -2.388   2.413  25.467  0.00  0.00    +0.010 A 
ATOM     21  C   UNL     1      -6.520   1.706  25.046  0.00  0.00    +0.002 A 
ATOM     22  C   UNL     1      -6.060   2.956  25.461  0.00  0.00    +0.008 A 
ATOM     23  C   UNL     1      -4.204   4.455  26.021  0.00  0.00    +0.008 A 
ATOM     24  C   UNL     1      -1.929   3.663  25.881  0.00  0.00    +0.001 A 
ATOM     25  C   UNL     1      -2.834   4.682  26.159  0.00  0.00    +0.001 A 
ENDBRANCH   4  16
BRANCH  15   1
ATOM      1  O   UNL     1      -2.163  -2.037  24.751  0.00  0.00    -0.449 OA
BRANCH   1  13
ATOM     13  C   UNL     1      -0.805  -1.641  24.748  0.00  0.00    +0.252 C 
BRANCH  13   8
ATOM      3  N   UNL     1      -0.778   0.109  22.952  0.00  0.00    -0.296 NA
ATOM      5  C   UNL     1       1.151   1.470  24.043  0.00  0.00    -0.004 C 
ATOM      6  C   UNL     1       1.669   0.641  22.846  0.00  0.00    +0.006 C 
ATOM      7  C   UNL     1       0.489   0.529  25.066  0.00  0.00    +0.026 C 
ATOM      8  C   UNL     1      -0.739  -0.149  24.416  0.00  0.00    +0.094 C 
ATOM      9  C   UNL     1       0.519  -0.252  22.331  0.00  0.00    +0.088 C 
ATOM     10  C   UNL     1       0.050   2.401  23.500  0.00  0.00    +0.019 C 
ATOM     11  C   UNL     1      -0.999   1.561  22.749  0.00  0.00    +0.085 C 
BRANCH   6  12
ATOM     12  C   UNL     1       2.916  -0.178  23.175  0.00  0.00    +0.002 C 
ATOM     14  C   UNL     1       4.181   0.626  22.948  0.00  0.00    +0.004 C 
ENDBRANCH   6  12
ENDBRANCH  13   8
ENDBRANCH   1  13
ENDBRANCH  15   1
TORSDOF 5
ENDMDL
MODEL 9
REMARK VINA RESULT:      -1.4      2.078      3.783
REMARK  Name = 11943122
REMARK  6 active torsions:
REMARK  status: ('A' for Active; 'I' for Inactive)
REMARK    1  A    between atoms: O_1  and  C_13
REMARK    2  A    between atoms: O_1  and  C_15
REMARK    3  A    between atoms: N_4  and  C_16
REMARK    4  A    between atoms: C_6  and  C_12
REMARK    5  A    between atoms: C_8  and  C_13
REMARK    6  A    between atoms: C_12  and  C_14
REMARK                            x       y       z     vdW  Elec       q    Type
REMARK                         _______ _______ _______ _____ _____    ______ ____
ROOT
ATOM      2  O   UNL     1      -5.037   0.083  26.101  0.00  0.00    -0.226 OA
ATOM      4  N   UNL     1      -4.294   1.324  24.261  0.00  0.00    -0.251 N 
ATOM     15  C   UNL     1      -4.709   0.187  24.926  0.00  0.00    +0.405 C 
ATOM     26  H   UNL     1      -4.070   1.176  23.284  0.00  0.00    +0.158 HD
ENDROOT
BRANCH   4  16
ATOM     16  C   UNL     1      -4.153   2.631  24.779  0.00  0.00    +0.044 A 
ATOM     17  C   UNL     1      -2.929   3.305  24.724  0.00  0.00    +0.003 A 
ATOM     18  C   UNL     1      -5.281   3.213  25.344  0.00  0.00    +0.024 A 
ATOM     19  C   UNL     1      -2.847   4.613  25.259  0.00  0.00    -0.016 A 
ATOM     20  C   UNL     1      -1.785   2.724  24.155  0.00  0.00    +0.010 A 
ATOM     21  C   UNL     1      -5.199   4.498  25.870  0.00  0.00    +0.002 A 
ATOM     22  C   UNL     1      -3.991   5.195  25.829  0.00  0.00    +0.008 A 
ATOM     23  C   UNL     1      -1.623   5.300  25.209  0.00  0.00    +0.008 A 
ATOM     24  C   UNL     1      -0.578   3.421  24.113  0.00  0.00    +0.001 A 
ATOM     25  C   UNL     1      -0.496   4.707  24.640  0.00  0.00    +0.001 A 
ENDBRANCH   4  16
BRANCH  15   1
ATOM      1  O   UNL     1      -4.708  -0.879  24.054  0.00  0.00    -0.449 OA
BRANCH   1  13
ATOM     13  C   UNL     1      -3.476  -1.191  23.432  0.00  0.00    +0.252 C 
BRANCH  13   8
ATOM      3  N   UNL     1      -1.958  -0.488  25.300  0.00  0.00    -0.296 NA
ATOM      5  C   UNL     1      -0.003  -2.027  24.545  0.00  0.00    -0.004 C 
ATOM      6  C   UNL     1       0.270  -0.557  24.153  0.00  0.00    +0.006 C 
ATOM      7  C   UNL     1      -1.337  -2.481  23.925  0.00  0.00    +0.026 C 
ATOM      8  C   UNL     1      -2.487  -1.633  24.513  0.00  0.00    +0.094 C 
ATOM      9  C   UNL     1      -0.981   0.283  24.494  0.00  0.00    +0.088 C 
ATOM     10  C   UNL     1      -0.177  -2.058  26.075  0.00  0.00    +0.019 C 
ATOM     11  C   UNL     1      -1.251  -1.035  26.483  0.00  0.00    +0.085 C 
BRANCH   6  12
ATOM     12  C   UNL     1       0.680  -0.389  22.691  0.00  0.00    +0.002 C 
ATOM     14  C   UNL     1       2.136   0.013  22.569  0.00  0.00    +0.004 C 
ENDBRANCH   6  12
ENDBRANCH  13   8
ENDBRANCH   1  13
ENDBRANCH  15   1
TORSDOF 5
ENDMDL
MODEL 10
REMARK VINA RESULT:      -0.2      3.083      5.744
REMARK  Name = 11943122
REMARK  6 active torsions:
REMARK  status: ('A' for Active; 'I' for Inactive)
REMARK    1  A    between atoms: O_1  and  C_13
REMARK    2  A    between atoms: O_1  and  C_15
REMARK    3  A    between atoms: N_4  and  C_16
REMARK    4  A    between atoms: C_6  and  C_12
REMARK    5  A    between atoms: C_8  and  C_13
REMARK    6  A    between atoms: C_12  and  C_14
REMARK                            x       y       z     vdW  Elec       q    Type
REMARK                         _______ _______ _______ _____ _____    ______ ____
ROOT
ATOM      2  O   UNL     1      -1.439   3.776  25.448  0.00  0.00    -0.226 OA
ATOM      4  N   UNL     1      -1.260   1.646  24.495  0.00  0.00    -0.251 N 
ATOM     15  C   UNL     1      -0.795   2.868  24.938  0.00  0.00    +0.405 C 
ATOM     26  H   UNL     1      -0.544   1.045  24.102  0.00  0.00    +0.158 HD
ENDROOT
BRANCH   4  16
ATOM     16  C   UNL     1      -2.586   1.157  24.527  0.00  0.00    +0.044 A 
ATOM     17  C   UNL     1      -2.855  -0.214  24.482  0.00  0.00    +0.003 A 
ATOM     18  C   UNL     1      -3.605   2.097  24.602  0.00  0.00    +0.024 A 
ATOM     19  C   UNL     1      -4.202  -0.646  24.517  0.00  0.00    -0.016 A 
ATOM     20  C   UNL     1      -1.829  -1.171  24.405  0.00  0.00    +0.010 A 
ATOM     21  C   UNL     1      -4.929   1.673  24.636  0.00  0.00    +0.002 A 
ATOM     22  C   UNL     1      -5.228   0.310  24.594  0.00  0.00    +0.008 A 
ATOM     23  C   UNL     1      -4.484  -2.021  24.474  0.00  0.00    +0.008 A 
ATOM     24  C   UNL     1      -2.129  -2.533  24.363  0.00  0.00    +0.001 A 
ATOM     25  C   UNL     1      -3.453  -2.958  24.396  0.00  0.00    +0.001 A 
ENDBRANCH   4  16
BRANCH  15   1
ATOM      1  O   UNL     1       0.564   2.946  24.722  0.00  0.00    -0.449 OA
BRANCH   1  13
ATOM     13  C   UNL     1       1.290   1.734  24.792  0.00  0.00    +0.252 C 
BRANCH  13   8
ATOM      3  N   UNL     1       1.319  -0.181  23.172  0.00  0.00    -0.296 NA
ATOM      5  C   UNL     1       3.659   0.421  22.210  0.00  0.00    -0.004 C 
ATOM      6  C   UNL     1       3.754  -0.775  23.184  0.00  0.00    +0.006 C 
ATOM      7  C   UNL     1       3.033   1.624  22.939  0.00  0.00    +0.026 C 
ATOM      8  C   UNL     1       1.591   1.269  23.366  0.00  0.00    +0.094 C 
ATOM      9  C   UNL     1       2.368  -0.994  23.831  0.00  0.00    +0.088 C 
ATOM     10  C   UNL     1       2.684   0.010  21.090  0.00  0.00    +0.019 C 
ATOM     11  C   UNL     1       1.362  -0.463  21.717  0.00  0.00    +0.085 C 
BRANCH   6  12
ATOM     12  C   UNL     1       4.848  -0.609  24.237  0.00  0.00    +0.002 C 
ATOM     14  C   UNL     1       6.137  -0.102  23.619  0.00  0.00    +0.004 C 
ENDBRANCH   6  12
ENDBRANCH  13   8
ENDBRANCH   1  13
ENDBRANCH  15   1
TORSDOF 5
ENDMDL
