MODEL 1
REMARK VINA RESULT:       2.2      0.000      0.000
REMARK  Name = 11913309
REMARK  7 active torsions:
REMARK  status: ('A' for Active; 'I' for Inactive)
REMARK    1  A    between atoms: O_4  and  C_17
REMARK    2  A    between atoms: O_4  and  C_22
REMARK    3  A    between atoms: N_5  and  C_12
REMARK    4  A    between atoms: N_6  and  C_11
REMARK    5  A    between atoms: C_15  and  C_17
REMARK    6  A    between atoms: C_18  and  C_21
REMARK    7  A    between atoms: C_25  and  C_28
REMARK                            x       y       z     vdW  Elec       q    Type
REMARK                         _______ _______ _______ _____ _____    ______ ____
ROOT
ATOM      6  N   UNL     1      -5.432   1.476  24.325  0.00  0.00    -0.306 N 
ATOM      7  N   UNL     1      -3.350   0.411  24.142  0.00  0.00    -0.214 NA
ATOM      8  N   UNL     1      -5.371  -0.867  24.439  0.00  0.00    -0.223 NA
ATOM     16  C   UNL     1      -4.696   0.305  24.301  0.00  0.00    +0.216 A 
ATOM     18  C   UNL     1      -2.662  -0.750  24.123  0.00  0.00    +0.076 A 
ATOM     19  C   UNL     1      -4.622  -1.989  24.411  0.00  0.00    +0.116 A 
ATOM     20  C   UNL     1      -3.251  -1.991  24.255  0.00  0.00    +0.048 A 
ATOM     35  H   UNL     1      -6.427   1.389  24.497  0.00  0.00    +0.149 HD
ENDROOT
BRANCH   6  11
ATOM      1  O   UNL     1      -4.895   3.733  26.374  0.00  0.00    -0.370 OA
ATOM      2  O   UNL     1      -2.683   3.873  24.176  0.00  0.00    -0.370 OA
ATOM      9  C   UNL     1      -3.440   2.791  24.742  0.00  0.00    +0.171 C 
ATOM     10  C   UNL     1      -3.618   3.089  26.218  0.00  0.00    +0.171 C 
ATOM     11  C   UNL     1      -4.847   2.792  24.193  0.00  0.00    +0.130 C 
ATOM     12  C   UNL     1      -2.500   4.056  26.535  0.00  0.00    +0.130 C 
ATOM     13  C   UNL     1      -5.559   3.777  25.102  0.00  0.00    +0.185 C 
ATOM     14  C   UNL     1      -2.324   4.792  25.220  0.00  0.00    +0.185 C 
BRANCH  12   5
ATOM      3  O   UNL     1      -0.170   3.566  24.883  0.00  0.00    -0.273 OA
ATOM      5  N   UNL     1      -1.295   3.356  26.909  0.00  0.00    -0.306 N 
ATOM     15  C   UNL     1      -0.226   3.169  26.044  0.00  0.00    +0.239 C 
ATOM     34  H   UNL     1      -1.211   3.030  27.868  0.00  0.00    +0.149 HD
BRANCH  15  17
ATOM     17  C   UNL     1       0.901   2.402  26.702  0.00  0.00    +0.255 C 
BRANCH  17   4
ATOM      4  O   UNL     1       0.732   2.373  28.103  0.00  0.00    -0.374 OA
ATOM     22  C   UNL     1       1.934   2.706  28.790  0.00  0.00    +0.194 C 
ENDBRANCH  17   4
ENDBRANCH  15  17
ENDBRANCH  12   5
ENDBRANCH   6  11
BRANCH  18  21
ATOM     21  C   UNL     1      -1.235  -0.615  23.955  0.00  0.00    +0.001 A 
ATOM     23  C   UNL     1      -0.373  -1.581  24.480  0.00  0.00    +0.010 A 
ATOM     24  C   UNL     1      -0.711   0.481  23.266  0.00  0.00    +0.010 A 
ATOM     25  C   UNL     1       1.527  -0.355  23.630  0.00  0.00    -0.018 A 
ATOM     26  C   UNL     1       1.005  -1.451  24.317  0.00  0.00    +0.009 A 
ATOM     27  C   UNL     1       0.668   0.611  23.104  0.00  0.00    +0.009 A 
BRANCH  25  28
ATOM     28  C   UNL     1       2.958  -0.219  23.462  0.00  0.00    -0.018 A 
ATOM     29  C   UNL     1       3.485   0.925  22.865  0.00  0.00    +0.008 A 
ATOM     30  C   UNL     1       3.810  -1.234  23.899  0.00  0.00    +0.008 A 
ATOM     31  C   UNL     1       4.864   1.056  22.703  0.00  0.00    +0.001 A 
ATOM     32  C   UNL     1       5.189  -1.104  23.738  0.00  0.00    +0.001 A 
ATOM     33  C   UNL     1       5.716   0.041  23.139  0.00  0.00    +0.000 A 
ENDBRANCH  25  28
ENDBRANCH  18  21
TORSDOF 6
ENDMDL
