MODEL 1
REMARK VINA RESULT:      10.3      0.000      0.000
REMARK  Name = 7164740
REMARK  7 active torsions:
REMARK  status: ('A' for Active; 'I' for Inactive)
REMARK    1  A    between atoms: O_4  and  C_26
REMARK    2  A    between atoms: O_4  and  C_30
REMARK    3  A    between atoms: O_5  and  C_29
REMARK    4  A    between atoms: O_5  and  C_31
REMARK    5  A    between atoms: N_8  and  C_22
REMARK    6  A    between atoms: N_9  and  C_20
REMARK    7  A    between atoms: C_23  and  C_26
REMARK                            x       y       z     vdW  Elec       q    Type
REMARK                         _______ _______ _______ _____ _____    ______ ____
ROOT
ATOM      1  O   UNL     1      -2.103   1.692  22.154  0.00  0.00    -0.266 OA
ATOM      2  O   UNL     1      -2.575   5.012  26.160  0.00  0.00    -0.252 OA
ATOM      6  N   UNL     1      -4.348   3.528  26.239  0.00  0.00    -0.284 N 
ATOM      7  N   UNL     1      -3.756   1.558  23.801  0.00  0.00    -0.310 N 
ATOM      8  N   UNL     1      -2.480   3.238  27.650  0.00  0.00    -0.269 N 
ATOM     10  C   UNL     1      -5.583   3.328  24.075  0.00  0.00    +0.027 C 
ATOM     11  C   UNL     1      -5.502   1.412  25.611  0.00  0.00    +0.054 C 
ATOM     12  C   UNL     1      -6.408   2.189  24.659  0.00  0.00    +0.018 C 
ATOM     13  C   UNL     1      -5.079   4.253  25.195  0.00  0.00    +0.114 C 
ATOM     14  C   UNL     1      -4.433   2.740  23.250  0.00  0.00    +0.130 C 
ATOM     15  C   UNL     1      -5.038   2.333  26.760  0.00  0.00    +0.119 C 
ATOM     16  C   UNL     1      -4.293   0.854  24.883  0.00  0.00    +0.027 A 
ATOM     17  C   UNL     1      -3.722  -0.289  25.296  0.00  0.00    +0.024 A 
ATOM     18  C   UNL     1      -2.603   1.115  23.121  0.00  0.00    +0.273 A 
ATOM     19  C   UNL     1      -3.082   3.999  26.649  0.00  0.00    +0.306 C 
ATOM     20  C   UNL     1      -1.981  -0.148  23.629  0.00  0.00    +0.099 A 
ATOM     21  C   UNL     1      -2.542  -0.797  24.655  0.00  0.00    +0.030 A 
ATOM     37  H   UNL     1      -3.078   2.743  28.302  0.00  0.00    +0.156 HD
ENDROOT
BRANCH   8  22
ATOM     22  C   UNL     1      -1.092   3.049  27.864  0.00  0.00    +0.035 A 
ATOM     24  C   UNL     1      -0.239   2.859  26.777  0.00  0.00    +0.027 A 
ATOM     25  C   UNL     1      -0.580   3.054  29.161  0.00  0.00    +0.027 A 
ATOM     27  C   UNL     1       1.128   2.672  26.989  0.00  0.00    +0.047 A 
ATOM     28  C   UNL     1       0.787   2.867  29.373  0.00  0.00    +0.047 A 
ATOM     29  C   UNL     1       1.640   2.675  28.286  0.00  0.00    +0.120 A 
BRANCH  29   5
ATOM      5  O   UNL     1       2.972   2.490  28.491  0.00  0.00    -0.495 OA
ATOM     31  C   UNL     1       3.675   3.527  29.176  0.00  0.00    +0.277 C 
ENDBRANCH  29   5
ENDBRANCH   8  22
BRANCH  20   9
ATOM      3  O   UNL     1       0.638   1.012  23.785  0.00  0.00    -0.272 OA
ATOM      9  N   UNL     1      -0.855  -0.602  23.009  0.00  0.00    -0.278 N 
ATOM     23  C   UNL     1       0.388   0.006  23.125  0.00  0.00    +0.255 C 
ATOM     38  H   UNL     1      -0.985  -1.281  22.262  0.00  0.00    +0.155 HD
BRANCH  23  26
ATOM     26  C   UNL     1       1.443  -0.725  22.323  0.00  0.00    +0.324 C 
BRANCH  26   4
ATOM      4  O   UNL     1       2.545   0.116  22.063  0.00  0.00    -0.483 OA
BRANCH   4  30
ATOM     30  C   UNL     1       3.676  -0.075  22.821  0.00  0.00    +0.121 A 
ATOM     32  C   UNL     1       3.909  -1.311  23.424  0.00  0.00    +0.045 A 
ATOM     33  C   UNL     1       4.589   0.966  22.989  0.00  0.00    +0.045 A 
ATOM     34  C   UNL     1       5.055  -1.506  24.195  0.00  0.00    +0.004 A 
ATOM     35  C   UNL     1       5.734   0.771  23.760  0.00  0.00    +0.004 A 
ATOM     36  C   UNL     1       5.968  -0.466  24.363  0.00  0.00    +0.000 A 
ENDBRANCH   4  30
ENDBRANCH  26   4
ENDBRANCH  23  26
ENDBRANCH  20   9
TORSDOF 6
ENDMDL
MODEL 2
REMARK VINA RESULT:      11.8      2.484      4.832
REMARK  Name = 7164740
REMARK  7 active torsions:
REMARK  status: ('A' for Active; 'I' for Inactive)
REMARK    1  A    between atoms: O_4  and  C_26
REMARK    2  A    between atoms: O_4  and  C_30
REMARK    3  A    between atoms: O_5  and  C_29
REMARK    4  A    between atoms: O_5  and  C_31
REMARK    5  A    between atoms: N_8  and  C_22
REMARK    6  A    between atoms: N_9  and  C_20
REMARK    7  A    between atoms: C_23  and  C_26
REMARK                            x       y       z     vdW  Elec       q    Type
REMARK                         _______ _______ _______ _____ _____    ______ ____
ROOT
ATOM      1  O   UNL     1      -0.980   3.330  26.066  0.00  0.00    -0.266 OA
ATOM      2  O   UNL     1      -4.829  -0.094  26.940  0.00  0.00    -0.252 OA
ATOM      6  N   UNL     1      -5.690   1.659  25.701  0.00  0.00    -0.284 N 
ATOM      7  N   UNL     1      -3.143   3.514  25.199  0.00  0.00    -0.310 N 
ATOM      8  N   UNL     1      -5.107  -0.374  24.656  0.00  0.00    -0.269 N 
ATOM     10  C   UNL     1      -5.197   3.909  26.674  0.00  0.00    +0.027 C 
ATOM     11  C   UNL     1      -5.469   3.667  24.244  0.00  0.00    +0.054 C 
ATOM     12  C   UNL     1      -5.790   4.567  25.435  0.00  0.00    +0.018 C 
ATOM     13  C   UNL     1      -5.811   2.515  26.885  0.00  0.00    +0.114 C 
ATOM     14  C   UNL     1      -3.672   3.852  26.527  0.00  0.00    +0.130 C 
ATOM     15  C   UNL     1      -6.128   2.285  24.440  0.00  0.00    +0.119 C 
ATOM     16  C   UNL     1      -3.971   3.498  24.072  0.00  0.00    +0.027 A 
ATOM     17  C   UNL     1      -3.447   3.302  22.852  0.00  0.00    +0.024 A 
ATOM     18  C   UNL     1      -1.751   3.310  25.105  0.00  0.00    +0.273 A 
ATOM     19  C   UNL     1      -5.172   0.353  25.843  0.00  0.00    +0.306 C 
ATOM     20  C   UNL     1      -1.210   3.068  23.731  0.00  0.00    +0.099 A 
ATOM     21  C   UNL     1      -2.038   3.081  22.680  0.00  0.00    +0.030 A 
ATOM     37  H   UNL     1      -5.783  -0.166  23.928  0.00  0.00    +0.156 HD
ENDROOT
BRANCH   8  22
ATOM     22  C   UNL     1      -4.174  -1.385  24.321  0.00  0.00    +0.035 A 
ATOM     24  C   UNL     1      -4.615  -2.579  23.751  0.00  0.00    +0.027 A 
ATOM     25  C   UNL     1      -2.814  -1.186  24.560  0.00  0.00    +0.027 A 
ATOM     27  C   UNL     1      -3.695  -3.576  23.422  0.00  0.00    +0.047 A 
ATOM     28  C   UNL     1      -1.894  -2.183  24.231  0.00  0.00    +0.047 A 
ATOM     29  C   UNL     1      -2.336  -3.378  23.663  0.00  0.00    +0.120 A 
BRANCH  29   5
ATOM      5  O   UNL     1      -1.440  -4.351  23.344  0.00  0.00    -0.495 OA
ATOM     31  C   UNL     1      -0.548  -4.085  22.263  0.00  0.00    +0.277 C 
ENDBRANCH  29   5
ENDBRANCH   8  22
BRANCH  20   9
ATOM      3  O   UNL     1       0.114   0.523  23.750  0.00  0.00    -0.272 OA
ATOM      9  N   UNL     1       0.129   2.849  23.598  0.00  0.00    -0.278 N 
ATOM     23  C   UNL     1       0.710   1.589  23.616  0.00  0.00    +0.255 C 
ATOM     38  H   UNL     1       0.738   3.657  23.712  0.00  0.00    +0.155 HD
BRANCH  23  26
ATOM     26  C   UNL     1       2.213   1.666  23.447  0.00  0.00    +0.324 C 
BRANCH  26   4
ATOM      4  O   UNL     1       2.692   0.555  22.720  0.00  0.00    -0.483 OA
BRANCH   4  30
ATOM     30  C   UNL     1       3.844  -0.043  23.172  0.00  0.00    +0.121 A 
ATOM     32  C   UNL     1       5.034   0.684  23.219  0.00  0.00    +0.045 A 
ATOM     33  C   UNL     1       3.825  -1.376  23.582  0.00  0.00    +0.045 A 
ATOM     34  C   UNL     1       6.203   0.078  23.677  0.00  0.00    +0.004 A 
ATOM     35  C   UNL     1       4.994  -1.982  24.039  0.00  0.00    +0.004 A 
ATOM     36  C   UNL     1       6.184  -1.255  24.087  0.00  0.00    +0.000 A 
ENDBRANCH   4  30
ENDBRANCH  26   4
ENDBRANCH  23  26
ENDBRANCH  20   9
TORSDOF 6
ENDMDL
MODEL 3
REMARK VINA RESULT:      13.8      2.568      4.091
REMARK  Name = 7164740
REMARK  7 active torsions:
REMARK  status: ('A' for Active; 'I' for Inactive)
REMARK    1  A    between atoms: O_4  and  C_26
REMARK    2  A    between atoms: O_4  and  C_30
REMARK    3  A    between atoms: O_5  and  C_29
REMARK    4  A    between atoms: O_5  and  C_31
REMARK    5  A    between atoms: N_8  and  C_22
REMARK    6  A    between atoms: N_9  and  C_20
REMARK    7  A    between atoms: C_23  and  C_26
REMARK                            x       y       z     vdW  Elec       q    Type
REMARK                         _______ _______ _______ _____ _____    ______ ____
ROOT
ATOM      1  O   UNL     1      -0.519  -0.991  21.969  0.00  0.00    -0.266 OA
ATOM      2  O   UNL     1      -5.073   0.914  23.681  0.00  0.00    -0.252 OA
ATOM      6  N   UNL     1      -4.489  -0.876  25.024  0.00  0.00    -0.284 N 
ATOM      7  N   UNL     1      -1.650  -1.758  23.865  0.00  0.00    -0.310 N 
ATOM      8  N   UNL     1      -4.124   1.338  25.753  0.00  0.00    -0.269 N 
ATOM     10  C   UNL     1      -3.914  -2.944  23.742  0.00  0.00    +0.027 C 
ATOM     11  C   UNL     1      -2.868  -2.538  25.928  0.00  0.00    +0.054 C 
ATOM     12  C   UNL     1      -3.477  -3.617  25.037  0.00  0.00    +0.018 C 
ATOM     13  C   UNL     1      -4.954  -1.850  24.032  0.00  0.00    +0.114 C 
ATOM     14  C   UNL     1      -2.677  -2.389  23.026  0.00  0.00    +0.130 C 
ATOM     15  C   UNL     1      -3.931  -1.467  26.255  0.00  0.00    +0.119 C 
ATOM     16  C   UNL     1      -1.674  -1.884  25.258  0.00  0.00    +0.027 A 
ATOM     17  C   UNL     1      -0.663  -1.398  25.997  0.00  0.00    +0.024 A 
ATOM     18  C   UNL     1      -0.592  -1.113  23.193  0.00  0.00    +0.273 A 
ATOM     19  C   UNL     1      -4.591   0.503  24.739  0.00  0.00    +0.306 C 
ATOM     20  C   UNL     1       0.501  -0.563  24.055  0.00  0.00    +0.099 A 
ATOM     21  C   UNL     1       0.444  -0.724  25.381  0.00  0.00    +0.030 A 
ATOM     37  H   UNL     1      -4.178   1.007  26.710  0.00  0.00    +0.156 HD
ENDROOT
BRANCH   8  22
ATOM     22  C   UNL     1      -3.548   2.623  25.606  0.00  0.00    +0.035 A 
ATOM     24  C   UNL     1      -4.361   3.757  25.624  0.00  0.00    +0.027 A 
ATOM     25  C   UNL     1      -2.169   2.756  25.443  0.00  0.00    +0.027 A 
ATOM     27  C   UNL     1      -3.794   5.024  25.478  0.00  0.00    +0.047 A 
ATOM     28  C   UNL     1      -1.602   4.023  25.298  0.00  0.00    +0.047 A 
ATOM     29  C   UNL     1      -2.416   5.156  25.315  0.00  0.00    +0.120 A 
BRANCH  29   5
ATOM      5  O   UNL     1      -1.864   6.392  25.170  0.00  0.00    -0.495 OA
ATOM     31  C   UNL     1      -0.524   6.452  24.683  0.00  0.00    +0.277 C 
ENDBRANCH  29   5
ENDBRANCH   8  22
BRANCH  20   9
ATOM      3  O   UNL     1       0.941   2.272  23.988  0.00  0.00    -0.272 OA
ATOM      9  N   UNL     1       1.535   0.084  23.444  0.00  0.00    -0.278 N 
ATOM     23  C   UNL     1       1.692   1.463  23.448  0.00  0.00    +0.255 C 
ATOM     38  H   UNL     1       2.083  -0.457  22.779  0.00  0.00    +0.155 HD
BRANCH  23  26
ATOM     26  C   UNL     1       2.932   1.884  22.689  0.00  0.00    +0.324 C 
BRANCH  26   4
ATOM      4  O   UNL     1       3.573   0.764  22.117  0.00  0.00    -0.483 OA
BRANCH   4  30
ATOM     30  C   UNL     1       4.406   0.033  22.931  0.00  0.00    +0.121 A 
ATOM     32  C   UNL     1       4.087  -1.288  23.247  0.00  0.00    +0.045 A 
ATOM     33  C   UNL     1       5.568   0.611  23.440  0.00  0.00    +0.045 A 
ATOM     34  C   UNL     1       4.931  -2.029  24.073  0.00  0.00    +0.004 A 
ATOM     35  C   UNL     1       6.411  -0.131  24.266  0.00  0.00    +0.004 A 
ATOM     36  C   UNL     1       6.093  -1.452  24.583  0.00  0.00    +0.000 A 
ENDBRANCH   4  30
ENDBRANCH  26   4
ENDBRANCH  23  26
ENDBRANCH  20   9
TORSDOF 6
ENDMDL
MODEL 4
REMARK VINA RESULT:      14.1      2.468      5.935
REMARK  Name = 7164740
REMARK  7 active torsions:
REMARK  status: ('A' for Active; 'I' for Inactive)
REMARK    1  A    between atoms: O_4  and  C_26
REMARK    2  A    between atoms: O_4  and  C_30
REMARK    3  A    between atoms: O_5  and  C_29
REMARK    4  A    between atoms: O_5  and  C_31
REMARK    5  A    between atoms: N_8  and  C_22
REMARK    6  A    between atoms: N_9  and  C_20
REMARK    7  A    between atoms: C_23  and  C_26
REMARK                            x       y       z     vdW  Elec       q    Type
REMARK                         _______ _______ _______ _____ _____    ______ ____
ROOT
ATOM      1  O   UNL     1      -3.113   2.012  25.894  0.00  0.00    -0.266 OA
ATOM      2  O   UNL     1      -0.044  -2.216  25.945  0.00  0.00    -0.252 OA
ATOM      6  N   UNL     1      -1.889  -2.680  24.629  0.00  0.00    -0.284 N 
ATOM      7  N   UNL     1      -3.509   0.069  24.656  0.00  0.00    -0.310 N 
ATOM      8  N   UNL     1       0.172  -2.096  23.640  0.00  0.00    -0.269 N 
ATOM     10  C   UNL     1      -4.067  -2.178  25.747  0.00  0.00    +0.027 C 
ATOM     11  C   UNL     1      -3.891  -2.021  23.302  0.00  0.00    +0.054 C 
ATOM     12  C   UNL     1      -4.797  -2.474  24.444  0.00  0.00    +0.018 C 
ATOM     13  C   UNL     1      -2.733  -2.940  25.799  0.00  0.00    +0.114 C 
ATOM     14  C   UNL     1      -3.873  -0.663  25.877  0.00  0.00    +0.130 C 
ATOM     15  C   UNL     1      -2.573  -2.823  23.330  0.00  0.00    +0.119 C 
ATOM     16  C   UNL     1      -3.588  -0.537  23.399  0.00  0.00    +0.027 A 
ATOM     17  C   UNL     1      -3.364   0.183  22.287  0.00  0.00    +0.024 A 
ATOM     18  C   UNL     1      -3.179   1.431  24.809  0.00  0.00    +0.273 A 
ATOM     19  C   UNL     1      -0.539  -2.313  24.819  0.00  0.00    +0.306 C 
ATOM     20  C   UNL     1      -2.911   2.191  23.548  0.00  0.00    +0.099 A 
ATOM     21  C   UNL     1      -3.017   1.573  22.366  0.00  0.00    +0.030 A 
ATOM     37  H   UNL     1      -0.108  -2.605  22.809  0.00  0.00    +0.156 HD
ENDROOT
BRANCH   8  22
ATOM     22  C   UNL     1       1.259  -1.209  23.447  0.00  0.00    +0.035 A 
ATOM     24  C   UNL     1       2.553  -1.608  23.782  0.00  0.00    +0.027 A 
ATOM     25  C   UNL     1       1.036   0.064  22.921  0.00  0.00    +0.027 A 
ATOM     27  C   UNL     1       3.624  -0.734  23.593  0.00  0.00    +0.047 A 
ATOM     28  C   UNL     1       2.108   0.938  22.731  0.00  0.00    +0.047 A 
ATOM     29  C   UNL     1       3.401   0.539  23.068  0.00  0.00    +0.120 A 
BRANCH  29   5
ATOM      5  O   UNL     1       4.445   1.391  22.886  0.00  0.00    -0.495 OA
ATOM     31  C   UNL     1       5.678   1.055  23.523  0.00  0.00    +0.277 C 
ENDBRANCH  29   5
ENDBRANCH   8  22
BRANCH  20   9
ATOM      3  O   UNL     1      -4.499   4.273  24.720  0.00  0.00    -0.272 OA
ATOM      9  N   UNL     1      -2.572   3.508  23.653  0.00  0.00    -0.278 N 
ATOM     23  C   UNL     1      -3.387   4.470  24.234  0.00  0.00    +0.255 C 
ATOM     38  H   UNL     1      -1.789   3.825  23.087  0.00  0.00    +0.155 HD
BRANCH  23  26
ATOM     26  C   UNL     1      -2.742   5.838  24.203  0.00  0.00    +0.324 C 
BRANCH  26   4
ATOM      4  O   UNL     1      -1.585   5.863  25.011  0.00  0.00    -0.483 OA
BRANCH   4  30
ATOM     30  C   UNL     1      -0.926   4.672  25.202  0.00  0.00    +0.121 A 
ATOM     32  C   UNL     1      -1.082   3.974  26.400  0.00  0.00    +0.045 A 
ATOM     33  C   UNL     1      -0.100   4.162  24.200  0.00  0.00    +0.045 A 
ATOM     34  C   UNL     1      -0.413   2.766  26.594  0.00  0.00    +0.004 A 
ATOM     35  C   UNL     1       0.569   2.955  24.396  0.00  0.00    +0.004 A 
ATOM     36  C   UNL     1       0.412   2.256  25.593  0.00  0.00    +0.000 A 
ENDBRANCH   4  30
ENDBRANCH  26   4
ENDBRANCH  23  26
ENDBRANCH  20   9
TORSDOF 6
ENDMDL
MODEL 5
REMARK VINA RESULT:      14.2      2.671      6.720
REMARK  Name = 7164740
REMARK  7 active torsions:
REMARK  status: ('A' for Active; 'I' for Inactive)
REMARK    1  A    between atoms: O_4  and  C_26
REMARK    2  A    between atoms: O_4  and  C_30
REMARK    3  A    between atoms: O_5  and  C_29
REMARK    4  A    between atoms: O_5  and  C_31
REMARK    5  A    between atoms: N_8  and  C_22
REMARK    6  A    between atoms: N_9  and  C_20
REMARK    7  A    between atoms: C_23  and  C_26
REMARK                            x       y       z     vdW  Elec       q    Type
REMARK                         _______ _______ _______ _____ _____    ______ ____
ROOT
ATOM      1  O   UNL     1      -2.553   2.026  26.082  0.00  0.00    -0.266 OA
ATOM      2  O   UNL     1       0.280  -2.362  25.960  0.00  0.00    -0.252 OA
ATOM      6  N   UNL     1      -1.584  -2.668  24.623  0.00  0.00    -0.284 N 
ATOM      7  N   UNL     1      -3.050   0.161  24.764  0.00  0.00    -0.310 N 
ATOM      8  N   UNL     1       0.510  -2.157  23.662  0.00  0.00    -0.269 N 
ATOM     10  C   UNL     1      -3.735  -2.094  25.759  0.00  0.00    +0.027 C 
ATOM     11  C   UNL     1      -3.542  -1.846  23.323  0.00  0.00    +0.054 C 
ATOM     12  C   UNL     1      -4.475  -2.295  24.443  0.00  0.00    +0.018 C 
ATOM     13  C   UNL     1      -2.445  -2.930  25.780  0.00  0.00    +0.114 C 
ATOM     14  C   UNL     1      -3.458  -0.599  25.953  0.00  0.00    +0.130 C 
ATOM     15  C   UNL     1      -2.269  -2.720  23.318  0.00  0.00    +0.119 C 
ATOM     16  C   UNL     1      -3.158  -0.386  23.482  0.00  0.00    +0.027 A 
ATOM     17  C   UNL     1      -2.891   0.366  22.402  0.00  0.00    +0.024 A 
ATOM     18  C   UNL     1      -2.647   1.496  24.974  0.00  0.00    +0.273 A 
ATOM     19  C   UNL     1      -0.216  -2.385  24.831  0.00  0.00    +0.306 C 
ATOM     20  C   UNL     1      -2.333   2.292  23.746  0.00  0.00    +0.099 A 
ATOM     21  C   UNL     1      -2.469   1.731  22.540  0.00  0.00    +0.030 A 
ATOM     37  H   UNL     1       0.205  -2.616  22.810  0.00  0.00    +0.156 HD
ENDROOT
BRANCH   8  22
ATOM     22  C   UNL     1       1.644  -1.324  23.507  0.00  0.00    +0.035 A 
ATOM     24  C   UNL     1       2.915  -1.813  23.812  0.00  0.00    +0.027 A 
ATOM     25  C   UNL     1       1.492  -0.015  23.051  0.00  0.00    +0.027 A 
ATOM     27  C   UNL     1       4.033  -0.992  23.660  0.00  0.00    +0.047 A 
ATOM     28  C   UNL     1       2.610   0.806  22.900  0.00  0.00    +0.047 A 
ATOM     29  C   UNL     1       3.880   0.317  23.205  0.00  0.00    +0.120 A 
BRANCH  29   5
ATOM      5  O   UNL     1       4.971   1.118  23.060  0.00  0.00    -0.495 OA
ATOM     31  C   UNL     1       6.146   0.754  23.783  0.00  0.00    +0.277 C 
ENDBRANCH  29   5
ENDBRANCH   8  22
BRANCH  20   9
ATOM      3  O   UNL     1       0.050   3.172  25.079  0.00  0.00    -0.272 OA
ATOM      9  N   UNL     1      -1.923   3.583  23.907  0.00  0.00    -0.278 N 
ATOM     23  C   UNL     1      -0.755   3.945  24.564  0.00  0.00    +0.255 C 
ATOM     38  H   UNL     1      -2.614   4.308  23.729  0.00  0.00    +0.155 HD
BRANCH  23  26
ATOM     26  C   UNL     1      -0.569   5.447  24.582  0.00  0.00    +0.324 C 
BRANCH  26   4
ATOM      4  O   UNL     1      -1.619   6.072  25.288  0.00  0.00    -0.483 OA
BRANCH   4  30
ATOM     30  C   UNL     1      -2.800   5.377  25.405  0.00  0.00    +0.121 A 
ATOM     32  C   UNL     1      -3.127   4.760  26.612  0.00  0.00    +0.045 A 
ATOM     33  C   UNL     1      -3.668   5.287  24.317  0.00  0.00    +0.045 A 
ATOM     34  C   UNL     1      -4.324   4.054  26.731  0.00  0.00    +0.004 A 
ATOM     35  C   UNL     1      -4.864   4.581  24.437  0.00  0.00    +0.004 A 
ATOM     36  C   UNL     1      -5.193   3.964  25.644  0.00  0.00    +0.000 A 
ENDBRANCH   4  30
ENDBRANCH  26   4
ENDBRANCH  23  26
ENDBRANCH  20   9
TORSDOF 6
ENDMDL
