MODEL 1
REMARK VINA RESULT:       2.8      0.000      0.000
REMARK  Name = 40777141
REMARK  6 active torsions:
REMARK  status: ('A' for Active; 'I' for Inactive)
REMARK    1  A    between atoms: N_4  and  C_15
REMARK    2  A    between atoms: N_6  and  C_18
REMARK    3  A    between atoms: C_9  and  C_16
REMARK    4  A    between atoms: C_10  and  C_15
REMARK    5  A    between atoms: C_20  and  C_27
REMARK    6  A    between atoms: C_23  and  C_28
REMARK                            x       y       z     vdW  Elec       q    Type
REMARK                         _______ _______ _______ _____ _____    ______ ____
ROOT
ATOM      3  N   UNL     1      -2.867  -2.296  23.656  0.00  0.00    -0.297 NA
ATOM      8  C   UNL     1      -2.914  -1.366  26.088  0.00  0.00    +0.002 C 
ATOM      9  C   UNL     1      -4.039  -0.716  25.234  0.00  0.00    +0.055 C 
ATOM     10  C   UNL     1      -1.505  -1.855  24.057  0.00  0.00    +0.074 C 
ATOM     11  C   UNL     1      -1.551  -1.113  25.411  0.00  0.00    +0.024 C 
ATOM     12  C   UNL     1      -3.159  -2.890  26.060  0.00  0.00    +0.019 C 
ATOM     13  C   UNL     1      -3.820  -1.164  23.760  0.00  0.00    +0.094 C 
ATOM     14  C   UNL     1      -3.299  -3.355  24.599  0.00  0.00    +0.085 C 
ENDROOT
BRANCH   9  16
ATOM      5  N   UNL     1      -5.501   1.194  25.678  0.00  0.00    -0.237 NA
ATOM      7  N   UNL     1      -4.706   3.467  25.589  0.00  0.00    -0.232 NA
ATOM     16  C   UNL     1      -4.256   0.786  25.356  0.00  0.00    +0.050 A 
ATOM     17  C   UNL     1      -3.199   1.646  25.138  0.00  0.00    +0.052 A 
ATOM     20  C   UNL     1      -3.486   2.989  25.269  0.00  0.00    +0.076 A 
ATOM     23  C   UNL     1      -5.653   2.529  25.776  0.00  0.00    +0.127 A 
ATOM     28  C   UNL     1      -7.017   3.018  26.128  0.00  0.00    +0.088 C 
BRANCH  20  27
ATOM      1 BR   UNL     1      -0.487   2.009  25.800  0.00  0.00    -0.050 Br
ATOM     27  C   UNL     1      -2.467   3.992  25.065  0.00  0.00    +0.014 A 
ATOM     29  C   UNL     1      -1.113   3.720  25.256  0.00  0.00    +0.027 A 
ATOM     30  C   UNL     1      -2.874   5.264  24.665  0.00  0.00    +0.011 A 
ATOM     31  C   UNL     1      -0.165   4.721  25.045  0.00  0.00    +0.016 A 
ATOM     32  C   UNL     1      -1.926   6.266  24.455  0.00  0.00    +0.001 A 
ATOM     33  C   UNL     1      -0.571   5.994  24.645  0.00  0.00    +0.001 A 
ENDBRANCH  20  27
ENDBRANCH   9  16
BRANCH  10  15
ATOM     15  C   UNL     1      -0.818  -1.022  22.973  0.00  0.00    +0.124 C 
BRANCH  15   4
ATOM      2  O   UNL     1       1.510  -0.490  21.372  0.00  0.00    -0.253 OA
ATOM      4  N   UNL     1       0.440  -0.522  23.433  0.00  0.00    -0.298 N 
ATOM      6  N   UNL     1       2.631   0.196  23.286  0.00  0.00    -0.297 N 
ATOM     19  C   UNL     1       1.530  -0.289  22.587  0.00  0.00    +0.300 C 
ATOM     34  H   UNL     1       0.552  -0.331  24.425  0.00  0.00    +0.150 HD
ATOM     35  H   UNL     1       2.564   0.254  24.298  0.00  0.00    +0.151 HD
BRANCH   6  18
ATOM     18  C   UNL     1       3.891   0.520  22.653  0.00  0.00    +0.074 C 
ATOM     21  C   UNL     1       4.741   1.427  23.551  0.00  0.00    +0.022 C 
ATOM     22  C   UNL     1       4.655  -0.749  22.262  0.00  0.00    +0.022 C 
ATOM     24  C   UNL     1       5.308   0.684  24.761  0.00  0.00    +0.002 C 
ATOM     25  C   UNL     1       5.222  -1.488  23.475  0.00  0.00    +0.002 C 
ATOM     26  C   UNL     1       6.073  -0.569  24.346  0.00  0.00    +0.000 C 
ENDBRANCH   6  18
ENDBRANCH  15   4
ENDBRANCH  10  15
TORSDOF 5
ENDMDL
MODEL 2
REMARK VINA RESULT:       4.0      1.651      5.083
REMARK  Name = 40777141
REMARK  6 active torsions:
REMARK  status: ('A' for Active; 'I' for Inactive)
REMARK    1  A    between atoms: N_4  and  C_15
REMARK    2  A    between atoms: N_6  and  C_18
REMARK    3  A    between atoms: C_9  and  C_16
REMARK    4  A    between atoms: C_10  and  C_15
REMARK    5  A    between atoms: C_20  and  C_27
REMARK    6  A    between atoms: C_23  and  C_28
REMARK                            x       y       z     vdW  Elec       q    Type
REMARK                         _______ _______ _______ _____ _____    ______ ____
ROOT
ATOM      3  N   UNL     1      -1.382   4.926  25.678  0.00  0.00    -0.297 NA
ATOM      8  C   UNL     1      -2.947   4.129  23.753  0.00  0.00    +0.002 C 
ATOM      9  C   UNL     1      -3.623   3.902  25.134  0.00  0.00    +0.055 C 
ATOM     10  C   UNL     1      -0.634   4.039  24.749  0.00  0.00    +0.074 C 
ATOM     11  C   UNL     1      -1.591   3.393  23.723  0.00  0.00    +0.024 C 
ATOM     12  C   UNL     1      -2.645   5.640  23.649  0.00  0.00    +0.019 C 
ATOM     13  C   UNL     1      -2.560   4.208  26.228  0.00  0.00    +0.094 C 
ATOM     14  C   UNL     1      -1.871   6.090  24.900  0.00  0.00    +0.085 C 
ENDROOT
BRANCH   9  16
ATOM      5  N   UNL     1      -5.494   2.631  26.065  0.00  0.00    -0.237 NA
ATOM      7  N   UNL     1      -5.658   0.237  25.839  0.00  0.00    -0.232 NA
ATOM     16  C   UNL     1      -4.335   2.579  25.375  0.00  0.00    +0.050 A 
ATOM     17  C   UNL     1      -3.782   1.410  24.892  0.00  0.00    +0.052 A 
ATOM     20  C   UNL     1      -4.494   0.259  25.157  0.00  0.00    +0.076 A 
ATOM     23  C   UNL     1      -6.094   1.440  26.258  0.00  0.00    +0.127 A 
ATOM     28  C   UNL     1      -7.376   1.457  27.018  0.00  0.00    +0.088 C 
BRANCH  20  27
ATOM      1 BR   UNL     1      -1.559  -0.535  26.151  0.00  0.00    -0.050 Br
ATOM     27  C   UNL     1      -4.022  -1.030  24.708  0.00  0.00    +0.014 A 
ATOM     29  C   UNL     1      -2.763  -1.519  25.056  0.00  0.00    +0.027 A 
ATOM     30  C   UNL     1      -4.867  -1.792  23.902  0.00  0.00    +0.011 A 
ATOM     31  C   UNL     1      -2.350  -2.770  24.599  0.00  0.00    +0.016 A 
ATOM     32  C   UNL     1      -4.454  -3.043  23.444  0.00  0.00    +0.001 A 
ATOM     33  C   UNL     1      -3.195  -3.532  23.793  0.00  0.00    +0.001 A 
ENDBRANCH  20  27
ENDBRANCH   9  16
BRANCH  10  15
ATOM     15  C   UNL     1       0.201   2.991  25.488  0.00  0.00    +0.124 C 
BRANCH  15   4
ATOM      2  O   UNL     1       0.554   0.760  23.709  0.00  0.00    -0.253 OA
ATOM      4  N   UNL     1       1.381   2.664  24.750  0.00  0.00    -0.298 N 
ATOM      6  N   UNL     1       2.728   1.466  23.304  0.00  0.00    -0.297 N 
ATOM     19  C   UNL     1       1.474   1.555  23.900  0.00  0.00    +0.300 C 
ATOM     34  H   UNL     1       2.196   3.264  24.848  0.00  0.00    +0.150 HD
ATOM     35  H   UNL     1       3.439   2.133  23.590  0.00  0.00    +0.151 HD
BRANCH   6  18
ATOM     18  C   UNL     1       3.093   0.414  22.382  0.00  0.00    +0.074 C 
ATOM     21  C   UNL     1       4.579   0.494  22.015  0.00  0.00    +0.022 C 
ATOM     22  C   UNL     1       2.734  -0.964  22.947  0.00  0.00    +0.022 C 
ATOM     24  C   UNL     1       5.489   0.075  23.170  0.00  0.00    +0.002 C 
ATOM     25  C   UNL     1       3.648  -1.380  24.101  0.00  0.00    +0.002 C 
ATOM     26  C   UNL     1       5.120  -1.303  23.709  0.00  0.00    +0.000 C 
ENDBRANCH   6  18
ENDBRANCH  15   4
ENDBRANCH  10  15
TORSDOF 5
ENDMDL
MODEL 3
REMARK VINA RESULT:       5.2      1.193      1.529
REMARK  Name = 40777141
REMARK  6 active torsions:
REMARK  status: ('A' for Active; 'I' for Inactive)
REMARK    1  A    between atoms: N_4  and  C_15
REMARK    2  A    between atoms: N_6  and  C_18
REMARK    3  A    between atoms: C_9  and  C_16
REMARK    4  A    between atoms: C_10  and  C_15
REMARK    5  A    between atoms: C_20  and  C_27
REMARK    6  A    between atoms: C_23  and  C_28
REMARK                            x       y       z     vdW  Elec       q    Type
REMARK                         _______ _______ _______ _____ _____    ______ ____
ROOT
ATOM      3  N   UNL     1      -1.709  -2.322  23.972  0.00  0.00    -0.297 NA
ATOM      8  C   UNL     1      -4.008  -1.965  25.145  0.00  0.00    +0.002 C 
ATOM      9  C   UNL     1      -3.722  -0.812  24.142  0.00  0.00    +0.055 C 
ATOM     10  C   UNL     1      -1.554  -2.457  25.445  0.00  0.00    +0.074 C 
ATOM     11  C   UNL     1      -2.856  -2.046  26.169  0.00  0.00    +0.024 C 
ATOM     12  C   UNL     1      -3.984  -3.277  24.331  0.00  0.00    +0.019 C 
ATOM     13  C   UNL     1      -2.261  -0.985  23.639  0.00  0.00    +0.094 C 
ATOM     14  C   UNL     1      -2.678  -3.349  23.521  0.00  0.00    +0.085 C 
ENDROOT
BRANCH   9  16
ATOM      5  N   UNL     1      -5.260   0.862  25.046  0.00  0.00    -0.237 NA
ATOM      7  N   UNL     1      -4.602   3.153  25.397  0.00  0.00    -0.232 NA
ATOM     16  C   UNL     1      -4.016   0.614  24.586  0.00  0.00    +0.050 A 
ATOM     17  C   UNL     1      -3.025   1.571  24.503  0.00  0.00    +0.052 A 
ATOM     20  C   UNL     1      -3.378   2.835  24.926  0.00  0.00    +0.076 A 
ATOM     23  C   UNL     1      -5.482   2.134  25.429  0.00  0.00    +0.127 A 
ATOM     28  C   UNL     1      -6.846   2.447  25.941  0.00  0.00    +0.088 C 
BRANCH  20  27
ATOM      1 BR   UNL     1      -0.331   1.975  24.473  0.00  0.00    -0.050 Br
ATOM     27  C   UNL     1      -2.433   3.925  24.887  0.00  0.00    +0.014 A 
ATOM     29  C   UNL     1      -1.067   3.714  24.698  0.00  0.00    +0.027 A 
ATOM     30  C   UNL     1      -2.922   5.221  25.047  0.00  0.00    +0.011 A 
ATOM     31  C   UNL     1      -0.191   4.799  24.667  0.00  0.00    +0.016 A 
ATOM     32  C   UNL     1      -2.046   6.307  25.017  0.00  0.00    +0.001 A 
ATOM     33  C   UNL     1      -0.680   6.095  24.827  0.00  0.00    +0.001 A 
ENDBRANCH  20  27
ENDBRANCH   9  16
BRANCH  10  15
ATOM     15  C   UNL     1      -0.341  -1.692  25.977  0.00  0.00    +0.124 C 
BRANCH  15   4
ATOM      2  O   UNL     1       2.080  -2.505  24.655  0.00  0.00    -0.253 OA
ATOM      4  N   UNL     1       0.331  -1.001  24.920  0.00  0.00    -0.298 N 
ATOM      6  N   UNL     1       1.955  -0.606  23.325  0.00  0.00    -0.297 N 
ATOM     19  C   UNL     1       1.511  -1.464  24.326  0.00  0.00    +0.300 C 
ATOM     34  H   UNL     1      -0.065  -0.127  24.585  0.00  0.00    +0.150 HD
ATOM     35  H   UNL     1       1.450   0.264  23.186  0.00  0.00    +0.151 HD
BRANCH   6  18
ATOM     18  C   UNL     1       3.153  -0.846  22.550  0.00  0.00    +0.074 C 
ATOM     21  C   UNL     1       3.617   0.432  21.842  0.00  0.00    +0.022 C 
ATOM     22  C   UNL     1       4.266  -1.433  23.423  0.00  0.00    +0.022 C 
ATOM     24  C   UNL     1       4.205   1.456  22.813  0.00  0.00    +0.002 C 
ATOM     25  C   UNL     1       4.854  -0.405  24.391  0.00  0.00    +0.002 C 
ATOM     26  C   UNL     1       5.318   0.852  23.663  0.00  0.00    +0.000 C 
ENDBRANCH   6  18
ENDBRANCH  15   4
ENDBRANCH  10  15
TORSDOF 5
ENDMDL
MODEL 4
REMARK VINA RESULT:       6.7      2.216      6.902
REMARK  Name = 40777141
REMARK  6 active torsions:
REMARK  status: ('A' for Active; 'I' for Inactive)
REMARK    1  A    between atoms: N_4  and  C_15
REMARK    2  A    between atoms: N_6  and  C_18
REMARK    3  A    between atoms: C_9  and  C_16
REMARK    4  A    between atoms: C_10  and  C_15
REMARK    5  A    between atoms: C_20  and  C_27
REMARK    6  A    between atoms: C_23  and  C_28
REMARK                            x       y       z     vdW  Elec       q    Type
REMARK                         _______ _______ _______ _____ _____    ______ ____
ROOT
ATOM      3  N   UNL     1      -4.245   4.371  24.243  0.00  0.00    -0.297 NA
ATOM      8  C   UNL     1      -1.912   4.730  25.344  0.00  0.00    +0.002 C 
ATOM      9  C   UNL     1      -1.816   3.695  24.189  0.00  0.00    +0.055 C 
ATOM     10  C   UNL     1      -4.357   4.245  25.720  0.00  0.00    +0.074 C 
ATOM     11  C   UNL     1      -2.957   4.248  26.373  0.00  0.00    +0.024 C 
ATOM     12  C   UNL     1      -2.454   6.037  24.726  0.00  0.00    +0.019 C 
ATOM     13  C   UNL     1      -3.267   3.385  23.721  0.00  0.00    +0.094 C 
ATOM     14  C   UNL     1      -3.740   5.731  23.938  0.00  0.00    +0.085 C 
ENDROOT
BRANCH   9  16
ATOM      5  N   UNL     1      -1.494   1.549  25.320  0.00  0.00    -0.237 NA
ATOM      7  N   UNL     1       0.415   0.145  24.887  0.00  0.00    -0.232 NA
ATOM     16  C   UNL     1      -1.002   2.430  24.424  0.00  0.00    +0.050 A 
ATOM     17  C   UNL     1       0.176   2.241  23.730  0.00  0.00    +0.052 A 
ATOM     20  C   UNL     1       0.849   1.068  24.005  0.00  0.00    +0.076 A 
ATOM     23  C   UNL     1      -0.745   0.445  25.500  0.00  0.00    +0.127 A 
ATOM     28  C   UNL     1      -1.257  -0.551  26.485  0.00  0.00    +0.088 C 
BRANCH  20  27
ATOM      1 BR   UNL     1       0.568  -0.623  21.305  0.00  0.00    -0.050 Br
ATOM     27  C   UNL     1       2.095   0.752  23.347  0.00  0.00    +0.014 A 
ATOM     29  C   UNL     1       2.140   0.020  22.160  0.00  0.00    +0.027 A 
ATOM     30  C   UNL     1       3.277   1.201  23.934  0.00  0.00    +0.011 A 
ATOM     31  C   UNL     1       3.367  -0.261  21.561  0.00  0.00    +0.016 A 
ATOM     32  C   UNL     1       4.505   0.920  23.335  0.00  0.00    +0.001 A 
ATOM     33  C   UNL     1       4.550   0.188  22.148  0.00  0.00    +0.001 A 
ENDBRANCH  20  27
ENDBRANCH   9  16
BRANCH  10  15
ATOM     15  C   UNL     1      -5.180   3.027  26.141  0.00  0.00    +0.124 C 
BRANCH  15   4
ATOM      2  O   UNL     1      -5.849   1.057  24.156  0.00  0.00    -0.253 OA
ATOM      4  N   UNL     1      -4.473   1.813  25.868  0.00  0.00    -0.298 N 
ATOM      6  N   UNL     1      -4.007  -0.192  24.820  0.00  0.00    -0.297 N 
ATOM     19  C   UNL     1      -4.865   0.902  24.880  0.00  0.00    +0.300 C 
ATOM     34  H   UNL     1      -3.648   1.599  26.420  0.00  0.00    +0.150 HD
ATOM     35  H   UNL     1      -3.269  -0.256  25.514  0.00  0.00    +0.151 HD
BRANCH   6  18
ATOM     18  C   UNL     1      -4.182  -1.284  23.887  0.00  0.00    +0.074 C 
ATOM     21  C   UNL     1      -2.976  -1.404  22.948  0.00  0.00    +0.022 C 
ATOM     22  C   UNL     1      -4.447  -2.601  24.623  0.00  0.00    +0.022 C 
ATOM     24  C   UNL     1      -1.734  -1.941  23.659  0.00  0.00    +0.002 C 
ATOM     25  C   UNL     1      -3.201  -3.136  25.330  0.00  0.00    +0.002 C 
ATOM     26  C   UNL     1      -2.019  -3.258  24.374  0.00  0.00    +0.000 C 
ENDBRANCH   6  18
ENDBRANCH  15   4
ENDBRANCH  10  15
TORSDOF 5
ENDMDL
