MODEL 1
REMARK VINA RESULT:      -2.5      0.000      0.000
REMARK  Name = 45783806
REMARK  9 active torsions:
REMARK  status: ('A' for Active; 'I' for Inactive)
REMARK    1  A    between atoms: O_3  and  C_21
REMARK    2  A    between atoms: N_4  and  C_13
REMARK    3  A    between atoms: N_8  and  C_25
REMARK    4  A    between atoms: N_8  and  C_26
REMARK    5  A    between atoms: N_8  and  C_27
REMARK    6  A    between atoms: C_9  and  C_14
REMARK    7  A    between atoms: C_13  and  C_15
REMARK    8  A    between atoms: C_17  and  C_20
REMARK    9  A    between atoms: C_18  and  C_21
REMARK                            x       y       z     vdW  Elec       q    Type
REMARK                         _______ _______ _______ _____ _____    ______ ____
ROOT
ATOM      4  N   UNL     1      -4.712   1.665  25.352  0.00  0.00    -0.284 NA
ATOM      9  C   UNL     1      -4.463   2.451  24.127  0.00  0.00    +0.146 C 
ATOM     10  C   UNL     1      -4.523   3.920  24.587  0.00  0.00    +0.030 C 
ATOM     11  C   UNL     1      -4.870   3.859  26.068  0.00  0.00    +0.017 C 
ATOM     12  C   UNL     1      -5.533   2.506  26.224  0.00  0.00    +0.085 C 
ENDROOT
BRANCH   9  14
ATOM      1  O   UNL     1      -3.076   2.282  22.122  0.00  0.00    -0.336 OA
ATOM      5  N   UNL     1      -2.047   1.635  24.003  0.00  0.00    -0.190 NA
ATOM      6  N   UNL     1      -1.784   1.894  21.745  0.00  0.00    -0.056 NA
ATOM     14  C   UNL     1      -3.147   2.099  23.467  0.00  0.00    +0.245 A 
ATOM     17  C   UNL     1      -1.239   1.525  22.909  0.00  0.00    +0.204 A 
BRANCH  17  20
ATOM      7  N   UNL     1       2.371   1.388  23.792  0.00  0.00    -0.240 NA
ATOM     20  C   UNL     1       0.109   1.044  23.011  0.00  0.00    +0.041 A 
ATOM     22  C   UNL     1       0.477  -0.178  22.459  0.00  0.00    +0.016 A 
ATOM     23  C   UNL     1       1.084   1.783  23.661  0.00  0.00    +0.124 A 
ATOM     24  C   UNL     1       1.792  -0.617  22.574  0.00  0.00    +0.044 A 
ATOM     25  C   UNL     1       2.691   0.196  23.244  0.00  0.00    +0.121 A 
BRANCH  25   8
ATOM      8  N   UNL     1       4.026  -0.266  23.353  0.00  0.00    -0.321 N 
ATOM     26  C   UNL     1       4.296  -1.616  23.795  0.00  0.00    +0.130 C 
ATOM     27  C   UNL     1       5.129   0.613  23.031  0.00  0.00    +0.130 C 
ENDBRANCH  25   8
ENDBRANCH  17  20
ENDBRANCH   9  14
BRANCH   4  13
ATOM     13  C   UNL     1      -5.335   0.374  25.088  0.00  0.00    +0.159 C 
BRANCH  13  15
ATOM      2  O   UNL     1      -3.097  -0.537  25.387  0.00  0.00    -0.461 OA
ATOM     15  C   UNL     1      -4.314  -0.694  24.801  0.00  0.00    +0.119 A 
ATOM     16  C   UNL     1      -4.340  -1.843  24.044  0.00  0.00    +0.046 A 
ATOM     18  C   UNL     1      -2.339  -1.596  25.000  0.00  0.00    +0.131 A 
ATOM     19  C   UNL     1      -3.059  -2.428  24.174  0.00  0.00    +0.047 A 
BRANCH  18  21
ATOM     21  C   UNL     1      -0.966  -1.637  25.521  0.00  0.00    +0.230 C 
BRANCH  21   3
ATOM      3  O   UNL     1      -0.581  -0.346  26.000  0.00  0.00    -0.387 OA
ATOM     28  H   UNL     1       0.215  -0.086  25.505  0.00  0.00    +0.210 HD
ENDBRANCH  21   3
ENDBRANCH  18  21
ENDBRANCH  13  15
ENDBRANCH   4  13
TORSDOF 7
ENDMDL
MODEL 2
REMARK VINA RESULT:      -0.8      1.797      3.197
REMARK  Name = 45783806
REMARK  9 active torsions:
REMARK  status: ('A' for Active; 'I' for Inactive)
REMARK    1  A    between atoms: O_3  and  C_21
REMARK    2  A    between atoms: N_4  and  C_13
REMARK    3  A    between atoms: N_8  and  C_25
REMARK    4  A    between atoms: N_8  and  C_26
REMARK    5  A    between atoms: N_8  and  C_27
REMARK    6  A    between atoms: C_9  and  C_14
REMARK    7  A    between atoms: C_13  and  C_15
REMARK    8  A    between atoms: C_17  and  C_20
REMARK    9  A    between atoms: C_18  and  C_21
REMARK                            x       y       z     vdW  Elec       q    Type
REMARK                         _______ _______ _______ _____ _____    ______ ____
ROOT
ATOM      4  N   UNL     1      -4.943   2.970  25.250  0.00  0.00    -0.284 NA
ATOM      9  C   UNL     1      -4.377   1.609  25.335  0.00  0.00    +0.146 C 
ATOM     10  C   UNL     1      -5.529   0.679  24.910  0.00  0.00    +0.030 C 
ATOM     11  C   UNL     1      -6.715   1.602  24.666  0.00  0.00    +0.017 C 
ATOM     12  C   UNL     1      -6.382   2.835  25.481  0.00  0.00    +0.085 C 
ENDROOT
BRANCH   9  14
ATOM      1  O   UNL     1      -3.261   1.780  23.167  0.00  0.00    -0.336 OA
ATOM      5  N   UNL     1      -1.953   1.003  24.811  0.00  0.00    -0.190 NA
ATOM      6  N   UNL     1      -2.009   1.540  22.587  0.00  0.00    -0.056 NA
ATOM     14  C   UNL     1      -3.141   1.438  24.477  0.00  0.00    +0.245 A 
ATOM     17  C   UNL     1      -1.292   1.082  23.619  0.00  0.00    +0.204 A 
BRANCH  17  20
ATOM      7  N   UNL     1       2.417   1.335  23.524  0.00  0.00    -0.240 NA
ATOM     20  C   UNL     1       0.084   0.699  23.493  0.00  0.00    +0.041 A 
ATOM     22  C   UNL     1       0.439  -0.619  23.227  0.00  0.00    +0.016 A 
ATOM     23  C   UNL     1       1.101   1.630  23.631  0.00  0.00    +0.124 A 
ATOM     24  C   UNL     1       1.782  -0.961  23.109  0.00  0.00    +0.044 A 
ATOM     25  C   UNL     1       2.723   0.045  23.265  0.00  0.00    +0.121 A 
BRANCH  25   8
ATOM      8  N   UNL     1       4.087  -0.319  23.143  0.00  0.00    -0.321 N 
ATOM     26  C   UNL     1       4.580  -1.519  23.782  0.00  0.00    +0.130 C 
ATOM     27  C   UNL     1       4.997   0.511  22.386  0.00  0.00    +0.130 C 
ENDBRANCH  25   8
ENDBRANCH  17  20
ENDBRANCH   9  14
BRANCH   4  13
ATOM     13  C   UNL     1      -4.324   3.908  26.178  0.00  0.00    +0.159 C 
BRANCH  13  15
ATOM      2  O   UNL     1      -1.938   3.455  26.336  0.00  0.00    -0.461 OA
ATOM     15  C   UNL     1      -2.907   4.232  25.786  0.00  0.00    +0.119 A 
ATOM     16  C   UNL     1      -2.353   5.182  24.959  0.00  0.00    +0.046 A 
ATOM     18  C   UNL     1      -0.752   3.913  25.856  0.00  0.00    +0.131 A 
ATOM     19  C   UNL     1      -0.954   4.974  25.004  0.00  0.00    +0.047 A 
BRANCH  18  21
ATOM     21  C   UNL     1       0.452   3.212  26.321  0.00  0.00    +0.230 C 
BRANCH  21   3
ATOM      3  O   UNL     1       0.093   1.991  26.971  0.00  0.00    -0.387 OA
ATOM     28  H   UNL     1       0.008   2.188  27.921  0.00  0.00    +0.210 HD
ENDBRANCH  21   3
ENDBRANCH  18  21
ENDBRANCH  13  15
ENDBRANCH   4  13
TORSDOF 7
ENDMDL
MODEL 3
REMARK VINA RESULT:       1.1      1.937      3.957
REMARK  Name = 45783806
REMARK  9 active torsions:
REMARK  status: ('A' for Active; 'I' for Inactive)
REMARK    1  A    between atoms: O_3  and  C_21
REMARK    2  A    between atoms: N_4  and  C_13
REMARK    3  A    between atoms: N_8  and  C_25
REMARK    4  A    between atoms: N_8  and  C_26
REMARK    5  A    between atoms: N_8  and  C_27
REMARK    6  A    between atoms: C_9  and  C_14
REMARK    7  A    between atoms: C_13  and  C_15
REMARK    8  A    between atoms: C_17  and  C_20
REMARK    9  A    between atoms: C_18  and  C_21
REMARK                            x       y       z     vdW  Elec       q    Type
REMARK                         _______ _______ _______ _____ _____    ______ ____
ROOT
ATOM      4  N   UNL     1      -3.843  -0.455  24.456  0.00  0.00    -0.284 NA
ATOM      9  C   UNL     1      -2.635  -1.247  24.761  0.00  0.00    +0.146 C 
ATOM     10  C   UNL     1      -2.916  -2.636  24.156  0.00  0.00    +0.030 C 
ATOM     11  C   UNL     1      -4.326  -2.544  23.589  0.00  0.00    +0.017 C 
ATOM     12  C   UNL     1      -4.952  -1.406  24.368  0.00  0.00    +0.085 C 
ENDROOT
BRANCH   9  14
ATOM      1  O   UNL     1      -1.530   0.506  23.466  0.00  0.00    -0.336 OA
ATOM      5  N   UNL     1      -0.127  -0.994  24.358  0.00  0.00    -0.190 NA
ATOM      6  N   UNL     1      -0.242   0.900  23.080  0.00  0.00    -0.056 NA
ATOM     14  C   UNL     1      -1.372  -0.616  24.215  0.00  0.00    +0.245 A 
ATOM     17  C   UNL     1       0.530  -0.035  23.644  0.00  0.00    +0.204 A 
BRANCH  17  20
ATOM      7  N   UNL     1       4.052  -1.223  23.741  0.00  0.00    -0.240 NA
ATOM     20  C   UNL     1       1.958  -0.036  23.515  0.00  0.00    +0.041 A 
ATOM     22  C   UNL     1       2.637   1.090  23.061  0.00  0.00    +0.016 A 
ATOM     23  C   UNL     1       2.705  -1.156  23.840  0.00  0.00    +0.124 A 
ATOM     24  C   UNL     1       4.023   1.060  22.947  0.00  0.00    +0.044 A 
ATOM     25  C   UNL     1       4.677  -0.110  23.297  0.00  0.00    +0.121 A 
BRANCH  25   8
ATOM      8  N   UNL     1       6.089  -0.126  23.174  0.00  0.00    -0.321 N 
ATOM     26  C   UNL     1       6.890   0.865  23.856  0.00  0.00    +0.130 C 
ATOM     27  C   UNL     1       6.737  -1.129  22.358  0.00  0.00    +0.130 C 
ENDBRANCH  25   8
ENDBRANCH  17  20
ENDBRANCH   9  14
BRANCH   4  13
ATOM     13  C   UNL     1      -4.099   0.598  25.430  0.00  0.00    +0.159 C 
BRANCH  13  15
ATOM      2  O   UNL     1      -2.830   2.674  25.489  0.00  0.00    -0.461 OA
ATOM     15  C   UNL     1      -3.809   1.965  24.869  0.00  0.00    +0.119 A 
ATOM     16  C   UNL     1      -4.339   2.685  23.823  0.00  0.00    +0.046 A 
ATOM     18  C   UNL     1      -2.733   3.860  24.832  0.00  0.00    +0.131 A 
ATOM     19  C   UNL     1      -3.640   3.915  23.800  0.00  0.00    +0.047 A 
BRANCH  18  21
ATOM     21  C   UNL     1      -1.723   4.801  25.335  0.00  0.00    +0.230 C 
BRANCH  21   3
ATOM      3  O   UNL     1      -0.478   4.594  24.663  0.00  0.00    -0.387 OA
ATOM     28  H   UNL     1      -0.685   4.431  23.726  0.00  0.00    +0.210 HD
ENDBRANCH  21   3
ENDBRANCH  18  21
ENDBRANCH  13  15
ENDBRANCH   4  13
TORSDOF 7
ENDMDL
