MODEL 1
REMARK VINA RESULT:       4.2      0.000      0.000
REMARK  Name = 40777542
REMARK  6 active torsions:
REMARK  status: ('A' for Active; 'I' for Inactive)
REMARK    1  A    between atoms: N_2  and  C_9
REMARK    2  A    between atoms: N_5  and  C_20
REMARK    3  A    between atoms: C_7  and  C_10
REMARK    4  A    between atoms: C_13  and  C_15
REMARK    5  A    between atoms: C_14  and  C_16
REMARK    6  A    between atoms: C_20  and  C_21
REMARK                            x       y       z     vdW  Elec       q    Type
REMARK                         _______ _______ _______ _____ _____    ______ ____
ROOT
ATOM      7  C   UNL     1      -2.463   0.024  24.842  0.00  0.00    +0.047 C 
ATOM      8  C   UNL     1      -3.603  -0.104  23.811  0.00  0.00    +0.039 C 
ATOM      9  C   UNL     1      -4.831  -0.573  24.601  0.00  0.00    +0.098 C 
ATOM     11  C   UNL     1      -2.935  -0.862  25.958  0.00  0.00    -0.021 C 
ATOM     12  C   UNL     1      -4.226  -1.181  25.825  0.00  0.00    -0.009 C 
ENDROOT
BRANCH   7  10
ATOM      3  N   UNL     1       0.930  -0.275  23.492  0.00  0.00    -0.218 N 
ATOM      4  N   UNL     1       0.635  -1.586  23.492  0.00  0.00    -0.170 NA
ATOM      6  N   UNL     1       2.692   1.281  23.586  0.00  0.00    -0.236 NA
ATOM     10  C   UNL     1      -1.106  -0.335  24.281  0.00  0.00    +0.003 A 
ATOM     13  C   UNL     1      -0.080   0.516  23.955  0.00  0.00    +0.048 A 
ATOM     14  C   UNL     1      -0.610  -1.617  23.974  0.00  0.00    +0.064 A 
ATOM     15  C   UNL     1       0.020   1.988  24.048  0.00  0.00    +0.066 C 
ATOM     16  C   UNL     1      -1.295  -2.913  24.128  0.00  0.00    +0.068 C 
ATOM     18  C   UNL     1       2.179   0.155  23.042  0.00  0.00    +0.154 A 
ATOM     19  C   UNL     1       2.816  -0.598  22.069  0.00  0.00    +0.048 A 
ATOM     22  C   UNL     1       4.061  -0.168  21.626  0.00  0.00    +0.005 A 
ATOM     23  C   UNL     1       3.904   1.669  23.129  0.00  0.00    +0.113 A 
ATOM     24  C   UNL     1       4.623   0.986  22.160  0.00  0.00    +0.020 A 
ENDBRANCH   7  10
BRANCH   9   2
ATOM      1  O   UNL     1      -4.117   2.214  24.829  0.00  0.00    -0.253 OA
ATOM      2  N   UNL     1      -5.690   0.513  24.990  0.00  0.00    -0.293 N 
ATOM      5  N   UNL     1      -6.295   2.684  25.475  0.00  0.00    -0.295 N 
ATOM     17  C   UNL     1      -5.262   1.839  25.076  0.00  0.00    +0.300 C 
ATOM     30  H   UNL     1      -6.647   0.307  25.264  0.00  0.00    +0.151 HD
ATOM     31  H   UNL     1      -7.217   2.288  25.634  0.00  0.00    +0.151 HD
BRANCH   5  20
ATOM     20  C   UNL     1      -6.121   4.108  25.643  0.00  0.00    +0.141 C 
BRANCH  20  21
ATOM     21  C   UNL     1      -4.685   4.520  25.496  0.00  0.00    -0.030 A 
ATOM     25  C   UNL     1      -3.798   4.348  26.559  0.00  0.00    +0.005 A 
ATOM     26  C   UNL     1      -4.237   5.074  24.298  0.00  0.00    +0.005 A 
ATOM     27  C   UNL     1      -2.464   4.730  26.423  0.00  0.00    +0.000 A 
ATOM     28  C   UNL     1      -2.903   5.456  24.161  0.00  0.00    +0.000 A 
ATOM     29  C   UNL     1      -2.016   5.284  25.224  0.00  0.00    +0.000 A 
ENDBRANCH  20  21
ENDBRANCH   5  20
ENDBRANCH   9   2
TORSDOF 4
ENDMDL
MODEL 2
REMARK VINA RESULT:       5.8      1.478      2.401
REMARK  Name = 40777542
REMARK  6 active torsions:
REMARK  status: ('A' for Active; 'I' for Inactive)
REMARK    1  A    between atoms: N_2  and  C_9
REMARK    2  A    between atoms: N_5  and  C_20
REMARK    3  A    between atoms: C_7  and  C_10
REMARK    4  A    between atoms: C_13  and  C_15
REMARK    5  A    between atoms: C_14  and  C_16
REMARK    6  A    between atoms: C_20  and  C_21
REMARK                            x       y       z     vdW  Elec       q    Type
REMARK                         _______ _______ _______ _____ _____    ______ ____
ROOT
ATOM      7  C   UNL     1      -1.375   0.121  24.604  0.00  0.00    +0.047 C 
ATOM      8  C   UNL     1      -2.243  -0.433  23.455  0.00  0.00    +0.039 C 
ATOM      9  C   UNL     1      -3.211  -1.429  24.105  0.00  0.00    +0.098 C 
ATOM     11  C   UNL     1      -1.516  -0.940  25.656  0.00  0.00    -0.021 C 
ATOM     12  C   UNL     1      -2.520  -1.779  25.382  0.00  0.00    -0.009 C 
ENDROOT
BRANCH   7  10
ATOM      3  N   UNL     1       2.185   0.284  23.755  0.00  0.00    -0.218 N 
ATOM      4  N   UNL     1       1.874   1.543  23.403  0.00  0.00    -0.170 NA
ATOM      6  N   UNL     1       3.687  -1.485  23.366  0.00  0.00    -0.236 NA
ATOM     10  C   UNL     1       0.048   0.415  24.189  0.00  0.00    +0.003 A 
ATOM     13  C   UNL     1       1.127  -0.433  24.231  0.00  0.00    +0.048 A 
ATOM     14  C   UNL     1       0.567   1.618  23.671  0.00  0.00    +0.064 A 
ATOM     15  C   UNL     1       1.234  -1.838  24.675  0.00  0.00    +0.066 C 
ATOM     16  C   UNL     1      -0.155   2.876  23.411  0.00  0.00    +0.068 C 
ATOM     18  C   UNL     1       3.497  -0.170  23.614  0.00  0.00    +0.154 A 
ATOM     19  C   UNL     1       4.523   0.753  23.735  0.00  0.00    +0.048 A 
ATOM     22  C   UNL     1       5.829   0.297  23.591  0.00  0.00    +0.005 A 
ATOM     23  C   UNL     1       4.970  -1.892  23.233  0.00  0.00    +0.113 A 
ATOM     24  C   UNL     1       6.065  -1.049  23.336  0.00  0.00    +0.020 A 
ENDBRANCH   7  10
BRANCH   9   2
ATOM      1  O   UNL     1      -3.765   1.346  24.673  0.00  0.00    -0.253 OA
ATOM      2  N   UNL     1      -4.490  -0.845  24.407  0.00  0.00    -0.293 N 
ATOM      5  N   UNL     1      -6.007   0.810  24.933  0.00  0.00    -0.295 N 
ATOM     17  C   UNL     1      -4.672   0.514  24.671  0.00  0.00    +0.300 C 
ATOM     30  H   UNL     1      -5.302  -1.452  24.481  0.00  0.00    +0.151 HD
ATOM     31  H   UNL     1      -6.692   0.061  24.885  0.00  0.00    +0.151 HD
BRANCH   5  20
ATOM     20  C   UNL     1      -6.470   2.144  25.237  0.00  0.00    +0.141 C 
BRANCH  20  21
ATOM     21  C   UNL     1      -5.333   3.116  25.368  0.00  0.00    -0.030 A 
ATOM     25  C   UNL     1      -4.758   3.352  26.618  0.00  0.00    +0.005 A 
ATOM     26  C   UNL     1      -4.850   3.782  24.243  0.00  0.00    +0.005 A 
ATOM     27  C   UNL     1      -3.702   4.254  26.741  0.00  0.00    +0.000 A 
ATOM     28  C   UNL     1      -3.794   4.685  24.365  0.00  0.00    +0.000 A 
ATOM     29  C   UNL     1      -3.220   4.921  25.614  0.00  0.00    +0.000 A 
ENDBRANCH  20  21
ENDBRANCH   5  20
ENDBRANCH   9   2
TORSDOF 4
ENDMDL
