MODEL 1
REMARK VINA RESULT:       7.8      0.000      0.000
REMARK  Name = 45360886
REMARK  9 active torsions:
REMARK  status: ('A' for Active; 'I' for Inactive)
REMARK    1  A    between atoms: N_3  and  C_17
REMARK    2  A    between atoms: N_4  and  C_16
REMARK    3  A    between atoms: N_7  and  C_29
REMARK    4  A    between atoms: N_7  and  C_34
REMARK    5  A    between atoms: N_7  and  C_35
REMARK    6  A    between atoms: C_12  and  C_15
REMARK    7  A    between atoms: C_15  and  C_18
REMARK    8  A    between atoms: C_16  and  C_19
REMARK    9  A    between atoms: C_18  and  C_20
REMARK                            x       y       z     vdW  Elec       q    Type
REMARK                         _______ _______ _______ _____ _____    ______ ____
ROOT
ATOM      1  O   UNL     1      -1.150   1.782  23.143  0.00  0.00    -0.274 OA
ATOM      3  N   UNL     1      -3.150  -0.764  25.264  0.00  0.00    -0.296 NA
ATOM      4  N   UNL     1       0.155  -0.512  23.715  0.00  0.00    -0.286 NA
ATOM      5  N   UNL     1      -3.184   0.784  22.830  0.00  0.00    -0.312 N 
ATOM      8  C   UNL     1      -1.915  -1.332  24.681  0.00  0.00    +0.084 C 
ATOM      9  C   UNL     1      -1.289  -0.629  23.441  0.00  0.00    +0.161 C 
ATOM     10  C   UNL     1      -0.726  -1.376  25.659  0.00  0.00    +0.036 C 
ATOM     11  C   UNL     1       0.476  -1.492  24.746  0.00  0.00    +0.087 C 
ATOM     12  C   UNL     1      -4.331  -0.795  24.355  0.00  0.00    +0.074 C 
ATOM     13  C   UNL     1      -1.839   0.763  23.141  0.00  0.00    +0.232 C 
ATOM     14  C   UNL     1      -4.039  -0.384  22.899  0.00  0.00    +0.123 C 
ATOM     17  C   UNL     1      -3.475  -1.418  26.543  0.00  0.00    +0.105 C 
ATOM     36  H   UNL     1      -3.594   1.669  22.544  0.00  0.00    +0.149 HD
ENDROOT
BRANCH  12  15
ATOM     15  C   UNL     1      -5.444   0.133  24.886  0.00  0.00    +0.029 C 
BRANCH  15  18
ATOM     18  C   UNL     1      -4.943   1.049  25.985  0.00  0.00    +0.098 C 
BRANCH  18  20
ATOM      2  O   UNL     1      -5.459   3.110  24.934  0.00  0.00    -0.275 OA
ATOM      6  N   UNL     1      -3.241   2.753  25.567  0.00  0.00    -0.271 N 
ATOM     20  C   UNL     1      -4.581   2.410  25.440  0.00  0.00    +0.220 C 
ATOM     23  C   UNL     1      -2.189   1.911  26.175  0.00  0.00    +0.118 C 
ATOM     24  C   UNL     1      -2.652   3.960  25.139  0.00  0.00    +0.039 A 
ATOM     25  C   UNL     1      -0.871   2.689  26.107  0.00  0.00    +0.056 C 
ATOM     26  C   UNL     1      -1.287   3.956  25.434  0.00  0.00    -0.024 A 
ATOM     30  C   UNL     1      -3.236   5.052  24.514  0.00  0.00    +0.024 A 
ATOM     31  C   UNL     1      -0.476   5.035  25.113  0.00  0.00    +0.005 A 
ATOM     32  C   UNL     1      -2.425   6.144  24.187  0.00  0.00    +0.002 A 
ATOM     33  C   UNL     1      -1.056   6.136  24.484  0.00  0.00    +0.000 A 
ENDBRANCH  18  20
ENDBRANCH  15  18
ENDBRANCH  12  15
BRANCH   4  16
ATOM     16  C   UNL     1       0.984  -0.672  22.527  0.00  0.00    +0.120 C 
BRANCH  16  19
ATOM     19  C   UNL     1       2.435  -0.389  22.813  0.00  0.00    -0.033 A 
ATOM     21  C   UNL     1       3.240  -1.380  23.377  0.00  0.00    +0.007 A 
ATOM     22  C   UNL     1       2.975   0.862  22.515  0.00  0.00    +0.007 A 
ATOM     27  C   UNL     1       4.584  -1.118  23.642  0.00  0.00    +0.023 A 
ATOM     28  C   UNL     1       4.319   1.123  22.779  0.00  0.00    +0.023 A 
ATOM     29  C   UNL     1       5.124   0.133  23.343  0.00  0.00    +0.029 A 
BRANCH  29   7
ATOM      7  N   UNL     1       6.483   0.396  23.611  0.00  0.00    -0.336 N 
ATOM     34  C   UNL     1       7.514  -0.497  23.122  0.00  0.00    +0.129 C 
ATOM     35  C   UNL     1       6.867   1.568  24.374  0.00  0.00    +0.129 C 
ENDBRANCH  29   7
ENDBRANCH  16  19
ENDBRANCH   4  16
TORSDOF 6
ENDMDL
