MODEL 1
REMARK VINA RESULT:      10.6      0.000      0.000
REMARK  Name = 11886429
REMARK  4 active torsions:
REMARK  status: ('A' for Active; 'I' for Inactive)
REMARK    1  A    between atoms: N_6  and  C_18
REMARK    2  A    between atoms: N_7  and  C_26
REMARK    3  A    between atoms: N_8  and  C_29
REMARK    4  A    between atoms: C_32  and  C_35
REMARK                            x       y       z     vdW  Elec       q    Type
REMARK                         _______ _______ _______ _____ _____    ______ ____
ROOT
ATOM      1  O   UNL     1      -4.618  -0.396  23.573  0.00  0.00    -0.253 OA
ATOM      2  O   UNL     1      -0.031   2.705  26.001  0.00  0.00    -0.266 OA
ATOM      4  N   UNL     1      -4.819   1.432  24.990  0.00  0.00    -0.285 N 
ATOM      5  N   UNL     1      -2.112   3.185  25.051  0.00  0.00    -0.310 N 
ATOM      6  N   UNL     1      -4.340  -0.728  25.825  0.00  0.00    -0.296 N 
ATOM     10  C   UNL     1      -4.251   3.407  26.437  0.00  0.00    +0.027 C 
ATOM     11  C   UNL     1      -4.347   3.676  23.999  0.00  0.00    +0.054 C 
ATOM     12  C   UNL     1      -4.717   4.335  25.325  0.00  0.00    +0.018 C 
ATOM     13  C   UNL     1      -4.930   2.028  26.330  0.00  0.00    +0.114 C 
ATOM     14  C   UNL     1      -5.099   2.341  23.871  0.00  0.00    +0.119 C 
ATOM     15  C   UNL     1      -2.722   3.297  26.382  0.00  0.00    +0.130 C 
ATOM     16  C   UNL     1      -2.853   3.441  23.894  0.00  0.00    +0.027 A 
ATOM     17  C   UNL     1      -4.592   0.071  24.716  0.00  0.00    +0.302 C 
ATOM     19  C   UNL     1      -2.249   3.449  22.693  0.00  0.00    +0.024 A 
ATOM     20  C   UNL     1      -0.729   2.917  25.008  0.00  0.00    +0.273 A 
ATOM     26  C   UNL     1      -0.099   2.911  23.650  0.00  0.00    +0.100 A 
ATOM     27  C   UNL     1      -0.845   3.177  22.573  0.00  0.00    +0.030 A 
ATOM     36  H   UNL     1      -4.466  -0.370  26.761  0.00  0.00    +0.151 HD
ENDROOT
BRANCH  26   7
ATOM      3  O   UNL     1       1.095   0.331  23.733  0.00  0.00    -0.252 OA
ATOM      7  N   UNL     1       1.235   2.640  23.564  0.00  0.00    -0.265 N 
ATOM      8  N   UNL     1       3.169   1.406  23.497  0.00  0.00    -0.269 N 
ATOM     28  C   UNL     1       1.775   1.348  23.611  0.00  0.00    +0.308 C 
ATOM     37  H   UNL     1       1.873   3.415  23.720  0.00  0.00    +0.157 HD
ATOM     38  H   UNL     1       3.579   2.331  23.397  0.00  0.00    +0.156 HD
BRANCH   8  29
ATOM     29  C   UNL     1       4.086   0.329  23.499  0.00  0.00    +0.036 A 
ATOM     30  C   UNL     1       5.435   0.586  23.313  0.00  0.00    +0.042 A 
ATOM     31  C   UNL     1       3.617  -0.961  23.684  0.00  0.00    +0.023 A 
ATOM     32  C   UNL     1       6.338  -0.477  23.313  0.00  0.00    +0.054 A 
ATOM     33  C   UNL     1       4.520  -2.023  23.684  0.00  0.00    +0.003 A 
ATOM     34  C   UNL     1       5.881  -1.781  23.499  0.00  0.00    +0.019 A 
BRANCH  32  35
ATOM      9  N   UNL     1       8.867  -0.028  22.969  0.00  0.00    -0.191 NA
ATOM     35  C   UNL     1       7.732  -0.229  23.124  0.00  0.00    +0.099 C 
ENDBRANCH  32  35
ENDBRANCH   8  29
ENDBRANCH  26   7
BRANCH   6  18
ATOM     18  C   UNL     1      -4.092  -2.149  25.711  0.00  0.00    +0.074 C 
ATOM     21  C   UNL     1      -2.841  -2.554  26.499  0.00  0.00    +0.022 C 
ATOM     22  C   UNL     1      -3.986  -2.573  24.243  0.00  0.00    +0.022 C 
ATOM     23  C   UNL     1      -1.551  -2.068  25.837  0.00  0.00    +0.002 C 
ATOM     24  C   UNL     1      -2.694  -2.089  23.586  0.00  0.00    +0.002 C 
ATOM     25  C   UNL     1      -1.463  -2.513  24.380  0.00  0.00    +0.000 C 
ENDBRANCH   6  18
TORSDOF 4
ENDMDL
