MODEL 1
REMARK VINA RESULT:       3.7      0.000      0.000
REMARK  Name = 11886250
REMARK  8 active torsions:
REMARK  status: ('A' for Active; 'I' for Inactive)
REMARK    1  A    between atoms: O_3  and  C_20
REMARK    2  A    between atoms: O_3  and  C_25
REMARK    3  A    between atoms: O_5  and  C_30
REMARK    4  A    between atoms: O_5  and  C_34
REMARK    5  A    between atoms: N_6  and  C_16
REMARK    6  A    between atoms: N_7  and  C_17
REMARK    7  A    between atoms: N_11  and  C_33
REMARK    8  A    between atoms: C_21  and  C_22
REMARK                            x       y       z     vdW  Elec       q    Type
REMARK                         _______ _______ _______ _____ _____    ______ ____
ROOT
ATOM      1  O   UNL     1      -3.635  -0.873  23.208  0.00  0.00    -0.370 OA
ATOM      2  O   UNL     1      -2.378  -0.825  26.091  0.00  0.00    -0.370 OA
ATOM     14  C   UNL     1      -2.688   0.191  25.119  0.00  0.00    +0.176 C 
ATOM     15  C   UNL     1      -2.396  -0.392  23.750  0.00  0.00    +0.171 C 
ATOM     16  C   UNL     1      -4.181   0.459  25.112  0.00  0.00    +0.171 C 
ATOM     17  C   UNL     1      -1.461  -1.549  24.029  0.00  0.00    +0.130 C 
ATOM     18  C   UNL     1      -4.707  -0.559  24.106  0.00  0.00    +0.190 C 
ATOM     19  C   UNL     1      -1.904  -1.996  25.411  0.00  0.00    +0.185 C 
ENDROOT
BRANCH  16   6
ATOM      6  N   UNL     1      -4.500   1.856  24.806  0.00  0.00    -0.187 N 
ATOM      8  N   UNL     1      -5.747   2.319  24.935  0.00  0.00    -0.041 NA
ATOM      9  N   UNL     1      -4.383   3.936  24.230  0.00  0.00    -0.071 NA
ATOM     10  N   UNL     1      -5.669   3.596  24.581  0.00  0.00    -0.020 NA
ATOM     20  C   UNL     1      -3.674   2.840  24.378  0.00  0.00    +0.342 A 
BRANCH  20   3
ATOM      3  O   UNL     1      -2.382   2.699  24.151  0.00  0.00    -0.423 OA
BRANCH   3  25
ATOM     25  C   UNL     1      -1.441   2.681  25.172  0.00  0.00    +0.132 A 
ATOM     28  C   UNL     1      -0.148   2.289  24.886  0.00  0.00    +0.048 A 
ATOM     29  C   UNL     1      -1.828   3.055  26.445  0.00  0.00    +0.048 A 
ATOM     31  C   UNL     1       0.796   2.269  25.912  0.00  0.00    +0.031 A 
ATOM     32  C   UNL     1      -0.882   3.035  27.472  0.00  0.00    +0.031 A 
ATOM     33  C   UNL     1       0.429   2.642  27.205  0.00  0.00    +0.067 A 
BRANCH  33  11
ATOM     11  N   UNL     1       1.366   2.623  28.223  0.00  0.00    -0.220 N 
ATOM     12  N   UNL     1       2.622   3.072  28.045  0.00  0.00    -0.154 NA
ATOM     13  N   UNL     1       2.302   2.317  30.180  0.00  0.00    -0.222 NA
ATOM     35  C   UNL     1       1.190   2.176  29.499  0.00  0.00    +0.225 A 
ATOM     36  C   UNL     1       3.145   2.865  29.255  0.00  0.00    +0.245 A 
ENDBRANCH  33  11
ENDBRANCH   3  25
ENDBRANCH  20   3
ENDBRANCH  16   6
BRANCH  17   7
ATOM      4  O   UNL     1       0.060  -0.639  21.770  0.00  0.00    -0.270 OA
ATOM      7  N   UNL     1      -0.085  -1.119  24.035  0.00  0.00    -0.304 N 
ATOM     21  C   UNL     1       0.569  -0.693  22.888  0.00  0.00    +0.244 C 
ATOM     37  H   UNL     1       0.431  -1.246  24.899  0.00  0.00    +0.149 HD
BRANCH  21  22
ATOM     22  C   UNL     1       1.994  -0.307  23.055  0.00  0.00    +0.037 A 
ATOM     23  C   UNL     1       2.380   0.975  22.727  0.00  0.00    +0.016 A 
ATOM     24  C   UNL     1       2.885  -1.245  23.533  0.00  0.00    +0.016 A 
ATOM     26  C   UNL     1       3.718   1.337  22.884  0.00  0.00    +0.046 A 
ATOM     27  C   UNL     1       4.224  -0.883  23.691  0.00  0.00    +0.046 A 
ATOM     30  C   UNL     1       4.639   0.408  23.365  0.00  0.00    +0.120 A 
BRANCH  30   5
ATOM      5  O   UNL     1       5.946   0.761  23.517  0.00  0.00    -0.495 OA
ATOM     34  C   UNL     1       6.919  -0.270  23.358  0.00  0.00    +0.277 C 
ENDBRANCH  30   5
ENDBRANCH  21  22
ENDBRANCH  17   7
TORSDOF 7
ENDMDL
