MODEL 1
REMARK VINA RESULT:      -1.1      0.000      0.000
REMARK  Name = 45784069
REMARK  4 active torsions:
REMARK  status: ('A' for Active; 'I' for Inactive)
REMARK    1  A    between atoms: O_2  and  C_17
REMARK    2  A    between atoms: O_2  and  C_25
REMARK    3  A    between atoms: N_6  and  C_19
REMARK    4  A    between atoms: C_7  and  C_11
REMARK                            x       y       z     vdW  Elec       q    Type
REMARK                         _______ _______ _______ _____ _____    ______ ____
ROOT
ATOM      1  O   UNL     1      -2.080 -10.781  11.387  0.00  0.00    -0.252 OA
ATOM      3  N   UNL     1      -3.990  -9.600  10.908  0.00  0.00    -0.285 N 
ATOM      6  N   UNL     1      -1.958  -8.464  11.135  0.00  0.00    -0.269 N 
ATOM      7  C   UNL     1      -6.283 -10.232  10.956  0.00  0.00    +0.074 C 
ATOM      8  C   UNL     1      -6.137  -8.896  10.214  0.00  0.00    +0.032 C 
ATOM      9  C   UNL     1      -4.851 -10.779  10.906  0.00  0.00    +0.120 C 
ATOM     10  C   UNL     1      -4.760  -8.391  10.626  0.00  0.00    +0.110 C 
ATOM     12  C   UNL     1      -2.616  -9.694  11.160  0.00  0.00    +0.306 C 
ATOM     27  H   UNL     1      -2.514  -7.633  10.963  0.00  0.00    +0.156 HD
ENDROOT
BRANCH   7  11
ATOM      4  N   UNL     1      -6.181 -10.315  13.470  0.00  0.00    -0.341 N 
ATOM      5  N   UNL     1      -8.107  -9.620  12.604  0.00  0.00    -0.232 NA
ATOM     11  C   UNL     1      -6.892 -10.043  12.334  0.00  0.00    +0.113 A 
ATOM     13  C   UNL     1      -6.991 -10.050  14.543  0.00  0.00    +0.070 A 
ATOM     14  C   UNL     1      -8.187  -9.618  13.979  0.00  0.00    +0.089 A 
ATOM     15  C   UNL     1      -6.785 -10.149  15.921  0.00  0.00    +0.073 A 
ATOM     16  C   UNL     1      -9.253  -9.259  14.821  0.00  0.00    +0.033 A 
ATOM     17  C   UNL     1      -7.857  -9.787  16.744  0.00  0.00    +0.122 A 
ATOM     18  C   UNL     1      -9.070  -9.351  16.206  0.00  0.00    +0.048 A 
ATOM     26  H   UNL     1      -5.228 -10.653  13.512  0.00  0.00    +0.167 HD
BRANCH  17   2
ATOM      2  O   UNL     1      -7.713  -9.864  18.098  0.00  0.00    -0.495 OA
ATOM     25  C   UNL     1      -6.520 -10.470  18.588  0.00  0.00    +0.277 C 
ENDBRANCH  17   2
ENDBRANCH   7  11
BRANCH   6  19
ATOM     19  C   UNL     1      -0.581  -8.211  11.348  0.00  0.00    +0.035 A 
ATOM     20  C   UNL     1       0.374  -8.809  10.527  0.00  0.00    +0.023 A 
ATOM     21  C   UNL     1      -0.180  -7.363  12.381  0.00  0.00    +0.023 A 
ATOM     22  C   UNL     1       1.730  -8.558  10.736  0.00  0.00    +0.002 A 
ATOM     23  C   UNL     1       1.176  -7.113  12.591  0.00  0.00    +0.002 A 
ATOM     24  C   UNL     1       2.131  -7.711  11.770  0.00  0.00    +0.000 A 
ENDBRANCH   6  19
TORSDOF 3
ENDMDL
