MODEL 1
REMARK VINA RESULT:      14.3      0.000      0.000
REMARK  Name = 7050299
REMARK  5 active torsions:
REMARK  status: ('A' for Active; 'I' for Inactive)
REMARK    1  A    between atoms: N_6  and  C_9
REMARK    2  A    between atoms: N_7  and  C_22
REMARK    3  A    between atoms: C_14  and  C_19
REMARK    4  A    between atoms: C_23  and  C_26
REMARK    5  A    between atoms: C_29  and  C_30
REMARK                            x       y       z     vdW  Elec       q    Type
REMARK                         _______ _______ _______ _____ _____    ______ ____
ROOT
ATOM      1  O   UNL     1      -0.586   3.418  23.903  0.00  0.00    -0.273 OA
ATOM      2  O   UNL     1      -2.867  -0.247  25.616  0.00  0.00    -0.252 OA
ATOM      5  N   UNL     1      -0.733   0.078  24.764  0.00  0.00    -0.273 N 
ATOM      7  N   UNL     1      -2.080   1.863  24.880  0.00  0.00    -0.193 N 
ATOM      9  C   UNL     1       1.089  -0.614  22.670  0.00  0.00    +0.077 C 
ATOM     10  C   UNL     1       0.069   1.131  24.202  0.00  0.00    +0.166 C 
ATOM     11  C   UNL     1       0.482   0.796  22.772  0.00  0.00    +0.054 C 
ATOM     12  C   UNL     1       0.178  -1.669  23.324  0.00  0.00    +0.041 C 
ATOM     13  C   UNL     1      -0.228  -1.284  24.747  0.00  0.00    +0.112 C 
ATOM     15  C   UNL     1      -0.899   2.298  24.287  0.00  0.00    +0.248 C 
ATOM     16  C   UNL     1      -2.003   0.496  25.163  0.00  0.00    +0.316 C 
ENDROOT
BRANCH   7  22
ATOM     22  C   UNL     1      -3.221   2.689  25.142  0.00  0.00    +0.045 A 
ATOM     24  C   UNL     1      -4.496   2.264  24.761  0.00  0.00    +0.024 A 
ATOM     25  C   UNL     1      -3.064   3.921  25.779  0.00  0.00    +0.024 A 
ATOM     27  C   UNL     1      -5.607   3.067  25.015  0.00  0.00    +0.005 A 
ATOM     28  C   UNL     1      -4.175   4.725  26.034  0.00  0.00    +0.005 A 
ATOM     29  C   UNL     1      -5.447   4.298  25.652  0.00  0.00    -0.050 A 
ATOM     30  C   UNL     1      -6.634   5.157  25.925  0.00  0.00    +0.044 C 
ENDBRANCH   7  22
BRANCH   9   6
ATOM      3  O   UNL     1       3.469   0.732  21.695  0.00  0.00    -0.276 OA
ATOM      6  N   UNL     1       2.417  -0.655  23.240  0.00  0.00    -0.312 N 
ATOM     19  C   UNL     1       3.494   0.025  22.699  0.00  0.00    +0.216 C 
ATOM     31  H   UNL     1       2.541  -1.152  24.116  0.00  0.00    +0.149 HD
BRANCH  19  14
ATOM      4  O   UNL     1       9.627  -0.487  22.681  0.00  0.00    -0.276 OA
ATOM      8  N   UNL     1       7.620   0.067  23.712  0.00  0.00    -0.302 N 
ATOM     14  C   UNL     1       4.745  -0.167  23.499  0.00  0.00    +0.078 C 
ATOM     17  C   UNL     1       5.684  -1.118  22.753  0.00  0.00    +0.032 C 
ATOM     18  C   UNL     1       5.421   1.182  23.748  0.00  0.00    +0.032 C 
ATOM     20  C   UNL     1       7.022  -1.249  23.475  0.00  0.00    +0.108 C 
ATOM     21  C   UNL     1       6.766   1.006  24.452  0.00  0.00    +0.108 C 
ATOM     23  C   UNL     1       8.917   0.330  23.273  0.00  0.00    +0.212 C 
ATOM     26  C   UNL     1       9.458   1.709  23.553  0.00  0.00    +0.109 C 
ENDBRANCH  19  14
ENDBRANCH   9   6
TORSDOF 3
ENDMDL
