MODEL 1
REMARK VINA RESULT:      -6.8      0.000      0.000
REMARK  Name = 75367098
REMARK  8 active torsions:
REMARK  status: ('A' for Active; 'I' for Inactive)
REMARK    1  A    between atoms: S_1  and  N_7
REMARK    2  A    between atoms: S_1  and  C_17
REMARK    3  A    between atoms: O_3  and  C_11
REMARK    4  A    between atoms: N_6  and  C_10
REMARK    5  A    between atoms: N_6  and  C_15
REMARK    6  A    between atoms: N_7  and  C_14
REMARK    7  A    between atoms: C_12  and  C_14
REMARK    8  A    between atoms: C_15  and  C_16
REMARK                            x       y       z     vdW  Elec       q    Type
REMARK                         _______ _______ _______ _____ _____    ______ ____
ROOT
ATOM      2  O   UNL     1      -0.443   3.360  25.695  0.00  0.00    -0.371 OA
ATOM     10  C   UNL     1       0.107   1.679  24.109  0.00  0.00    +0.111 C 
ATOM     11  C   UNL     1      -1.373   1.994  24.003  0.00  0.00    +0.164 C 
ATOM     12  C   UNL     1      -1.428   3.372  24.648  0.00  0.00    +0.164 C 
ATOM     13  C   UNL     1       0.437   2.242  25.482  0.00  0.00    +0.181 C 
ENDROOT
BRANCH  11   3
ATOM      3  O   UNL     1      -1.832   2.019  22.666  0.00  0.00    -0.388 OA
ATOM     27  H   UNL     1      -1.628   2.892  22.289  0.00  0.00    +0.210 HD
ENDBRANCH  11   3
BRANCH  10   6
ATOM      6  N   UNL     1       0.414   0.263  23.989  0.00  0.00    -0.302 NA
ATOM     25  H   UNL     1      -0.458  -0.266  23.977  0.00  0.00    +0.123 HD
BRANCH   6  15
ATOM     15  C   UNL     1       1.150  -0.012  22.761  0.00  0.00    +0.156 C 
BRANCH  15  16
ATOM      8  N   UNL     1       3.352  -0.981  23.461  0.00  0.00    -0.347 N 
ATOM      9  N   UNL     1       3.409   1.112  22.721  0.00  0.00    -0.240 NA
ATOM     16  C   UNL     1       2.639   0.076  22.969  0.00  0.00    +0.121 A 
ATOM     20  C   UNL     1       4.661  -0.594  23.533  0.00  0.00    +0.104 A 
ATOM     21  C   UNL     1       4.671   0.701  23.071  0.00  0.00    +0.130 A 
ATOM     28  H   UNL     1       2.982  -1.884  23.725  0.00  0.00    +0.167 HD
ENDBRANCH  15  16
ENDBRANCH   6  15
ENDBRANCH  10   6
BRANCH  12  14
ATOM     14  C   UNL     1      -2.789   3.710  25.228  0.00  0.00    +0.140 C 
BRANCH  14   7
ATOM      7  N   UNL     1      -3.405   2.493  25.793  0.00  0.00    -0.187 NA
ATOM     26  H   UNL     1      -2.791   1.914  26.379  0.00  0.00    +0.148 HD
BRANCH   7   1
ATOM      1  S   UNL     1      -4.701   1.741  24.987  0.00  0.00    +0.058 S 
ATOM      4  O   UNL     1      -4.778   2.243  23.628  0.00  0.00    -0.153 OA
ATOM      5  O   UNL     1      -5.870   1.771  25.844  0.00  0.00    -0.153 OA
BRANCH   1  17
ATOM     17  C   UNL     1      -4.157   0.060  24.916  0.00  0.00    +0.105 A 
ATOM     18  C   UNL     1      -3.254  -0.421  25.863  0.00  0.00    +0.028 A 
ATOM     19  C   UNL     1      -4.628  -0.783  23.909  0.00  0.00    +0.028 A 
ATOM     22  C   UNL     1      -2.822  -1.747  25.805  0.00  0.00    +0.002 A 
ATOM     23  C   UNL     1      -4.196  -2.108  23.851  0.00  0.00    +0.002 A 
ATOM     24  C   UNL     1      -3.293  -2.590  24.798  0.00  0.00    +0.000 A 
ENDBRANCH   1  17
ENDBRANCH   7   1
ENDBRANCH  14   7
ENDBRANCH  12  14
TORSDOF 8
ENDMDL
MODEL 2
REMARK VINA RESULT:      -5.9      1.670      3.836
REMARK  Name = 75367098
REMARK  8 active torsions:
REMARK  status: ('A' for Active; 'I' for Inactive)
REMARK    1  A    between atoms: S_1  and  N_7
REMARK    2  A    between atoms: S_1  and  C_17
REMARK    3  A    between atoms: O_3  and  C_11
REMARK    4  A    between atoms: N_6  and  C_10
REMARK    5  A    between atoms: N_6  and  C_15
REMARK    6  A    between atoms: N_7  and  C_14
REMARK    7  A    between atoms: C_12  and  C_14
REMARK    8  A    between atoms: C_15  and  C_16
REMARK                            x       y       z     vdW  Elec       q    Type
REMARK                         _______ _______ _______ _____ _____    ______ ____
ROOT
ATOM      2  O   UNL     1      -1.722  -2.172  24.014  0.00  0.00    -0.371 OA
ATOM     10  C   UNL     1       0.094  -0.661  24.270  0.00  0.00    +0.111 C 
ATOM     11  C   UNL     1      -1.090  -0.151  25.070  0.00  0.00    +0.164 C 
ATOM     12  C   UNL     1      -1.908  -1.426  25.229  0.00  0.00    +0.164 C 
ATOM     13  C   UNL     1      -0.583  -1.635  23.319  0.00  0.00    +0.181 C 
ENDROOT
BRANCH  11   3
ATOM      3  O   UNL     1      -0.712   0.391  26.320  0.00  0.00    -0.388 OA
ATOM     27  H   UNL     1      -1.268  -0.011  27.009  0.00  0.00    +0.210 HD
ENDBRANCH  11   3
BRANCH  10   6
ATOM      6  N   UNL     1       0.827   0.387  23.580  0.00  0.00    -0.302 NA
ATOM     25  H   UNL     1       1.368   0.920  24.261  0.00  0.00    +0.123 HD
BRANCH   6  15
ATOM     15  C   UNL     1       1.738  -0.174  22.590  0.00  0.00    +0.156 C 
BRANCH  15  16
ATOM      8  N   UNL     1       3.831  -1.168  23.541  0.00  0.00    -0.347 N 
ATOM      9  N   UNL     1       3.944   0.981  22.995  0.00  0.00    -0.240 NA
ATOM     16  C   UNL     1       3.173  -0.083  23.033  0.00  0.00    +0.121 A 
ATOM     20  C   UNL     1       5.103  -0.770  23.848  0.00  0.00    +0.104 A 
ATOM     21  C   UNL     1       5.148   0.560  23.502  0.00  0.00    +0.130 A 
ATOM     28  H   UNL     1       3.450  -2.096  23.668  0.00  0.00    +0.167 HD
ENDBRANCH  15  16
ENDBRANCH   6  15
ENDBRANCH  10   6
BRANCH  12  14
ATOM     14  C   UNL     1      -3.388  -1.167  25.450  0.00  0.00    +0.140 C 
BRANCH  14   7
ATOM      7  N   UNL     1      -3.604   0.266  25.731  0.00  0.00    -0.187 NA
ATOM     26  H   UNL     1      -3.882   0.495  26.694  0.00  0.00    +0.148 HD
BRANCH   7   1
ATOM      1  S   UNL     1      -4.075   1.318  24.480  0.00  0.00    +0.058 S 
ATOM      4  O   UNL     1      -5.453   1.722  24.685  0.00  0.00    -0.153 OA
ATOM      5  O   UNL     1      -3.661   0.754  23.209  0.00  0.00    -0.153 OA
BRANCH   1  17
ATOM     17  C   UNL     1      -3.045   2.723  24.780  0.00  0.00    +0.105 A 
ATOM     18  C   UNL     1      -3.485   3.742  25.625  0.00  0.00    +0.028 A 
ATOM     19  C   UNL     1      -1.796   2.815  24.167  0.00  0.00    +0.028 A 
ATOM     22  C   UNL     1      -2.674   4.853  25.858  0.00  0.00    +0.002 A 
ATOM     23  C   UNL     1      -0.985   3.927  24.401  0.00  0.00    +0.002 A 
ATOM     24  C   UNL     1      -1.424   4.945  25.246  0.00  0.00    +0.000 A 
ENDBRANCH   1  17
ENDBRANCH   7   1
ENDBRANCH  14   7
ENDBRANCH  12  14
TORSDOF 8
ENDMDL
MODEL 3
REMARK VINA RESULT:      -5.0      2.766      5.059
REMARK  Name = 75367098
REMARK  8 active torsions:
REMARK  status: ('A' for Active; 'I' for Inactive)
REMARK    1  A    between atoms: S_1  and  N_7
REMARK    2  A    between atoms: S_1  and  C_17
REMARK    3  A    between atoms: O_3  and  C_11
REMARK    4  A    between atoms: N_6  and  C_10
REMARK    5  A    between atoms: N_6  and  C_15
REMARK    6  A    between atoms: N_7  and  C_14
REMARK    7  A    between atoms: C_12  and  C_14
REMARK    8  A    between atoms: C_15  and  C_16
REMARK                            x       y       z     vdW  Elec       q    Type
REMARK                         _______ _______ _______ _____ _____    ______ ____
ROOT
ATOM      2  O   UNL     1       0.600  -1.039  23.392  0.00  0.00    -0.371 OA
ATOM     10  C   UNL     1       0.490   1.200  24.180  0.00  0.00    +0.111 C 
ATOM     11  C   UNL     1      -0.547   0.367  24.911  0.00  0.00    +0.164 C 
ATOM     12  C   UNL     1       0.003  -1.038  24.700  0.00  0.00    +0.164 C 
ATOM     13  C   UNL     1       0.782   0.324  22.971  0.00  0.00    +0.181 C 
ENDROOT
BRANCH  11   3
ATOM      3  O   UNL     1      -0.643   0.695  26.282  0.00  0.00    -0.388 OA
ATOM     27  H   UNL     1      -1.494   0.364  26.617  0.00  0.00    +0.210 HD
ENDBRANCH  11   3
BRANCH  10   6
ATOM      6  N   UNL     1       0.022   2.527  23.818  0.00  0.00    -0.302 NA
ATOM     25  H   UNL     1      -0.972   2.481  23.594  0.00  0.00    +0.123 HD
BRANCH   6  15
ATOM     15  C   UNL     1       0.217   3.469  24.913  0.00  0.00    +0.156 C 
BRANCH  15  16
ATOM      8  N   UNL     1      -1.914   3.351  26.225  0.00  0.00    -0.347 N 
ATOM      9  N   UNL     1      -1.580   5.232  25.094  0.00  0.00    -0.240 NA
ATOM     16  C   UNL     1      -1.087   4.050  25.391  0.00  0.00    +0.121 A 
ATOM     20  C   UNL     1      -3.004   4.137  26.475  0.00  0.00    +0.104 A 
ATOM     21  C   UNL     1      -2.775   5.293  25.766  0.00  0.00    +0.130 A 
ATOM     28  H   UNL     1      -1.752   2.423  26.591  0.00  0.00    +0.167 HD
ENDBRANCH  15  16
ENDBRANCH   6  15
ENDBRANCH  10   6
BRANCH  12  14
ATOM     14  C   UNL     1      -1.060  -2.118  24.780  0.00  0.00    +0.140 C 
BRANCH  14   7
ATOM      7  N   UNL     1      -2.211  -1.745  23.934  0.00  0.00    -0.187 NA
ATOM     26  H   UNL     1      -1.983  -1.236  23.071  0.00  0.00    +0.148 HD
BRANCH   7   1
ATOM      1  S   UNL     1      -3.742  -1.505  24.636  0.00  0.00    +0.058 S 
ATOM      4  O   UNL     1      -3.645  -1.676  26.073  0.00  0.00    -0.153 OA
ATOM      5  O   UNL     1      -4.730  -2.249  23.878  0.00  0.00    -0.153 OA
BRANCH   1  17
ATOM     17  C   UNL     1      -4.026   0.209  24.311  0.00  0.00    +0.105 A 
ATOM     18  C   UNL     1      -5.055   0.882  24.968  0.00  0.00    +0.028 A 
ATOM     19  C   UNL     1      -3.224   0.886  23.391  0.00  0.00    +0.028 A 
ATOM     22  C   UNL     1      -5.282   2.235  24.708  0.00  0.00    +0.002 A 
ATOM     23  C   UNL     1      -3.451   2.238  23.131  0.00  0.00    +0.002 A 
ATOM     24  C   UNL     1      -4.480   2.912  23.789  0.00  0.00    +0.000 A 
ENDBRANCH   1  17
ENDBRANCH   7   1
ENDBRANCH  14   7
ENDBRANCH  12  14
TORSDOF 8
ENDMDL
MODEL 4
REMARK VINA RESULT:      -5.0      2.532      5.829
REMARK  Name = 75367098
REMARK  8 active torsions:
REMARK  status: ('A' for Active; 'I' for Inactive)
REMARK    1  A    between atoms: S_1  and  N_7
REMARK    2  A    between atoms: S_1  and  C_17
REMARK    3  A    between atoms: O_3  and  C_11
REMARK    4  A    between atoms: N_6  and  C_10
REMARK    5  A    between atoms: N_6  and  C_15
REMARK    6  A    between atoms: N_7  and  C_14
REMARK    7  A    between atoms: C_12  and  C_14
REMARK    8  A    between atoms: C_15  and  C_16
REMARK                            x       y       z     vdW  Elec       q    Type
REMARK                         _______ _______ _______ _____ _____    ______ ____
ROOT
ATOM      2  O   UNL     1      -0.544   2.420  23.304  0.00  0.00    -0.371 OA
ATOM     10  C   UNL     1      -1.235   3.434  25.339  0.00  0.00    +0.111 C 
ATOM     11  C   UNL     1      -0.247   2.325  25.649  0.00  0.00    +0.164 C 
ATOM     12  C   UNL     1       0.456   2.174  24.307  0.00  0.00    +0.164 C 
ATOM     13  C   UNL     1      -1.668   3.065  23.929  0.00  0.00    +0.181 C 
ENDROOT
BRANCH  11   3
ATOM      3  O   UNL     1       0.656   2.671  26.681  0.00  0.00    -0.388 OA
ATOM     27  H   UNL     1       1.552   2.422  26.399  0.00  0.00    +0.210 HD
ENDBRANCH  11   3
BRANCH  10   6
ATOM      6  N   UNL     1      -2.347   3.504  26.273  0.00  0.00    -0.302 NA
ATOM     25  H   UNL     1      -2.060   4.041  27.092  0.00  0.00    +0.123 HD
BRANCH   6  15
ATOM     15  C   UNL     1      -3.502   4.152  25.665  0.00  0.00    +0.156 C 
BRANCH  15  16
ATOM      8  N   UNL     1      -5.557   3.019  26.544  0.00  0.00    -0.347 N 
ATOM      9  N   UNL     1      -4.967   2.477  24.473  0.00  0.00    -0.240 NA
ATOM     16  C   UNL     1      -4.665   3.206  25.525  0.00  0.00    +0.121 A 
ATOM     20  C   UNL     1      -6.486   2.112  26.115  0.00  0.00    +0.104 A 
ATOM     21  C   UNL     1      -6.100   1.793  24.834  0.00  0.00    +0.130 A 
ATOM     28  H   UNL     1      -5.536   3.468  27.449  0.00  0.00    +0.167 HD
ENDBRANCH  15  16
ENDBRANCH   6  15
ENDBRANCH  10   6
BRANCH  12  14
ATOM     14  C   UNL     1       1.063   0.798  24.098  0.00  0.00    +0.140 C 
BRANCH  14   7
ATOM      7  N   UNL     1      -0.012  -0.196  23.911  0.00  0.00    -0.187 NA
ATOM     26  H   UNL     1      -0.641  -0.028  23.115  0.00  0.00    +0.148 HD
BRANCH   7   1
ATOM      1  S   UNL     1      -0.610  -1.067  25.245  0.00  0.00    +0.058 S 
ATOM      4  O   UNL     1      -0.807  -0.161  26.361  0.00  0.00    -0.153 OA
ATOM      5  O   UNL     1       0.180  -2.271  25.413  0.00  0.00    -0.153 OA
BRANCH   1  17
ATOM     17  C   UNL     1      -2.202  -1.571  24.666  0.00  0.00    +0.105 A 
ATOM     18  C   UNL     1      -3.149  -0.612  24.308  0.00  0.00    +0.028 A 
ATOM     19  C   UNL     1      -2.512  -2.928  24.573  0.00  0.00    +0.028 A 
ATOM     22  C   UNL     1      -4.407  -1.011  23.854  0.00  0.00    +0.002 A 
ATOM     23  C   UNL     1      -3.770  -3.326  24.119  0.00  0.00    +0.002 A 
ATOM     24  C   UNL     1      -4.717  -2.367  23.760  0.00  0.00    +0.000 A 
ENDBRANCH   1  17
ENDBRANCH   7   1
ENDBRANCH  14   7
ENDBRANCH  12  14
TORSDOF 8
ENDMDL
MODEL 5
REMARK VINA RESULT:      -4.5      1.766      3.868
REMARK  Name = 75367098
REMARK  8 active torsions:
REMARK  status: ('A' for Active; 'I' for Inactive)
REMARK    1  A    between atoms: S_1  and  N_7
REMARK    2  A    between atoms: S_1  and  C_17
REMARK    3  A    between atoms: O_3  and  C_11
REMARK    4  A    between atoms: N_6  and  C_10
REMARK    5  A    between atoms: N_6  and  C_15
REMARK    6  A    between atoms: N_7  and  C_14
REMARK    7  A    between atoms: C_12  and  C_14
REMARK    8  A    between atoms: C_15  and  C_16
REMARK                            x       y       z     vdW  Elec       q    Type
REMARK                         _______ _______ _______ _____ _____    ______ ____
ROOT
ATOM      2  O   UNL     1      -3.178   0.775  23.104  0.00  0.00    -0.371 OA
ATOM     10  C   UNL     1      -1.164   0.287  24.267  0.00  0.00    +0.111 C 
ATOM     11  C   UNL     1      -2.336  -0.271  25.052  0.00  0.00    +0.164 C 
ATOM     12  C   UNL     1      -3.404  -0.350  23.970  0.00  0.00    +0.164 C 
ATOM     13  C   UNL     1      -1.859   1.290  23.360  0.00  0.00    +0.181 C 
ENDROOT
BRANCH  11   3
ATOM      3  O   UNL     1      -2.063  -1.537  25.617  0.00  0.00    -0.388 OA
ATOM     27  H   UNL     1      -1.274  -1.458  26.179  0.00  0.00    +0.210 HD
ENDBRANCH  11   3
BRANCH  10   6
ATOM      6  N   UNL     1      -0.138   0.892  25.100  0.00  0.00    -0.302 NA
ATOM     25  H   UNL     1       0.459   0.158  25.479  0.00  0.00    +0.123 HD
BRANCH   6  15
ATOM     15  C   UNL     1       0.683   1.818  24.330  0.00  0.00    +0.156 C 
BRANCH  15  16
ATOM      8  N   UNL     1       2.966   1.499  23.348  0.00  0.00    -0.347 N 
ATOM      9  N   UNL     1       1.421   0.046  22.692  0.00  0.00    -0.240 NA
ATOM     16  C   UNL     1       1.663   1.096  23.445  0.00  0.00    +0.121 A 
ATOM     20  C   UNL     1       3.593   0.653  22.477  0.00  0.00    +0.104 A 
ATOM     21  C   UNL     1       2.619  -0.235  22.086  0.00  0.00    +0.130 A 
ATOM     28  H   UNL     1       3.390   2.280  23.831  0.00  0.00    +0.167 HD
ENDBRANCH  15  16
ENDBRANCH   6  15
ENDBRANCH  10   6
BRANCH  12  14
ATOM     14  C   UNL     1      -4.820  -0.300  24.516  0.00  0.00    +0.140 C 
BRANCH  14   7
ATOM      7  N   UNL     1      -4.856   0.553  25.721  0.00  0.00    -0.187 NA
ATOM     26  H   UNL     1      -4.862   0.055  26.620  0.00  0.00    +0.148 HD
BRANCH   7   1
ATOM      1  S   UNL     1      -5.558   2.101  25.647  0.00  0.00    +0.058 S 
ATOM      4  O   UNL     1      -6.119   2.437  26.942  0.00  0.00    -0.153 OA
ATOM      5  O   UNL     1      -6.375   2.192  24.452  0.00  0.00    -0.153 OA
BRANCH   1  17
ATOM     17  C   UNL     1      -4.144   3.129  25.384  0.00  0.00    +0.105 A 
ATOM     18  C   UNL     1      -4.079   3.950  24.258  0.00  0.00    +0.028 A 
ATOM     19  C   UNL     1      -3.091   3.113  26.299  0.00  0.00    +0.028 A 
ATOM     22  C   UNL     1      -2.960   4.758  24.049  0.00  0.00    +0.002 A 
ATOM     23  C   UNL     1      -1.973   3.921  26.088  0.00  0.00    +0.002 A 
ATOM     24  C   UNL     1      -1.908   4.743  24.964  0.00  0.00    +0.000 A 
ENDBRANCH   1  17
ENDBRANCH   7   1
ENDBRANCH  14   7
ENDBRANCH  12  14
TORSDOF 8
ENDMDL
MODEL 6
REMARK VINA RESULT:      -4.4      2.555      3.556
REMARK  Name = 75367098
REMARK  8 active torsions:
REMARK  status: ('A' for Active; 'I' for Inactive)
REMARK    1  A    between atoms: S_1  and  N_7
REMARK    2  A    between atoms: S_1  and  C_17
REMARK    3  A    between atoms: O_3  and  C_11
REMARK    4  A    between atoms: N_6  and  C_10
REMARK    5  A    between atoms: N_6  and  C_15
REMARK    6  A    between atoms: N_7  and  C_14
REMARK    7  A    between atoms: C_12  and  C_14
REMARK    8  A    between atoms: C_15  and  C_16
REMARK                            x       y       z     vdW  Elec       q    Type
REMARK                         _______ _______ _______ _____ _____    ______ ____
ROOT
ATOM      2  O   UNL     1      -1.964   3.541  23.901  0.00  0.00    -0.371 OA
ATOM     10  C   UNL     1       0.002   2.459  24.679  0.00  0.00    +0.111 C 
ATOM     11  C   UNL     1      -0.877   1.442  23.977  0.00  0.00    +0.164 C 
ATOM     12  C   UNL     1      -1.754   2.349  23.126  0.00  0.00    +0.164 C 
ATOM     13  C   UNL     1      -0.993   3.573  24.962  0.00  0.00    +0.181 C 
ENDROOT
BRANCH  11   3
ATOM      3  O   UNL     1      -0.137   0.532  23.187  0.00  0.00    -0.388 OA
ATOM     27  H   UNL     1      -0.544   0.490  22.306  0.00  0.00    +0.210 HD
ENDBRANCH  11   3
BRANCH  10   6
ATOM      6  N   UNL     1       0.639   1.950  25.883  0.00  0.00    -0.302 NA
ATOM     25  H   UNL     1       1.649   2.068  25.802  0.00  0.00    +0.123 HD
BRANCH   6  15
ATOM     15  C   UNL     1       0.173   2.664  27.065  0.00  0.00    +0.156 C 
BRANCH  15  16
ATOM      8  N   UNL     1       0.867   2.060  29.395  0.00  0.00    -0.347 N 
ATOM      9  N   UNL     1       2.415   3.059  28.155  0.00  0.00    -0.240 NA
ATOM     16  C   UNL     1       1.179   2.612  28.184  0.00  0.00    +0.121 A 
ATOM     20  C   UNL     1       1.974   2.162  30.190  0.00  0.00    +0.104 A 
ATOM     21  C   UNL     1       2.916   2.782  29.402  0.00  0.00    +0.130 A 
ATOM     28  H   UNL     1      -0.019   1.650  29.657  0.00  0.00    +0.167 HD
ENDBRANCH  15  16
ENDBRANCH   6  15
ENDBRANCH  10   6
BRANCH  12  14
ATOM     14  C   UNL     1      -3.092   1.728  22.767  0.00  0.00    +0.140 C 
BRANCH  14   7
ATOM      7  N   UNL     1      -4.178   2.464  23.444  0.00  0.00    -0.187 NA
ATOM     26  H   UNL     1      -4.167   3.485  23.324  0.00  0.00    +0.148 HD
BRANCH   7   1
ATOM      1  S   UNL     1      -4.901   1.820  24.843  0.00  0.00    +0.058 S 
ATOM      4  O   UNL     1      -6.334   1.724  24.643  0.00  0.00    -0.153 OA
ATOM      5  O   UNL     1      -4.371   2.505  26.006  0.00  0.00    -0.153 OA
BRANCH   1  17
ATOM     17  C   UNL     1      -4.244   0.179  24.868  0.00  0.00    +0.105 A 
ATOM     18  C   UNL     1      -3.275  -0.170  25.809  0.00  0.00    +0.028 A 
ATOM     19  C   UNL     1      -4.690  -0.765  23.942  0.00  0.00    +0.028 A 
ATOM     22  C   UNL     1      -2.754  -1.464  25.826  0.00  0.00    +0.002 A 
ATOM     23  C   UNL     1      -4.168  -2.059  23.960  0.00  0.00    +0.002 A 
ATOM     24  C   UNL     1      -3.200  -2.408  24.901  0.00  0.00    +0.000 A 
ENDBRANCH   1  17
ENDBRANCH   7   1
ENDBRANCH  14   7
ENDBRANCH  12  14
TORSDOF 8
ENDMDL
MODEL 7
REMARK VINA RESULT:      -4.0      2.349      3.605
REMARK  Name = 75367098
REMARK  8 active torsions:
REMARK  status: ('A' for Active; 'I' for Inactive)
REMARK    1  A    between atoms: S_1  and  N_7
REMARK    2  A    between atoms: S_1  and  C_17
REMARK    3  A    between atoms: O_3  and  C_11
REMARK    4  A    between atoms: N_6  and  C_10
REMARK    5  A    between atoms: N_6  and  C_15
REMARK    6  A    between atoms: N_7  and  C_14
REMARK    7  A    between atoms: C_12  and  C_14
REMARK    8  A    between atoms: C_15  and  C_16
REMARK                            x       y       z     vdW  Elec       q    Type
REMARK                         _______ _______ _______ _____ _____    ______ ____
ROOT
ATOM      2  O   UNL     1      -4.905   3.404  26.397  0.00  0.00    -0.371 OA
ATOM     10  C   UNL     1      -3.133   4.286  25.082  0.00  0.00    +0.111 C 
ATOM     11  C   UNL     1      -3.708   3.067  24.385  0.00  0.00    +0.164 C 
ATOM     12  C   UNL     1      -5.081   2.976  25.036  0.00  0.00    +0.164 C 
ATOM     13  C   UNL     1      -3.644   4.090  26.501  0.00  0.00    +0.181 C 
ENDROOT
BRANCH  11   3
ATOM      3  O   UNL     1      -3.799   3.232  22.983  0.00  0.00    -0.388 OA
ATOM     27  H   UNL     1      -4.713   3.046  22.712  0.00  0.00    +0.210 HD
ENDBRANCH  11   3
BRANCH  10   6
ATOM      6  N   UNL     1      -1.684   4.372  25.010  0.00  0.00    -0.302 NA
ATOM     25  H   UNL     1      -1.379   5.241  25.447  0.00  0.00    +0.123 HD
BRANCH   6  15
ATOM     15  C   UNL     1      -1.057   3.251  25.700  0.00  0.00    +0.156 C 
BRANCH  15  16
ATOM      8  N   UNL     1       0.853   1.827  24.926  0.00  0.00    -0.347 N 
ATOM      9  N   UNL     1      -0.966   1.778  23.653  0.00  0.00    -0.240 NA
ATOM     16  C   UNL     1      -0.421   2.284  24.737  0.00  0.00    +0.121 A 
ATOM     20  C   UNL     1       1.139   0.975  23.896  0.00  0.00    +0.104 A 
ATOM     21  C   UNL     1       0.001   0.961  23.124  0.00  0.00    +0.130 A 
ATOM     28  H   UNL     1       1.472   2.072  25.687  0.00  0.00    +0.167 HD
ENDBRANCH  15  16
ENDBRANCH   6  15
ENDBRANCH  10   6
BRANCH  12  14
ATOM     14  C   UNL     1      -5.666   1.576  25.011  0.00  0.00    +0.140 C 
BRANCH  14   7
ATOM      7  N   UNL     1      -4.606   0.589  25.298  0.00  0.00    -0.187 NA
ATOM     26  H   UNL     1      -3.939   0.853  26.035  0.00  0.00    +0.148 HD
BRANCH   7   1
ATOM      1  S   UNL     1      -4.088  -0.484  24.083  0.00  0.00    +0.058 S 
ATOM      4  O   UNL     1      -3.770   0.265  22.883  0.00  0.00    -0.153 OA
ATOM      5  O   UNL     1      -5.007  -1.605  24.022  0.00  0.00    -0.153 OA
BRANCH   1  17
ATOM     17  C   UNL     1      -2.574  -1.095  24.761  0.00  0.00    +0.105 A 
ATOM     18  C   UNL     1      -2.033  -0.505  25.902  0.00  0.00    +0.028 A 
ATOM     19  C   UNL     1      -1.919  -2.164  24.150  0.00  0.00    +0.028 A 
ATOM     22  C   UNL     1      -0.835  -0.985  26.434  0.00  0.00    +0.002 A 
ATOM     23  C   UNL     1      -0.721  -2.644  24.682  0.00  0.00    +0.002 A 
ATOM     24  C   UNL     1      -0.180  -2.054  25.824  0.00  0.00    +0.000 A 
ENDBRANCH   1  17
ENDBRANCH   7   1
ENDBRANCH  14   7
ENDBRANCH  12  14
TORSDOF 8
ENDMDL
MODEL 8
REMARK VINA RESULT:      -3.8      2.863      6.724
REMARK  Name = 75367098
REMARK  8 active torsions:
REMARK  status: ('A' for Active; 'I' for Inactive)
REMARK    1  A    between atoms: S_1  and  N_7
REMARK    2  A    between atoms: S_1  and  C_17
REMARK    3  A    between atoms: O_3  and  C_11
REMARK    4  A    between atoms: N_6  and  C_10
REMARK    5  A    between atoms: N_6  and  C_15
REMARK    6  A    between atoms: N_7  and  C_14
REMARK    7  A    between atoms: C_12  and  C_14
REMARK    8  A    between atoms: C_15  and  C_16
REMARK                            x       y       z     vdW  Elec       q    Type
REMARK                         _______ _______ _______ _____ _____    ______ ____
ROOT
ATOM      2  O   UNL     1      -2.046  -2.666  25.173  0.00  0.00    -0.371 OA
ATOM     10  C   UNL     1      -3.821  -1.112  24.900  0.00  0.00    +0.111 C 
ATOM     11  C   UNL     1      -2.516  -0.446  24.507  0.00  0.00    +0.164 C 
ATOM     12  C   UNL     1      -1.638  -1.659  24.232  0.00  0.00    +0.164 C 
ATOM     13  C   UNL     1      -3.322  -2.292  25.720  0.00  0.00    +0.181 C 
ENDROOT
BRANCH  11   3
ATOM      3  O   UNL     1      -2.646   0.381  23.367  0.00  0.00    -0.388 OA
ATOM     27  H   UNL     1      -3.156   1.169  23.617  0.00  0.00    +0.210 HD
ENDBRANCH  11   3
BRANCH  10   6
ATOM      6  N   UNL     1      -4.718  -0.244  25.646  0.00  0.00    -0.302 NA
ATOM     25  H   UNL     1      -4.165   0.406  26.205  0.00  0.00    +0.123 HD
BRANCH   6  15
ATOM     15  C   UNL     1      -5.577   0.518  24.748  0.00  0.00    +0.156 C 
BRANCH  15  16
ATOM      8  N   UNL     1      -5.906   2.783  25.768  0.00  0.00    -0.347 N 
ATOM      9  N   UNL     1      -4.492   2.690  24.058  0.00  0.00    -0.240 NA
ATOM     16  C   UNL     1      -5.300   1.996  24.828  0.00  0.00    +0.121 A 
ATOM     20  C   UNL     1      -5.455   4.060  25.585  0.00  0.00    +0.104 A 
ATOM     21  C   UNL     1      -4.584   3.977  24.524  0.00  0.00    +0.130 A 
ATOM     28  H   UNL     1      -6.566   2.479  26.470  0.00  0.00    +0.167 HD
ENDBRANCH  15  16
ENDBRANCH   6  15
ENDBRANCH  10   6
BRANCH  12  14
ATOM     14  C   UNL     1      -0.155  -1.377  24.392  0.00  0.00    +0.140 C 
BRANCH  14   7
ATOM      7  N   UNL     1       0.037   0.001  24.886  0.00  0.00    -0.187 NA
ATOM     26  H   UNL     1      -0.491   0.249  25.732  0.00  0.00    +0.148 HD
BRANCH   7   1
ATOM      1  S   UNL     1       0.463   1.242  23.803  0.00  0.00    +0.058 S 
ATOM      4  O   UNL     1      -0.150   0.988  22.514  0.00  0.00    -0.153 OA
ATOM      5  O   UNL     1       1.891   1.481  23.899  0.00  0.00    -0.153 OA
BRANCH   1  17
ATOM     17  C   UNL     1      -0.342   2.642  24.522  0.00  0.00    +0.105 A 
ATOM     18  C   UNL     1      -0.203   3.902  23.940  0.00  0.00    +0.028 A 
ATOM     19  C   UNL     1      -1.112   2.487  25.675  0.00  0.00    +0.028 A 
ATOM     22  C   UNL     1      -0.836   5.007  24.510  0.00  0.00    +0.002 A 
ATOM     23  C   UNL     1      -1.744   3.593  26.245  0.00  0.00    +0.002 A 
ATOM     24  C   UNL     1      -1.606   4.853  25.662  0.00  0.00    +0.000 A 
ENDBRANCH   1  17
ENDBRANCH   7   1
ENDBRANCH  14   7
ENDBRANCH  12  14
TORSDOF 8
ENDMDL
MODEL 9
REMARK VINA RESULT:      -3.8      2.513      7.053
REMARK  Name = 75367098
REMARK  8 active torsions:
REMARK  status: ('A' for Active; 'I' for Inactive)
REMARK    1  A    between atoms: S_1  and  N_7
REMARK    2  A    between atoms: S_1  and  C_17
REMARK    3  A    between atoms: O_3  and  C_11
REMARK    4  A    between atoms: N_6  and  C_10
REMARK    5  A    between atoms: N_6  and  C_15
REMARK    6  A    between atoms: N_7  and  C_14
REMARK    7  A    between atoms: C_12  and  C_14
REMARK    8  A    between atoms: C_15  and  C_16
REMARK                            x       y       z     vdW  Elec       q    Type
REMARK                         _______ _______ _______ _____ _____    ______ ____
ROOT
ATOM      2  O   UNL     1      -2.612  -2.057  24.388  0.00  0.00    -0.371 OA
ATOM     10  C   UNL     1      -3.887  -0.059  24.545  0.00  0.00    +0.111 C 
ATOM     11  C   UNL     1      -2.464   0.227  24.986  0.00  0.00    +0.164 C 
ATOM     12  C   UNL     1      -1.718  -0.932  24.340  0.00  0.00    +0.164 C 
ATOM     13  C   UNL     1      -3.939  -1.574  24.659  0.00  0.00    +0.181 C 
ENDROOT
BRANCH  11   3
ATOM      3  O   UNL     1      -1.991   1.479  24.530  0.00  0.00    -0.388 OA
ATOM     27  H   UNL     1      -1.465   1.884  25.239  0.00  0.00    +0.210 HD
ENDBRANCH  11   3
BRANCH  10   6
ATOM      6  N   UNL     1      -4.895   0.605  25.356  0.00  0.00    -0.302 NA
ATOM     25  H   UNL     1      -4.496   0.825  26.269  0.00  0.00    +0.123 HD
BRANCH   6  15
ATOM     15  C   UNL     1      -5.344   1.841  24.727  0.00  0.00    +0.156 C 
BRANCH  15  16
ATOM      8  N   UNL     1      -3.984   3.335  26.208  0.00  0.00    -0.347 N 
ATOM      9  N   UNL     1      -3.798   3.708  24.027  0.00  0.00    -0.240 NA
ATOM     16  C   UNL     1      -4.372   2.968  24.949  0.00  0.00    +0.121 A 
ATOM     20  C   UNL     1      -3.108   4.376  26.079  0.00  0.00    +0.104 A 
ATOM     21  C   UNL     1      -3.009   4.588  24.724  0.00  0.00    +0.130 A 
ATOM     28  H   UNL     1      -4.289   2.916  27.076  0.00  0.00    +0.167 HD
ENDBRANCH  15  16
ENDBRANCH   6  15
ENDBRANCH  10   6
BRANCH  12  14
ATOM     14  C   UNL     1      -0.419  -1.279  25.046  0.00  0.00    +0.140 C 
BRANCH  14   7
ATOM      7  N   UNL     1       0.659  -1.439  24.050  0.00  0.00    -0.187 NA
ATOM     26  H   UNL     1       1.354  -2.167  24.258  0.00  0.00    +0.148 HD
BRANCH   7   1
ATOM      1  S   UNL     1       1.133  -0.117  23.088  0.00  0.00    +0.058 S 
ATOM      4  O   UNL     1       0.652   1.112  23.689  0.00  0.00    -0.153 OA
ATOM      5  O   UNL     1       0.838  -0.416  21.700  0.00  0.00    -0.153 OA
BRANCH   1  17
ATOM     17  C   UNL     1       2.892  -0.156  23.261  0.00  0.00    +0.105 A 
ATOM     18  C   UNL     1       3.521  -1.306  23.737  0.00  0.00    +0.028 A 
ATOM     19  C   UNL     1       3.650   0.967  22.927  0.00  0.00    +0.028 A 
ATOM     22  C   UNL     1       4.909  -1.335  23.878  0.00  0.00    +0.002 A 
ATOM     23  C   UNL     1       5.038   0.937  23.068  0.00  0.00    +0.002 A 
ATOM     24  C   UNL     1       5.667  -0.213  23.542  0.00  0.00    +0.000 A 
ENDBRANCH   1  17
ENDBRANCH   7   1
ENDBRANCH  14   7
ENDBRANCH  12  14
TORSDOF 8
ENDMDL
MODEL 10
REMARK VINA RESULT:      -3.6      2.191      3.236
REMARK  Name = 75367098
REMARK  8 active torsions:
REMARK  status: ('A' for Active; 'I' for Inactive)
REMARK    1  A    between atoms: S_1  and  N_7
REMARK    2  A    between atoms: S_1  and  C_17
REMARK    3  A    between atoms: O_3  and  C_11
REMARK    4  A    between atoms: N_6  and  C_10
REMARK    5  A    between atoms: N_6  and  C_15
REMARK    6  A    between atoms: N_7  and  C_14
REMARK    7  A    between atoms: C_12  and  C_14
REMARK    8  A    between atoms: C_15  and  C_16
REMARK                            x       y       z     vdW  Elec       q    Type
REMARK                         _______ _______ _______ _____ _____    ______ ____
ROOT
ATOM      2  O   UNL     1      -0.920   2.840  26.378  0.00  0.00    -0.371 OA
ATOM     10  C   UNL     1       0.153   1.980  24.441  0.00  0.00    +0.111 C 
ATOM     11  C   UNL     1      -0.576   3.260  24.076  0.00  0.00    +0.164 C 
ATOM     12  C   UNL     1      -0.724   3.914  25.443  0.00  0.00    +0.164 C 
ATOM     13  C   UNL     1      -0.529   1.608  25.748  0.00  0.00    +0.181 C 
ENDROOT
BRANCH  11   3
ATOM      3  O   UNL     1       0.159   4.071  23.180  0.00  0.00    -0.388 OA
ATOM     27  H   UNL     1       0.409   4.888  23.642  0.00  0.00    +0.210 HD
ENDBRANCH  11   3
BRANCH  10   6
ATOM      6  N   UNL     1       0.048   0.940  23.431  0.00  0.00    -0.302 NA
ATOM     25  H   UNL     1       0.532   1.245  22.586  0.00  0.00    +0.123 HD
BRANCH   6  15
ATOM     15  C   UNL     1       0.649  -0.304  23.895  0.00  0.00    +0.156 C 
BRANCH  15  16
ATOM      8  N   UNL     1      -1.054  -2.101  23.508  0.00  0.00    -0.347 N 
ATOM      9  N   UNL     1      -0.776  -1.473  25.620  0.00  0.00    -0.240 NA
ATOM     16  C   UNL     1      -0.389  -1.282  24.378  0.00  0.00    +0.121 A 
ATOM     20  C   UNL     1      -1.920  -2.862  24.242  0.00  0.00    +0.104 A 
ATOM     21  C   UNL     1      -1.730  -2.456  25.542  0.00  0.00    +0.130 A 
ATOM     28  H   UNL     1      -0.929  -2.139  22.506  0.00  0.00    +0.167 HD
ENDBRANCH  15  16
ENDBRANCH   6  15
ENDBRANCH  10   6
BRANCH  12  14
ATOM     14  C   UNL     1      -1.890   4.883  25.522  0.00  0.00    +0.140 C 
BRANCH  14   7
ATOM      7  N   UNL     1      -3.086   4.179  26.024  0.00  0.00    -0.187 NA
ATOM     26  H   UNL     1      -2.921   3.500  26.777  0.00  0.00    +0.148 HD
BRANCH   7   1
ATOM      1  S   UNL     1      -4.429   3.948  25.005  0.00  0.00    +0.058 S 
ATOM      4  O   UNL     1      -4.240   4.704  23.782  0.00  0.00    -0.153 OA
ATOM      5  O   UNL     1      -5.643   4.107  25.782  0.00  0.00    -0.153 OA
BRANCH   1  17
ATOM     17  C   UNL     1      -4.292   2.230  24.609  0.00  0.00    +0.105 A 
ATOM     18  C   UNL     1      -4.955   1.281  25.387  0.00  0.00    +0.028 A 
ATOM     19  C   UNL     1      -3.517   1.825  23.523  0.00  0.00    +0.028 A 
ATOM     22  C   UNL     1      -4.843  -0.075  25.076  0.00  0.00    +0.002 A 
ATOM     23  C   UNL     1      -3.406   0.469  23.213  0.00  0.00    +0.002 A 
ATOM     24  C   UNL     1      -4.069  -0.481  23.990  0.00  0.00    +0.000 A 
ENDBRANCH   1  17
ENDBRANCH   7   1
ENDBRANCH  14   7
ENDBRANCH  12  14
TORSDOF 8
ENDMDL
