MODEL 1
REMARK VINA RESULT:       0.8      0.000      0.000
REMARK  Name = 38344451
REMARK  8 active torsions:
REMARK  status: ('A' for Active; 'I' for Inactive)
REMARK    1  A    between atoms: O_2  and  C_29
REMARK    2  A    between atoms: N_4  and  C_13
REMARK    3  A    between atoms: N_6  and  C_17
REMARK    4  A    between atoms: N_6  and  C_18
REMARK    5  A    between atoms: C_8  and  C_14
REMARK    6  A    between atoms: C_13  and  C_15
REMARK    7  A    between atoms: C_17  and  C_21
REMARK    8  A    between atoms: C_24  and  C_29
REMARK                            x       y       z     vdW  Elec       q    Type
REMARK                         _______ _______ _______ _____ _____    ______ ____
ROOT
ATOM      4  N   UNL     1      -0.345   1.098  25.814  0.00  0.00    -0.281 NA
ATOM      5  N   UNL     1      -1.475   4.686  25.782  0.00  0.00    -0.347 N 
ATOM      7  N   UNL     1      -2.609   4.113  23.942  0.00  0.00    -0.240 NA
ATOM      8  C   UNL     1      -0.584   0.909  24.359  0.00  0.00    +0.150 C 
ATOM      9  C   UNL     1      -1.745   1.736  23.736  0.00  0.00    +0.085 C 
ATOM     10  C   UNL     1      -0.177   2.522  26.214  0.00  0.00    +0.140 C 
ATOM     11  C   UNL     1      -1.127   3.400  25.498  0.00  0.00    +0.053 A 
ATOM     12  C   UNL     1      -1.831   3.073  24.365  0.00  0.00    +0.065 A 
ATOM     16  C   UNL     1      -2.371   5.071  24.816  0.00  0.00    +0.197 A 
ATOM     31  H   UNL     1      -1.140   5.251  26.551  0.00  0.00    +0.167 HD
ENDROOT
BRANCH   8  14
ATOM      1  O   UNL     1       1.314   2.252  23.922  0.00  0.00    -0.274 OA
ATOM      6  N   UNL     1       1.162   0.255  22.742  0.00  0.00    -0.299 N 
ATOM     14  C   UNL     1       0.714   1.206  23.660  0.00  0.00    +0.233 C 
ATOM     18  C   UNL     1       0.422  -0.967  22.462  0.00  0.00    +0.132 C 
BRANCH   6  17
ATOM     17  C   UNL     1       2.406   0.418  21.993  0.00  0.00    +0.142 C 
BRANCH  17  21
ATOM     21  C   UNL     1       3.609   0.032  22.814  0.00  0.00    -0.030 A 
ATOM     25  C   UNL     1       4.621   0.963  23.048  0.00  0.00    +0.005 A 
ATOM     26  C   UNL     1       3.709  -1.255  23.338  0.00  0.00    +0.005 A 
ATOM     27  C   UNL     1       5.735   0.604  23.808  0.00  0.00    +0.000 A 
ATOM     28  C   UNL     1       4.822  -1.614  24.098  0.00  0.00    +0.000 A 
ATOM     30  C   UNL     1       5.835  -0.683  24.333  0.00  0.00    +0.000 A 
ENDBRANCH  17  21
ENDBRANCH   6  17
ENDBRANCH   8  14
BRANCH   4  13
ATOM     13  C   UNL     1      -1.396   0.451  26.604  0.00  0.00    +0.120 C 
BRANCH  13  15
ATOM     15  C   UNL     1      -2.161  -0.563  25.797  0.00  0.00    -0.033 A 
ATOM     19  C   UNL     1      -1.537  -1.741  25.385  0.00  0.00    +0.006 A 
ATOM     20  C   UNL     1      -3.495  -0.327  25.462  0.00  0.00    +0.006 A 
ATOM     22  C   UNL     1      -2.245  -2.681  24.637  0.00  0.00    +0.015 A 
ATOM     23  C   UNL     1      -4.203  -1.268  24.715  0.00  0.00    +0.015 A 
ATOM     24  C   UNL     1      -3.578  -2.444  24.303  0.00  0.00    +0.059 A 
BRANCH  24  29
ATOM      3  O   UNL     1      -5.506  -3.331  23.195  0.00  0.00    -0.245 OA
ATOM     29  C   UNL     1      -4.319  -3.426  23.524  0.00  0.00    +0.337 C 
BRANCH  29   2
ATOM      2  O   UNL     1      -3.556  -4.500  23.180  0.00  0.00    -0.477 OA
ATOM     32  H   UNL     1      -3.365  -4.518  22.217  0.00  0.00    +0.295 HD
ENDBRANCH  29   2
ENDBRANCH  24  29
ENDBRANCH  13  15
ENDBRANCH   4  13
TORSDOF 7
ENDMDL
MODEL 2
REMARK VINA RESULT:       2.1      2.757      7.893
REMARK  Name = 38344451
REMARK  8 active torsions:
REMARK  status: ('A' for Active; 'I' for Inactive)
REMARK    1  A    between atoms: O_2  and  C_29
REMARK    2  A    between atoms: N_4  and  C_13
REMARK    3  A    between atoms: N_6  and  C_17
REMARK    4  A    between atoms: N_6  and  C_18
REMARK    5  A    between atoms: C_8  and  C_14
REMARK    6  A    between atoms: C_13  and  C_15
REMARK    7  A    between atoms: C_17  and  C_21
REMARK    8  A    between atoms: C_24  and  C_29
REMARK                            x       y       z     vdW  Elec       q    Type
REMARK                         _______ _______ _______ _____ _____    ______ ____
ROOT
ATOM      4  N   UNL     1       0.023  -0.180  24.198  0.00  0.00    -0.281 NA
ATOM      5  N   UNL     1      -2.648  -2.579  25.320  0.00  0.00    -0.347 N 
ATOM      7  N   UNL     1      -3.850  -1.733  23.635  0.00  0.00    -0.240 NA
ATOM      8  C   UNL     1      -0.943   0.734  23.531  0.00  0.00    +0.150 C 
ATOM      9  C   UNL     1      -2.213   0.073  22.924  0.00  0.00    +0.085 C 
ATOM     10  C   UNL     1      -0.595  -1.053  25.234  0.00  0.00    +0.140 C 
ATOM     11  C   UNL     1      -1.915  -1.558  24.797  0.00  0.00    +0.053 A 
ATOM     12  C   UNL     1      -2.673  -1.052  23.770  0.00  0.00    +0.065 A 
ATOM     16  C   UNL     1      -3.806  -2.646  24.585  0.00  0.00    +0.197 A 
ATOM     31  H   UNL     1      -2.395  -3.174  26.098  0.00  0.00    +0.167 HD
ENDROOT
BRANCH   8  14
ATOM      1  O   UNL     1      -0.882   1.699  25.690  0.00  0.00    -0.274 OA
ATOM      6  N   UNL     1      -2.161   2.805  24.095  0.00  0.00    -0.299 N 
ATOM     14  C   UNL     1      -1.320   1.783  24.540  0.00  0.00    +0.233 C 
ATOM     18  C   UNL     1      -2.656   2.866  22.727  0.00  0.00    +0.132 C 
BRANCH   6  17
ATOM     17  C   UNL     1      -2.606   3.887  24.970  0.00  0.00    +0.142 C 
BRANCH  17  21
ATOM     21  C   UNL     1      -4.059   3.748  25.340  0.00  0.00    -0.030 A 
ATOM     25  C   UNL     1      -4.577   2.495  25.671  0.00  0.00    +0.005 A 
ATOM     26  C   UNL     1      -4.886   4.870  25.350  0.00  0.00    +0.005 A 
ATOM     27  C   UNL     1      -5.924   2.367  26.013  0.00  0.00    +0.000 A 
ATOM     28  C   UNL     1      -6.232   4.742  25.692  0.00  0.00    +0.000 A 
ATOM     30  C   UNL     1      -6.751   3.490  26.023  0.00  0.00    +0.000 A 
ENDBRANCH  17  21
ENDBRANCH   6  17
ENDBRANCH   8  14
BRANCH   4  13
ATOM     13  C   UNL     1       0.756  -0.975  23.209  0.00  0.00    +0.120 C 
BRANCH  13  15
ATOM     15  C   UNL     1       2.233  -0.683  23.237  0.00  0.00    -0.033 A 
ATOM     19  C   UNL     1       2.715   0.521  22.723  0.00  0.00    +0.006 A 
ATOM     20  C   UNL     1       3.118  -1.614  23.781  0.00  0.00    +0.006 A 
ATOM     22  C   UNL     1       4.082   0.792  22.748  0.00  0.00    +0.015 A 
ATOM     23  C   UNL     1       4.486  -1.341  23.806  0.00  0.00    +0.015 A 
ATOM     24  C   UNL     1       4.968  -0.139  23.291  0.00  0.00    +0.059 A 
BRANCH  24  29
ATOM      3  O   UNL     1       7.257  -0.449  22.664  0.00  0.00    -0.245 OA
ATOM     29  C   UNL     1       6.395   0.145  23.320  0.00  0.00    +0.337 C 
BRANCH  29   2
ATOM      2  O   UNL     1       6.705   1.163  24.170  0.00  0.00    -0.477 OA
ATOM     32  H   UNL     1       7.661   1.174  24.391  0.00  0.00    +0.295 HD
ENDBRANCH  29   2
ENDBRANCH  24  29
ENDBRANCH  13  15
ENDBRANCH   4  13
TORSDOF 7
ENDMDL
MODEL 3
REMARK VINA RESULT:       2.1      2.763      7.827
REMARK  Name = 38344451
REMARK  8 active torsions:
REMARK  status: ('A' for Active; 'I' for Inactive)
REMARK    1  A    between atoms: O_2  and  C_29
REMARK    2  A    between atoms: N_4  and  C_13
REMARK    3  A    between atoms: N_6  and  C_17
REMARK    4  A    between atoms: N_6  and  C_18
REMARK    5  A    between atoms: C_8  and  C_14
REMARK    6  A    between atoms: C_13  and  C_15
REMARK    7  A    between atoms: C_17  and  C_21
REMARK    8  A    between atoms: C_24  and  C_29
REMARK                            x       y       z     vdW  Elec       q    Type
REMARK                         _______ _______ _______ _____ _____    ______ ____
ROOT
ATOM      4  N   UNL     1       0.023  -0.139  24.161  0.00  0.00    -0.281 NA
ATOM      5  N   UNL     1      -2.623  -2.557  25.303  0.00  0.00    -0.347 N 
ATOM      7  N   UNL     1      -3.844  -1.719  23.629  0.00  0.00    -0.240 NA
ATOM      8  C   UNL     1      -0.955   0.767  23.502  0.00  0.00    +0.150 C 
ATOM      9  C   UNL     1      -2.225   0.097  22.905  0.00  0.00    +0.085 C 
ATOM     10  C   UNL     1      -0.581  -1.017  25.201  0.00  0.00    +0.140 C 
ATOM     11  C   UNL     1      -1.900  -1.531  24.775  0.00  0.00    +0.053 A 
ATOM     12  C   UNL     1      -2.670  -1.030  23.754  0.00  0.00    +0.065 A 
ATOM     16  C   UNL     1      -3.786  -2.632  24.578  0.00  0.00    +0.197 A 
ATOM     31  H   UNL     1      -2.359  -3.150  26.080  0.00  0.00    +0.167 HD
ENDROOT
BRANCH   8  14
ATOM      1  O   UNL     1      -0.871   1.741  25.656  0.00  0.00    -0.274 OA
ATOM      6  N   UNL     1      -2.197   2.820  24.081  0.00  0.00    -0.299 N 
ATOM     14  C   UNL     1      -1.331   1.814  24.513  0.00  0.00    +0.233 C 
ATOM     18  C   UNL     1      -2.718   2.868  22.722  0.00  0.00    +0.132 C 
BRANCH   6  17
ATOM     17  C   UNL     1      -2.644   3.898  24.960  0.00  0.00    +0.142 C 
BRANCH  17  21
ATOM     21  C   UNL     1      -4.093   3.746  25.341  0.00  0.00    -0.030 A 
ATOM     25  C   UNL     1      -4.934   4.859  25.344  0.00  0.00    +0.005 A 
ATOM     26  C   UNL     1      -4.594   2.492  25.690  0.00  0.00    +0.005 A 
ATOM     27  C   UNL     1      -6.276   4.717  25.698  0.00  0.00    +0.000 A 
ATOM     28  C   UNL     1      -5.936   2.351  26.042  0.00  0.00    +0.000 A 
ATOM     30  C   UNL     1      -6.777   3.464  26.047  0.00  0.00    +0.000 A 
ENDBRANCH  17  21
ENDBRANCH   6  17
ENDBRANCH   8  14
BRANCH   4  13
ATOM     13  C   UNL     1       0.754  -0.930  23.167  0.00  0.00    +0.120 C 
BRANCH  13  15
ATOM     15  C   UNL     1       2.233  -0.652  23.206  0.00  0.00    -0.033 A 
ATOM     19  C   UNL     1       3.103  -1.587  23.766  0.00  0.00    +0.006 A 
ATOM     20  C   UNL     1       2.733   0.540  22.679  0.00  0.00    +0.006 A 
ATOM     22  C   UNL     1       4.473  -1.330  23.803  0.00  0.00    +0.015 A 
ATOM     23  C   UNL     1       4.104   0.795  22.716  0.00  0.00    +0.015 A 
ATOM     24  C   UNL     1       4.973  -0.139  23.277  0.00  0.00    +0.059 A 
BRANCH  24  29
ATOM      3  O   UNL     1       7.259  -0.461  22.644  0.00  0.00    -0.245 OA
ATOM     29  C   UNL     1       6.403   0.129  23.313  0.00  0.00    +0.337 C 
BRANCH  29   2
ATOM      2  O   UNL     1       6.724   1.124  24.184  0.00  0.00    -0.477 OA
ATOM     32  H   UNL     1       7.691   1.290  24.208  0.00  0.00    +0.295 HD
ENDBRANCH  29   2
ENDBRANCH  24  29
ENDBRANCH  13  15
ENDBRANCH   4  13
TORSDOF 7
ENDMDL
MODEL 4
REMARK VINA RESULT:       2.2      2.164      2.871
REMARK  Name = 38344451
REMARK  8 active torsions:
REMARK  status: ('A' for Active; 'I' for Inactive)
REMARK    1  A    between atoms: O_2  and  C_29
REMARK    2  A    between atoms: N_4  and  C_13
REMARK    3  A    between atoms: N_6  and  C_17
REMARK    4  A    between atoms: N_6  and  C_18
REMARK    5  A    between atoms: C_8  and  C_14
REMARK    6  A    between atoms: C_13  and  C_15
REMARK    7  A    between atoms: C_17  and  C_21
REMARK    8  A    between atoms: C_24  and  C_29
REMARK                            x       y       z     vdW  Elec       q    Type
REMARK                         _______ _______ _______ _____ _____    ______ ____
ROOT
ATOM      4  N   UNL     1      -0.384  -0.486  24.474  0.00  0.00    -0.281 NA
ATOM      5  N   UNL     1      -1.402   2.575  26.408  0.00  0.00    -0.347 N 
ATOM      7  N   UNL     1      -2.148   3.337  24.443  0.00  0.00    -0.240 NA
ATOM      8  C   UNL     1      -0.324   0.237  23.176  0.00  0.00    +0.150 C 
ATOM      9  C   UNL     1      -1.314   1.423  22.999  0.00  0.00    +0.085 C 
ATOM     10  C   UNL     1      -0.269   0.405  25.661  0.00  0.00    +0.140 C 
ATOM     11  C   UNL     1      -1.032   1.657  25.473  0.00  0.00    +0.053 A 
ATOM     12  C   UNL     1      -1.496   2.147  24.277  0.00  0.00    +0.065 A 
ATOM     16  C   UNL     1      -2.072   3.569  25.738  0.00  0.00    +0.197 A 
ATOM     31  H   UNL     1      -1.218   2.539  27.403  0.00  0.00    +0.167 HD
ENDROOT
BRANCH   8  14
ATOM      1  O   UNL     1       1.553   1.553  23.761  0.00  0.00    -0.274 OA
ATOM      6  N   UNL     1       1.818   0.115  21.954  0.00  0.00    -0.299 N 
ATOM     14  C   UNL     1       1.096   0.698  22.997  0.00  0.00    +0.233 C 
ATOM     18  C   UNL     1       1.239  -0.892  21.075  0.00  0.00    +0.132 C 
BRANCH   6  17
ATOM     17  C   UNL     1       3.205   0.471  21.669  0.00  0.00    +0.142 C 
BRANCH  17  21
ATOM     21  C   UNL     1       4.138   0.010  22.758  0.00  0.00    -0.030 A 
ATOM     25  C   UNL     1       4.080  -1.307  23.214  0.00  0.00    +0.005 A 
ATOM     26  C   UNL     1       5.058   0.900  23.310  0.00  0.00    +0.005 A 
ATOM     27  C   UNL     1       4.944  -1.733  24.223  0.00  0.00    +0.000 A 
ATOM     28  C   UNL     1       5.921   0.474  24.319  0.00  0.00    +0.000 A 
ATOM     30  C   UNL     1       5.864  -0.843  24.775  0.00  0.00    +0.000 A 
ENDBRANCH  17  21
ENDBRANCH   6  17
ENDBRANCH   8  14
BRANCH   4  13
ATOM     13  C   UNL     1      -1.589  -1.316  24.554  0.00  0.00    +0.120 C 
BRANCH  13  15
ATOM     15  C   UNL     1      -2.830  -0.487  24.749  0.00  0.00    -0.033 A 
ATOM     19  C   UNL     1      -3.354  -0.308  26.029  0.00  0.00    +0.006 A 
ATOM     20  C   UNL     1      -3.454   0.105  23.650  0.00  0.00    +0.006 A 
ATOM     22  C   UNL     1      -4.503   0.460  26.211  0.00  0.00    +0.015 A 
ATOM     23  C   UNL     1      -4.603   0.873  23.833  0.00  0.00    +0.015 A 
ATOM     24  C   UNL     1      -5.128   1.051  25.113  0.00  0.00    +0.059 A 
BRANCH  24  29
ATOM      3  O   UNL     1      -7.315   1.852  24.561  0.00  0.00    -0.245 OA
ATOM     29  C   UNL     1      -6.326   1.855  25.302  0.00  0.00    +0.337 C 
BRANCH  29   2
ATOM      2  O   UNL     1      -6.255   2.642  26.411  0.00  0.00    -0.477 OA
ATOM     32  H   UNL     1      -6.670   3.519  26.263  0.00  0.00    +0.295 HD
ENDBRANCH  29   2
ENDBRANCH  24  29
ENDBRANCH  13  15
ENDBRANCH   4  13
TORSDOF 7
ENDMDL
MODEL 5
REMARK VINA RESULT:       3.5      2.851      4.196
REMARK  Name = 38344451
REMARK  8 active torsions:
REMARK  status: ('A' for Active; 'I' for Inactive)
REMARK    1  A    between atoms: O_2  and  C_29
REMARK    2  A    between atoms: N_4  and  C_13
REMARK    3  A    between atoms: N_6  and  C_17
REMARK    4  A    between atoms: N_6  and  C_18
REMARK    5  A    between atoms: C_8  and  C_14
REMARK    6  A    between atoms: C_13  and  C_15
REMARK    7  A    between atoms: C_17  and  C_21
REMARK    8  A    between atoms: C_24  and  C_29
REMARK                            x       y       z     vdW  Elec       q    Type
REMARK                         _______ _______ _______ _____ _____    ______ ____
ROOT
ATOM      4  N   UNL     1      -2.205  -0.347  24.323  0.00  0.00    -0.281 NA
ATOM      5  N   UNL     1      -1.383   2.808  26.199  0.00  0.00    -0.347 N 
ATOM      7  N   UNL     1      -0.361   3.438  24.313  0.00  0.00    -0.240 NA
ATOM      8  C   UNL     1      -1.077  -0.187  23.368  0.00  0.00    +0.150 C 
ATOM      9  C   UNL     1      -0.666   1.273  23.023  0.00  0.00    +0.085 C 
ATOM     10  C   UNL     1      -2.023   0.404  25.596  0.00  0.00    +0.140 C 
ATOM     11  C   UNL     1      -1.439   1.741  25.355  0.00  0.00    +0.053 A 
ATOM     12  C   UNL     1      -0.802   2.149  24.209  0.00  0.00    +0.065 A 
ATOM     16  C   UNL     1      -0.725   3.807  25.525  0.00  0.00    +0.197 A 
ATOM     31  H   UNL     1      -1.751   2.859  27.141  0.00  0.00    +0.167 HD
ENDROOT
BRANCH   8  14
ATOM      1  O   UNL     1      -0.008  -1.452  25.057  0.00  0.00    -0.274 OA
ATOM      6  N   UNL     1       1.230  -1.033  23.134  0.00  0.00    -0.299 N 
ATOM     14  C   UNL     1       0.089  -0.947  23.935  0.00  0.00    +0.233 C 
ATOM     18  C   UNL     1       1.303  -0.423  21.814  0.00  0.00    +0.132 C 
BRANCH   6  17
ATOM     17  C   UNL     1       2.434  -1.742  23.563  0.00  0.00    +0.142 C 
BRANCH  17  21
ATOM     21  C   UNL     1       3.646  -0.849  23.542  0.00  0.00    -0.030 A 
ATOM     25  C   UNL     1       4.860  -1.310  24.052  0.00  0.00    +0.005 A 
ATOM     26  C   UNL     1       3.555   0.437  23.012  0.00  0.00    +0.005 A 
ATOM     27  C   UNL     1       5.983  -0.482  24.032  0.00  0.00    +0.000 A 
ATOM     28  C   UNL     1       4.678   1.265  22.992  0.00  0.00    +0.000 A 
ATOM     30  C   UNL     1       5.892   0.805  23.503  0.00  0.00    +0.000 A 
ENDBRANCH  17  21
ENDBRANCH   6  17
ENDBRANCH   8  14
BRANCH   4  13
ATOM     13  C   UNL     1      -3.480  -0.005  23.688  0.00  0.00    +0.120 C 
BRANCH  13  15
ATOM     15  C   UNL     1      -4.060   1.268  24.243  0.00  0.00    -0.033 A 
ATOM     19  C   UNL     1      -4.870   1.229  25.378  0.00  0.00    +0.006 A 
ATOM     20  C   UNL     1      -3.784   2.488  23.625  0.00  0.00    +0.006 A 
ATOM     22  C   UNL     1      -5.408   2.408  25.892  0.00  0.00    +0.015 A 
ATOM     23  C   UNL     1      -4.322   3.668  24.141  0.00  0.00    +0.015 A 
ATOM     24  C   UNL     1      -5.133   3.627  25.274  0.00  0.00    +0.059 A 
BRANCH  24  29
ATOM      3  O   UNL     1      -5.085   5.672  26.518  0.00  0.00    -0.245 OA
ATOM     29  C   UNL     1      -5.691   4.859  25.812  0.00  0.00    +0.337 C 
BRANCH  29   2
ATOM      2  O   UNL     1      -6.993   5.039  25.455  0.00  0.00    -0.477 OA
ATOM     32  H   UNL     1      -7.449   4.185  25.297  0.00  0.00    +0.295 HD
ENDBRANCH  29   2
ENDBRANCH  24  29
ENDBRANCH  13  15
ENDBRANCH   4  13
TORSDOF 7
ENDMDL
MODEL 6
REMARK VINA RESULT:       3.6      2.781      6.708
REMARK  Name = 38344451
REMARK  8 active torsions:
REMARK  status: ('A' for Active; 'I' for Inactive)
REMARK    1  A    between atoms: O_2  and  C_29
REMARK    2  A    between atoms: N_4  and  C_13
REMARK    3  A    between atoms: N_6  and  C_17
REMARK    4  A    between atoms: N_6  and  C_18
REMARK    5  A    between atoms: C_8  and  C_14
REMARK    6  A    between atoms: C_13  and  C_15
REMARK    7  A    between atoms: C_17  and  C_21
REMARK    8  A    between atoms: C_24  and  C_29
REMARK                            x       y       z     vdW  Elec       q    Type
REMARK                         _______ _______ _______ _____ _____    ______ ____
ROOT
ATOM      4  N   UNL     1      -0.385   0.079  24.196  0.00  0.00    -0.281 NA
ATOM      5  N   UNL     1      -2.801  -2.719  24.896  0.00  0.00    -0.347 N 
ATOM      7  N   UNL     1      -4.228  -1.548  23.635  0.00  0.00    -0.240 NA
ATOM      8  C   UNL     1      -1.461   1.063  23.904  0.00  0.00    +0.150 C 
ATOM      9  C   UNL     1      -2.764   0.494  23.274  0.00  0.00    +0.085 C 
ATOM     10  C   UNL     1      -0.839  -1.079  25.016  0.00  0.00    +0.140 C 
ATOM     11  C   UNL     1      -2.178  -1.546  24.597  0.00  0.00    +0.053 A 
ATOM     12  C   UNL     1      -3.073  -0.843  23.828  0.00  0.00    +0.065 A 
ATOM     16  C   UNL     1      -4.033  -2.673  24.293  0.00  0.00    +0.197 A 
ATOM     31  H   UNL     1      -2.433  -3.477  25.456  0.00  0.00    +0.167 HD
ENDROOT
BRANCH   8  14
ATOM      1  O   UNL     1      -2.917   1.780  25.625  0.00  0.00    -0.274 OA
ATOM      6  N   UNL     1      -0.688   2.410  25.821  0.00  0.00    -0.299 N 
ATOM     14  C   UNL     1      -1.761   1.780  25.191  0.00  0.00    +0.233 C 
ATOM     18  C   UNL     1       0.661   2.385  25.274  0.00  0.00    +0.132 C 
BRANCH   6  17
ATOM     17  C   UNL     1      -0.839   3.142  27.077  0.00  0.00    +0.142 C 
BRANCH  17  21
ATOM     21  C   UNL     1       0.309   2.886  28.017  0.00  0.00    -0.030 A 
ATOM     25  C   UNL     1       0.059   2.510  29.337  0.00  0.00    +0.005 A 
ATOM     26  C   UNL     1       1.622   3.025  27.567  0.00  0.00    +0.005 A 
ATOM     27  C   UNL     1       1.124   2.273  30.207  0.00  0.00    +0.000 A 
ATOM     28  C   UNL     1       2.686   2.788  28.437  0.00  0.00    +0.000 A 
ATOM     30  C   UNL     1       2.437   2.413  29.757  0.00  0.00    +0.000 A 
ENDBRANCH  17  21
ENDBRANCH   6  17
ENDBRANCH   8  14
BRANCH   4  13
ATOM     13  C   UNL     1       0.260  -0.373  22.961  0.00  0.00    +0.120 C 
BRANCH  13  15
ATOM     15  C   UNL     1       1.759  -0.265  23.038  0.00  0.00    -0.033 A 
ATOM     19  C   UNL     1       2.394   0.915  22.649  0.00  0.00    +0.006 A 
ATOM     20  C   UNL     1       2.514  -1.343  23.502  0.00  0.00    +0.006 A 
ATOM     22  C   UNL     1       3.783   1.016  22.721  0.00  0.00    +0.015 A 
ATOM     23  C   UNL     1       3.903  -1.241  23.573  0.00  0.00    +0.015 A 
ATOM     24  C   UNL     1       4.537  -0.062  23.184  0.00  0.00    +0.059 A 
BRANCH  24  29
ATOM      3  O   UNL     1       6.787  -0.524  22.510  0.00  0.00    -0.245 OA
ATOM     29  C   UNL     1       5.986   0.044  23.261  0.00  0.00    +0.337 C 
BRANCH  29   2
ATOM      2  O   UNL     1       6.396   0.854  24.276  0.00  0.00    -0.477 OA
ATOM     32  H   UNL     1       7.373   0.857  24.368  0.00  0.00    +0.295 HD
ENDBRANCH  29   2
ENDBRANCH  24  29
ENDBRANCH  13  15
ENDBRANCH   4  13
TORSDOF 7
ENDMDL
MODEL 7
REMARK VINA RESULT:       4.7      2.112      6.708
REMARK  Name = 38344451
REMARK  8 active torsions:
REMARK  status: ('A' for Active; 'I' for Inactive)
REMARK    1  A    between atoms: O_2  and  C_29
REMARK    2  A    between atoms: N_4  and  C_13
REMARK    3  A    between atoms: N_6  and  C_17
REMARK    4  A    between atoms: N_6  and  C_18
REMARK    5  A    between atoms: C_8  and  C_14
REMARK    6  A    between atoms: C_13  and  C_15
REMARK    7  A    between atoms: C_17  and  C_21
REMARK    8  A    between atoms: C_24  and  C_29
REMARK                            x       y       z     vdW  Elec       q    Type
REMARK                         _______ _______ _______ _____ _____    ______ ____
ROOT
ATOM      4  N   UNL     1      -0.146   1.275  23.759  0.00  0.00    -0.281 NA
ATOM      5  N   UNL     1      -2.874   3.857  23.964  0.00  0.00    -0.347 N 
ATOM      7  N   UNL     1      -1.924   4.432  25.904  0.00  0.00    -0.240 NA
ATOM      8  C   UNL     1       0.080   1.257  25.229  0.00  0.00    +0.150 C 
ATOM      9  C   UNL     1      -0.174   2.594  25.983  0.00  0.00    +0.085 C 
ATOM     10  C   UNL     1      -1.486   1.791  23.365  0.00  0.00    +0.140 C 
ATOM     11  C   UNL     1      -1.881   2.953  24.190  0.00  0.00    +0.053 A 
ATOM     12  C   UNL     1      -1.317   3.322  25.386  0.00  0.00    +0.065 A 
ATOM     16  C   UNL     1      -2.859   4.729  25.025  0.00  0.00    +0.197 A 
ATOM     31  H   UNL     1      -3.504   3.883  23.172  0.00  0.00    +0.167 HD
ENDROOT
BRANCH   8  14
ATOM      1  O   UNL     1      -1.472   0.386  26.787  0.00  0.00    -0.274 OA
ATOM      6  N   UNL     1      -0.732  -1.071  25.134  0.00  0.00    -0.299 N 
ATOM     14  C   UNL     1      -0.779   0.159  25.791  0.00  0.00    +0.233 C 
ATOM     18  C   UNL     1       0.101  -1.296  23.961  0.00  0.00    +0.132 C 
BRANCH   6  17
ATOM     17  C   UNL     1      -1.515  -2.223  25.575  0.00  0.00    +0.142 C 
BRANCH  17  21
ATOM     21  C   UNL     1      -2.816  -2.337  24.824  0.00  0.00    -0.030 A 
ATOM     25  C   UNL     1      -3.227  -3.573  24.324  0.00  0.00    +0.005 A 
ATOM     26  C   UNL     1      -3.608  -1.206  24.628  0.00  0.00    +0.005 A 
ATOM     27  C   UNL     1      -4.432  -3.677  23.629  0.00  0.00    +0.000 A 
ATOM     28  C   UNL     1      -4.812  -1.311  23.933  0.00  0.00    +0.000 A 
ATOM     30  C   UNL     1      -5.224  -2.546  23.433  0.00  0.00    +0.000 A 
ENDBRANCH  17  21
ENDBRANCH   6  17
ENDBRANCH   8  14
BRANCH   4  13
ATOM     13  C   UNL     1       0.922   2.008  23.075  0.00  0.00    +0.120 C 
BRANCH  13  15
ATOM     15  C   UNL     1       2.230   1.265  23.119  0.00  0.00    -0.033 A 
ATOM     19  C   UNL     1       3.433   1.967  23.045  0.00  0.00    +0.006 A 
ATOM     20  C   UNL     1       2.240  -0.125  23.237  0.00  0.00    +0.006 A 
ATOM     22  C   UNL     1       4.646   1.280  23.085  0.00  0.00    +0.015 A 
ATOM     23  C   UNL     1       3.453  -0.812  23.278  0.00  0.00    +0.015 A 
ATOM     24  C   UNL     1       4.655  -0.110  23.202  0.00  0.00    +0.059 A 
BRANCH  24  29
ATOM      3  O   UNL     1       6.966  -0.473  22.693  0.00  0.00    -0.245 OA
ATOM     29  C   UNL     1       5.920  -0.828  23.247  0.00  0.00    +0.337 C 
BRANCH  29   2
ATOM      2  O   UNL     1       5.843  -1.972  23.982  0.00  0.00    -0.477 OA
ATOM     32  H   UNL     1       5.070  -2.519  23.724  0.00  0.00    +0.295 HD
ENDBRANCH  29   2
ENDBRANCH  24  29
ENDBRANCH  13  15
ENDBRANCH   4  13
TORSDOF 7
ENDMDL
