MODEL 1
REMARK VINA RESULT:      -4.9      0.000      0.000
REMARK  Name = 56774115
REMARK  10 active torsions:
REMARK  status: ('A' for Active; 'I' for Inactive)
REMARK    1  A    between atoms: O_3  and  C_17
REMARK    2  A    between atoms: O_3  and  C_20
REMARK    3  A    between atoms: O_4  and  C_19
REMARK    4  A    between atoms: N_5  and  C_9
REMARK    5  A    between atoms: C_7  and  C_12
REMARK    6  A    between atoms: C_7  and  C_13
REMARK    7  A    between atoms: C_8  and  C_11
REMARK    8  A    between atoms: C_11  and  C_14
REMARK    9  A    between atoms: C_15  and  C_17
REMARK   10  A    between atoms: C_18  and  C_19
REMARK                            x       y       z     vdW  Elec       q    Type
REMARK                         _______ _______ _______ _____ _____    ______ ____
ROOT
ATOM      7  C   UNL     1      -1.015   1.030  23.638  0.00  0.00    -0.013 C 
ATOM      8  C   UNL     1      -1.873  -0.072  24.295  0.00  0.00    +0.004 C 
ATOM      9  C   UNL     1      -0.020  -0.083  23.248  0.00  0.00    +0.079 C 
ATOM     10  C   UNL     1      -0.572  -0.890  24.443  0.00  0.00    +0.027 C 
ATOM     12  C   UNL     1      -1.710   1.736  22.494  0.00  0.00    +0.013 C 
ATOM     13  C   UNL     1      -0.411   2.049  24.587  0.00  0.00    +0.013 C 
ENDROOT
BRANCH   9   5
ATOM      2  O   UNL     1       2.017  -0.267  21.199  0.00  0.00    -0.273 OA
ATOM      5  N   UNL     1       1.406   0.261  23.376  0.00  0.00    -0.310 N 
ATOM     15  C   UNL     1       2.301   0.135  22.324  0.00  0.00    +0.239 C 
ATOM     21  H   UNL     1       1.763   0.600  24.266  0.00  0.00    +0.149 HD
BRANCH  15  17
ATOM     17  C   UNL     1       3.701   0.553  22.718  0.00  0.00    +0.255 C 
BRANCH  17   3
ATOM      3  O   UNL     1       4.355  -0.489  23.412  0.00  0.00    -0.374 OA
ATOM     20  C   UNL     1       5.656  -0.104  23.847  0.00  0.00    +0.194 C 
ENDBRANCH  17   3
ENDBRANCH  15  17
ENDBRANCH   9   5
BRANCH   8  11
ATOM     11  C   UNL     1      -2.560   0.269  25.596  0.00  0.00    +0.063 C 
BRANCH  11  14
ATOM      1  O   UNL     1      -5.539   2.170  24.862  0.00  0.00    -0.357 OA
ATOM      6  N   UNL     1      -4.835   0.976  24.963  0.00  0.00    -0.083 NA
ATOM     14  C   UNL     1      -3.613   1.328  25.373  0.00  0.00    +0.084 A 
ATOM     16  C   UNL     1      -3.488   2.718  25.545  0.00  0.00    +0.073 A 
ATOM     18  C   UNL     1      -4.726   3.199  25.212  0.00  0.00    +0.163 A 
BRANCH  18  19
ATOM     19  C   UNL     1      -5.313   4.544  25.161  0.00  0.00    +0.232 C 
BRANCH  19   4
ATOM      4  O   UNL     1      -6.532   4.582  25.909  0.00  0.00    -0.387 OA
ATOM     22  H   UNL     1      -7.012   5.380  25.629  0.00  0.00    +0.210 HD
ENDBRANCH  19   4
ENDBRANCH  18  19
ENDBRANCH  11  14
ENDBRANCH   8  11
TORSDOF 7
ENDMDL
MODEL 2
REMARK VINA RESULT:      -4.6      2.420      3.259
REMARK  Name = 56774115
REMARK  10 active torsions:
REMARK  status: ('A' for Active; 'I' for Inactive)
REMARK    1  A    between atoms: O_3  and  C_17
REMARK    2  A    between atoms: O_3  and  C_20
REMARK    3  A    between atoms: O_4  and  C_19
REMARK    4  A    between atoms: N_5  and  C_9
REMARK    5  A    between atoms: C_7  and  C_12
REMARK    6  A    between atoms: C_7  and  C_13
REMARK    7  A    between atoms: C_8  and  C_11
REMARK    8  A    between atoms: C_11  and  C_14
REMARK    9  A    between atoms: C_15  and  C_17
REMARK   10  A    between atoms: C_18  and  C_19
REMARK                            x       y       z     vdW  Elec       q    Type
REMARK                         _______ _______ _______ _____ _____    ______ ____
ROOT
ATOM      7  C   UNL     1      -3.527  -1.080  24.168  0.00  0.00    -0.013 C 
ATOM      8  C   UNL     1      -4.010  -0.192  25.335  0.00  0.00    +0.004 C 
ATOM      9  C   UNL     1      -2.168  -1.163  24.895  0.00  0.00    +0.079 C 
ATOM     10  C   UNL     1      -2.530   0.181  25.563  0.00  0.00    +0.027 C 
ATOM     12  C   UNL     1      -4.295  -2.378  24.039  0.00  0.00    +0.013 C 
ATOM     13  C   UNL     1      -3.429  -0.398  22.816  0.00  0.00    +0.013 C 
ENDROOT
BRANCH   9   5
ATOM      2  O   UNL     1      -0.150   0.913  24.863  0.00  0.00    -0.273 OA
ATOM      5  N   UNL     1      -0.977  -1.091  24.031  0.00  0.00    -0.310 N 
ATOM     15  C   UNL     1      -0.068  -0.045  24.099  0.00  0.00    +0.239 C 
ATOM     21  H   UNL     1      -0.805  -1.828  23.351  0.00  0.00    +0.149 HD
BRANCH  15  17
ATOM     17  C   UNL     1       1.062  -0.212  23.106  0.00  0.00    +0.255 C 
BRANCH  17   3
ATOM      3  O   UNL     1       1.977   0.858  23.209  0.00  0.00    -0.374 OA
ATOM     20  C   UNL     1       3.232   0.543  22.613  0.00  0.00    +0.194 C 
ENDBRANCH  17   3
ENDBRANCH  15  17
ENDBRANCH   9   5
BRANCH   8  11
ATOM     11  C   UNL     1      -4.913   0.970  24.993  0.00  0.00    +0.063 C 
BRANCH  11  14
ATOM      1  O   UNL     1      -3.809   4.212  26.131  0.00  0.00    -0.357 OA
ATOM      6  N   UNL     1      -4.686   3.135  26.150  0.00  0.00    -0.083 NA
ATOM     14  C   UNL     1      -4.203   2.278  25.244  0.00  0.00    +0.084 A 
ATOM     16  C   UNL     1      -3.033   2.758  24.628  0.00  0.00    +0.073 A 
ATOM     18  C   UNL     1      -2.829   3.975  25.221  0.00  0.00    +0.163 A 
BRANCH  18  19
ATOM     19  C   UNL     1      -1.809   5.020  25.071  0.00  0.00    +0.232 C 
BRANCH  19   4
ATOM      4  O   UNL     1      -0.507   4.434  24.982  0.00  0.00    -0.387 OA
ATOM     22  H   UNL     1      -0.023   4.696  25.783  0.00  0.00    +0.210 HD
ENDBRANCH  19   4
ENDBRANCH  18  19
ENDBRANCH  11  14
ENDBRANCH   8  11
TORSDOF 7
ENDMDL
MODEL 3
REMARK VINA RESULT:      -4.5      1.444      7.607
REMARK  Name = 56774115
REMARK  10 active torsions:
REMARK  status: ('A' for Active; 'I' for Inactive)
REMARK    1  A    between atoms: O_3  and  C_17
REMARK    2  A    between atoms: O_3  and  C_20
REMARK    3  A    between atoms: O_4  and  C_19
REMARK    4  A    between atoms: N_5  and  C_9
REMARK    5  A    between atoms: C_7  and  C_12
REMARK    6  A    between atoms: C_7  and  C_13
REMARK    7  A    between atoms: C_8  and  C_11
REMARK    8  A    between atoms: C_11  and  C_14
REMARK    9  A    between atoms: C_15  and  C_17
REMARK   10  A    between atoms: C_18  and  C_19
REMARK                            x       y       z     vdW  Elec       q    Type
REMARK                         _______ _______ _______ _____ _____    ______ ____
ROOT
ATOM      7  C   UNL     1      -1.266   2.014  24.086  0.00  0.00    -0.013 C 
ATOM      8  C   UNL     1      -0.605   0.658  24.409  0.00  0.00    +0.004 C 
ATOM      9  C   UNL     1      -2.094   1.831  25.375  0.00  0.00    +0.079 C 
ATOM     10  C   UNL     1      -1.881   0.311  25.204  0.00  0.00    +0.027 C 
ATOM     12  C   UNL     1      -0.293   3.174  24.078  0.00  0.00    +0.013 C 
ATOM     13  C   UNL     1      -2.126   2.049  22.837  0.00  0.00    +0.013 C 
ENDROOT
BRANCH   9   5
ATOM      2  O   UNL     1      -3.243   4.338  26.256  0.00  0.00    -0.273 OA
ATOM      5  N   UNL     1      -3.506   2.242  25.291  0.00  0.00    -0.310 N 
ATOM     15  C   UNL     1      -3.952   3.475  25.746  0.00  0.00    +0.239 C 
ATOM     21  H   UNL     1      -4.192   1.606  24.891  0.00  0.00    +0.149 HD
BRANCH  15  17
ATOM     17  C   UNL     1      -5.442   3.648  25.544  0.00  0.00    +0.255 C 
BRANCH  17   3
ATOM      3  O   UNL     1      -6.046   2.414  25.219  0.00  0.00    -0.374 OA
ATOM     20  C   UNL     1      -6.573   1.760  26.370  0.00  0.00    +0.194 C 
ENDBRANCH  17   3
ENDBRANCH  15  17
ENDBRANCH   9   5
BRANCH   8  11
ATOM     11  C   UNL     1      -0.311  -0.262  23.248  0.00  0.00    +0.063 C 
BRANCH  11  14
ATOM      1  O   UNL     1       2.794  -0.064  21.419  0.00  0.00    -0.357 OA
ATOM      6  N   UNL     1       1.433  -0.330  21.507  0.00  0.00    -0.083 NA
ATOM     14  C   UNL     1       1.113  -0.080  22.780  0.00  0.00    +0.084 A 
ATOM     16  C   UNL     1       2.222   0.341  23.536  0.00  0.00    +0.073 A 
ATOM     18  C   UNL     1       3.252   0.335  22.633  0.00  0.00    +0.163 A 
BRANCH  18  19
ATOM     19  C   UNL     1       4.681   0.658  22.721  0.00  0.00    +0.232 C 
BRANCH  19   4
ATOM      4  O   UNL     1       5.099   0.698  24.088  0.00  0.00    -0.387 OA
ATOM     22  H   UNL     1       4.655  -0.038  24.542  0.00  0.00    +0.210 HD
ENDBRANCH  19   4
ENDBRANCH  18  19
ENDBRANCH  11  14
ENDBRANCH   8  11
TORSDOF 7
ENDMDL
MODEL 4
REMARK VINA RESULT:      -4.3      1.676      7.136
REMARK  Name = 56774115
REMARK  10 active torsions:
REMARK  status: ('A' for Active; 'I' for Inactive)
REMARK    1  A    between atoms: O_3  and  C_17
REMARK    2  A    between atoms: O_3  and  C_20
REMARK    3  A    between atoms: O_4  and  C_19
REMARK    4  A    between atoms: N_5  and  C_9
REMARK    5  A    between atoms: C_7  and  C_12
REMARK    6  A    between atoms: C_7  and  C_13
REMARK    7  A    between atoms: C_8  and  C_11
REMARK    8  A    between atoms: C_11  and  C_14
REMARK    9  A    between atoms: C_15  and  C_17
REMARK   10  A    between atoms: C_18  and  C_19
REMARK                            x       y       z     vdW  Elec       q    Type
REMARK                         _______ _______ _______ _____ _____    ______ ____
ROOT
ATOM      7  C   UNL     1      -3.367  -1.194  24.548  0.00  0.00    -0.013 C 
ATOM      8  C   UNL     1      -2.052  -0.941  23.782  0.00  0.00    +0.004 C 
ATOM      9  C   UNL     1      -3.889   0.122  23.934  0.00  0.00    +0.079 C 
ATOM     10  C   UNL     1      -2.413   0.559  23.810  0.00  0.00    +0.027 C 
ATOM     12  C   UNL     1      -4.082  -2.458  24.122  0.00  0.00    +0.013 C 
ATOM     13  C   UNL     1      -3.271  -1.138  26.062  0.00  0.00    +0.013 C 
ENDROOT
BRANCH   9   5
ATOM      2  O   UNL     1      -4.514   2.928  23.588  0.00  0.00    -0.273 OA
ATOM      5  N   UNL     1      -4.683   0.976  24.835  0.00  0.00    -0.310 N 
ATOM     15  C   UNL     1      -4.924   2.316  24.571  0.00  0.00    +0.239 C 
ATOM     21  H   UNL     1      -5.072   0.581  25.688  0.00  0.00    +0.149 HD
BRANCH  15  17
ATOM     17  C   UNL     1      -5.764   2.963  25.651  0.00  0.00    +0.255 C 
BRANCH  17   3
ATOM      3  O   UNL     1      -5.162   4.158  26.101  0.00  0.00    -0.374 OA
ATOM     20  C   UNL     1      -3.769   3.991  26.348  0.00  0.00    +0.194 C 
ENDBRANCH  17   3
ENDBRANCH  15  17
ENDBRANCH   9   5
BRANCH   8  11
ATOM     11  C   UNL     1      -0.763  -1.297  24.484  0.00  0.00    +0.063 C 
BRANCH  11  14
ATOM      1  O   UNL     1       1.470   1.463  23.833  0.00  0.00    -0.357 OA
ATOM      6  N   UNL     1       0.322   0.915  24.393  0.00  0.00    -0.083 NA
ATOM     14  C   UNL     1       0.348  -0.375  24.042  0.00  0.00    +0.084 A 
ATOM     16  C   UNL     1       1.478  -0.694  23.268  0.00  0.00    +0.073 A 
ATOM     18  C   UNL     1       2.150   0.495  23.167  0.00  0.00    +0.163 A 
BRANCH  18  19
ATOM     19  C   UNL     1       3.397   0.904  22.510  0.00  0.00    +0.232 C 
BRANCH  19   4
ATOM      4  O   UNL     1       4.488   0.842  23.434  0.00  0.00    -0.387 OA
ATOM     22  H   UNL     1       5.260   1.229  22.987  0.00  0.00    +0.210 HD
ENDBRANCH  19   4
ENDBRANCH  18  19
ENDBRANCH  11  14
ENDBRANCH   8  11
TORSDOF 7
ENDMDL
MODEL 5
REMARK VINA RESULT:      -4.3      2.089      3.487
REMARK  Name = 56774115
REMARK  10 active torsions:
REMARK  status: ('A' for Active; 'I' for Inactive)
REMARK    1  A    between atoms: O_3  and  C_17
REMARK    2  A    between atoms: O_3  and  C_20
REMARK    3  A    between atoms: O_4  and  C_19
REMARK    4  A    between atoms: N_5  and  C_9
REMARK    5  A    between atoms: C_7  and  C_12
REMARK    6  A    between atoms: C_7  and  C_13
REMARK    7  A    between atoms: C_8  and  C_11
REMARK    8  A    between atoms: C_11  and  C_14
REMARK    9  A    between atoms: C_15  and  C_17
REMARK   10  A    between atoms: C_18  and  C_19
REMARK                            x       y       z     vdW  Elec       q    Type
REMARK                         _______ _______ _______ _____ _____    ______ ____
ROOT
ATOM      7  C   UNL     1      -0.592   3.065  24.786  0.00  0.00    -0.013 C 
ATOM      8  C   UNL     1      -1.980   2.632  24.268  0.00  0.00    +0.004 C 
ATOM      9  C   UNL     1       0.003   2.374  23.541  0.00  0.00    +0.079 C 
ATOM     10  C   UNL     1      -1.261   1.488  23.523  0.00  0.00    +0.027 C 
ATOM     12  C   UNL     1      -0.417   4.566  24.864  0.00  0.00    +0.013 C 
ATOM     13  C   UNL     1      -0.142   2.422  26.084  0.00  0.00    +0.013 C 
ENDROOT
BRANCH   9   5
ATOM      2  O   UNL     1       0.930   0.052  22.081  0.00  0.00    -0.273 OA
ATOM      5  N   UNL     1       1.250   1.621  23.762  0.00  0.00    -0.310 N 
ATOM     15  C   UNL     1       1.599   0.516  23.000  0.00  0.00    +0.239 C 
ATOM     21  H   UNL     1       1.885   1.909  24.503  0.00  0.00    +0.149 HD
BRANCH  15  17
ATOM     17  C   UNL     1       2.925  -0.073  23.432  0.00  0.00    +0.255 C 
BRANCH  17   3
ATOM      3  O   UNL     1       3.997   0.719  22.968  0.00  0.00    -0.374 OA
ATOM     20  C   UNL     1       5.259   0.194  23.371  0.00  0.00    +0.194 C 
ENDBRANCH  17   3
ENDBRANCH  15  17
ENDBRANCH   9   5
BRANCH   8  11
ATOM     11  C   UNL     1      -2.992   2.183  25.295  0.00  0.00    +0.063 C 
BRANCH  11  14
ATOM      1  O   UNL     1      -4.677  -0.864  24.344  0.00  0.00    -0.357 OA
ATOM      6  N   UNL     1      -4.602   0.520  24.446  0.00  0.00    -0.083 NA
ATOM     14  C   UNL     1      -3.421   0.761  25.024  0.00  0.00    +0.084 A 
ATOM     16  C   UNL     1      -2.715  -0.422  25.307  0.00  0.00    +0.073 A 
ATOM     18  C   UNL     1      -3.547  -1.413  24.859  0.00  0.00    +0.163 A 
BRANCH  18  19
ATOM     19  C   UNL     1      -3.459  -2.877  24.832  0.00  0.00    +0.232 C 
BRANCH  19   4
ATOM      4  O   UNL     1      -2.215  -3.290  24.259  0.00  0.00    -0.387 OA
ATOM     22  H   UNL     1      -2.283  -3.147  23.300  0.00  0.00    +0.210 HD
ENDBRANCH  19   4
ENDBRANCH  18  19
ENDBRANCH  11  14
ENDBRANCH   8  11
TORSDOF 7
ENDMDL
MODEL 6
REMARK VINA RESULT:      -4.1      2.817      6.623
REMARK  Name = 56774115
REMARK  10 active torsions:
REMARK  status: ('A' for Active; 'I' for Inactive)
REMARK    1  A    between atoms: O_3  and  C_17
REMARK    2  A    between atoms: O_3  and  C_20
REMARK    3  A    between atoms: O_4  and  C_19
REMARK    4  A    between atoms: N_5  and  C_9
REMARK    5  A    between atoms: C_7  and  C_12
REMARK    6  A    between atoms: C_7  and  C_13
REMARK    7  A    between atoms: C_8  and  C_11
REMARK    8  A    between atoms: C_11  and  C_14
REMARK    9  A    between atoms: C_15  and  C_17
REMARK   10  A    between atoms: C_18  and  C_19
REMARK                            x       y       z     vdW  Elec       q    Type
REMARK                         _______ _______ _______ _____ _____    ______ ____
ROOT
ATOM      7  C   UNL     1      -0.948   2.617  24.087  0.00  0.00    -0.013 C 
ATOM      8  C   UNL     1      -0.090   1.560  24.812  0.00  0.00    +0.004 C 
ATOM      9  C   UNL     1      -1.722   2.786  25.411  0.00  0.00    +0.079 C 
ATOM     10  C   UNL     1      -1.290   1.345  25.758  0.00  0.00    +0.027 C 
ATOM     12  C   UNL     1      -0.157   3.820  23.619  0.00  0.00    +0.013 C 
ATOM     13  C   UNL     1      -1.822   2.100  22.959  0.00  0.00    +0.013 C 
ENDROOT
BRANCH   9   5
ATOM      2  O   UNL     1      -3.390   4.739  26.750  0.00  0.00    -0.273 OA
ATOM      5  N   UNL     1      -3.181   2.951  25.282  0.00  0.00    -0.310 N 
ATOM     15  C   UNL     1      -3.885   3.926  25.973  0.00  0.00    +0.239 C 
ATOM     21  H   UNL     1      -3.704   2.329  24.670  0.00  0.00    +0.149 HD
BRANCH  15  17
ATOM     17  C   UNL     1      -5.366   3.880  25.664  0.00  0.00    +0.255 C 
BRANCH  17   3
ATOM      3  O   UNL     1      -5.948   2.706  26.188  0.00  0.00    -0.374 OA
ATOM     20  C   UNL     1      -6.275   1.772  25.163  0.00  0.00    +0.194 C 
ENDBRANCH  17   3
ENDBRANCH  15  17
ENDBRANCH   9   5
BRANCH   8  11
ATOM     11  C   UNL     1       0.320   0.340  24.021  0.00  0.00    +0.063 C 
BRANCH  11  14
ATOM      1  O   UNL     1      -1.142  -2.737  25.212  0.00  0.00    -0.357 OA
ATOM      6  N   UNL     1      -0.082  -1.849  25.081  0.00  0.00    -0.083 NA
ATOM     14  C   UNL     1      -0.568  -0.832  24.363  0.00  0.00    +0.084 A 
ATOM     16  C   UNL     1      -1.918  -1.022  24.017  0.00  0.00    +0.073 A 
ATOM     18  C   UNL     1      -2.230  -2.232  24.576  0.00  0.00    +0.163 A 
BRANCH  18  19
ATOM     19  C   UNL     1      -3.450  -3.048  24.616  0.00  0.00    +0.232 C 
BRANCH  19   4
ATOM      4  O   UNL     1      -4.422  -2.534  23.701  0.00  0.00    -0.387 OA
ATOM     22  H   UNL     1      -4.776  -3.294  23.208  0.00  0.00    +0.210 HD
ENDBRANCH  19   4
ENDBRANCH  18  19
ENDBRANCH  11  14
ENDBRANCH   8  11
TORSDOF 7
ENDMDL
MODEL 7
REMARK VINA RESULT:      -4.1      1.450      7.803
REMARK  Name = 56774115
REMARK  10 active torsions:
REMARK  status: ('A' for Active; 'I' for Inactive)
REMARK    1  A    between atoms: O_3  and  C_17
REMARK    2  A    between atoms: O_3  and  C_20
REMARK    3  A    between atoms: O_4  and  C_19
REMARK    4  A    between atoms: N_5  and  C_9
REMARK    5  A    between atoms: C_7  and  C_12
REMARK    6  A    between atoms: C_7  and  C_13
REMARK    7  A    between atoms: C_8  and  C_11
REMARK    8  A    between atoms: C_11  and  C_14
REMARK    9  A    between atoms: C_15  and  C_17
REMARK   10  A    between atoms: C_18  and  C_19
REMARK                            x       y       z     vdW  Elec       q    Type
REMARK                         _______ _______ _______ _____ _____    ______ ____
ROOT
ATOM      7  C   UNL     1      -0.626   1.471  24.564  0.00  0.00    -0.013 C 
ATOM      8  C   UNL     1      -0.040   0.106  24.148  0.00  0.00    +0.004 C 
ATOM      9  C   UNL     1      -1.819   0.693  25.156  0.00  0.00    +0.079 C 
ATOM     10  C   UNL     1      -1.487  -0.430  24.151  0.00  0.00    +0.027 C 
ATOM     12  C   UNL     1       0.237   2.224  25.553  0.00  0.00    +0.013 C 
ATOM     13  C   UNL     1      -1.032   2.390  23.426  0.00  0.00    +0.013 C 
ENDROOT
BRANCH   9   5
ATOM      2  O   UNL     1      -4.400  -0.526  25.643  0.00  0.00    -0.273 OA
ATOM      5  N   UNL     1      -3.145   1.300  24.948  0.00  0.00    -0.310 N 
ATOM     15  C   UNL     1      -4.326   0.622  25.215  0.00  0.00    +0.239 C 
ATOM     21  H   UNL     1      -3.212   2.250  24.589  0.00  0.00    +0.149 HD
BRANCH  15  17
ATOM     17  C   UNL     1      -5.544   1.469  24.915  0.00  0.00    +0.255 C 
BRANCH  17   3
ATOM      3  O   UNL     1      -5.760   2.413  25.941  0.00  0.00    -0.374 OA
ATOM     20  C   UNL     1      -5.391   3.729  25.538  0.00  0.00    +0.194 C 
ENDBRANCH  17   3
ENDBRANCH  15  17
ENDBRANCH   9   5
BRANCH   8  11
ATOM     11  C   UNL     1       0.662   0.032  22.812  0.00  0.00    +0.063 C 
BRANCH  11  14
ATOM      1  O   UNL     1       3.995   1.373  23.152  0.00  0.00    -0.357 OA
ATOM      6  N   UNL     1       2.625   1.514  22.972  0.00  0.00    -0.083 NA
ATOM     14  C   UNL     1       2.143   0.267  22.983  0.00  0.00    +0.084 A 
ATOM     16  C   UNL     1       3.154  -0.693  23.166  0.00  0.00    +0.073 A 
ATOM     18  C   UNL     1       4.298   0.054  23.267  0.00  0.00    +0.163 A 
BRANCH  18  19
ATOM     19  C   UNL     1       5.714  -0.278  23.464  0.00  0.00    +0.232 C 
BRANCH  19   4
ATOM      4  O   UNL     1       5.888  -1.005  24.684  0.00  0.00    -0.387 OA
ATOM     22  H   UNL     1       5.240  -0.654  25.318  0.00  0.00    +0.210 HD
ENDBRANCH  19   4
ENDBRANCH  18  19
ENDBRANCH  11  14
ENDBRANCH   8  11
TORSDOF 7
ENDMDL
MODEL 8
REMARK VINA RESULT:      -3.7      2.667      3.960
REMARK  Name = 56774115
REMARK  10 active torsions:
REMARK  status: ('A' for Active; 'I' for Inactive)
REMARK    1  A    between atoms: O_3  and  C_17
REMARK    2  A    between atoms: O_3  and  C_20
REMARK    3  A    between atoms: O_4  and  C_19
REMARK    4  A    between atoms: N_5  and  C_9
REMARK    5  A    between atoms: C_7  and  C_12
REMARK    6  A    between atoms: C_7  and  C_13
REMARK    7  A    between atoms: C_8  and  C_11
REMARK    8  A    between atoms: C_11  and  C_14
REMARK    9  A    between atoms: C_15  and  C_17
REMARK   10  A    between atoms: C_18  and  C_19
REMARK                            x       y       z     vdW  Elec       q    Type
REMARK                         _______ _______ _______ _____ _____    ______ ____
ROOT
ATOM      7  C   UNL     1      -0.228   2.639  26.013  0.00  0.00    -0.013 C 
ATOM      8  C   UNL     1      -0.570   3.625  24.877  0.00  0.00    +0.004 C 
ATOM      9  C   UNL     1       0.043   1.588  24.916  0.00  0.00    +0.079 C 
ATOM     10  C   UNL     1      -0.918   2.393  24.016  0.00  0.00    +0.027 C 
ATOM     12  C   UNL     1       0.966   3.061  26.842  0.00  0.00    +0.013 C 
ATOM     13  C   UNL     1      -1.380   2.253  26.923  0.00  0.00    +0.013 C 
ENDROOT
BRANCH   9   5
ATOM      2  O   UNL     1       0.331  -0.760  23.246  0.00  0.00    -0.273 OA
ATOM      5  N   UNL     1      -0.427   0.223  25.209  0.00  0.00    -0.310 N 
ATOM     15  C   UNL     1      -0.235  -0.836  24.334  0.00  0.00    +0.239 C 
ATOM     21  H   UNL     1      -0.917   0.037  26.081  0.00  0.00    +0.149 HD
BRANCH  15  17
ATOM     17  C   UNL     1      -0.812  -2.128  24.872  0.00  0.00    +0.255 C 
BRANCH  17   3
ATOM      3  O   UNL     1      -1.962  -2.501  24.142  0.00  0.00    -0.374 OA
ATOM     20  C   UNL     1      -3.158  -2.272  24.881  0.00  0.00    +0.194 C 
ENDBRANCH  17   3
ENDBRANCH  15  17
ENDBRANCH   9   5
BRANCH   8  11
ATOM     11  C   UNL     1      -1.717   4.580  25.112  0.00  0.00    +0.063 C 
BRANCH  11  14
ATOM      1  O   UNL     1      -4.618   2.872  23.812  0.00  0.00    -0.357 OA
ATOM      6  N   UNL     1      -3.367   3.459  23.664  0.00  0.00    -0.083 NA
ATOM     14  C   UNL     1      -3.037   3.882  24.888  0.00  0.00    +0.084 A 
ATOM     16  C   UNL     1      -4.032   3.593  25.839  0.00  0.00    +0.073 A 
ATOM     18  C   UNL     1      -5.002   2.958  25.111  0.00  0.00    +0.163 A 
BRANCH  18  19
ATOM     19  C   UNL     1      -6.310   2.382  25.446  0.00  0.00    +0.232 C 
BRANCH  19   4
ATOM      4  O   UNL     1      -6.431   2.214  26.862  0.00  0.00    -0.387 OA
ATOM     22  H   UNL     1      -5.579   1.871  27.180  0.00  0.00    +0.210 HD
ENDBRANCH  19   4
ENDBRANCH  18  19
ENDBRANCH  11  14
ENDBRANCH   8  11
TORSDOF 7
ENDMDL
MODEL 9
REMARK VINA RESULT:      -3.6      2.478      6.420
REMARK  Name = 56774115
REMARK  10 active torsions:
REMARK  status: ('A' for Active; 'I' for Inactive)
REMARK    1  A    between atoms: O_3  and  C_17
REMARK    2  A    between atoms: O_3  and  C_20
REMARK    3  A    between atoms: O_4  and  C_19
REMARK    4  A    between atoms: N_5  and  C_9
REMARK    5  A    between atoms: C_7  and  C_12
REMARK    6  A    between atoms: C_7  and  C_13
REMARK    7  A    between atoms: C_8  and  C_11
REMARK    8  A    between atoms: C_11  and  C_14
REMARK    9  A    between atoms: C_15  and  C_17
REMARK   10  A    between atoms: C_18  and  C_19
REMARK                            x       y       z     vdW  Elec       q    Type
REMARK                         _______ _______ _______ _____ _____    ______ ____
ROOT
ATOM      7  C   UNL     1      -3.392  -1.664  24.732  0.00  0.00    -0.013 C 
ATOM      8  C   UNL     1      -2.351  -1.312  23.650  0.00  0.00    +0.004 C 
ATOM      9  C   UNL     1      -4.253  -0.513  24.171  0.00  0.00    +0.079 C 
ATOM     10  C   UNL     1      -2.940   0.115  23.656  0.00  0.00    +0.027 C 
ATOM     12  C   UNL     1      -3.965  -3.058  24.588  0.00  0.00    +0.013 C 
ATOM     13  C   UNL     1      -2.960  -1.427  26.167  0.00  0.00    +0.013 C 
ENDROOT
BRANCH   9   5
ATOM      2  O   UNL     1      -5.292   2.166  23.819  0.00  0.00    -0.273 OA
ATOM      5  N   UNL     1      -4.949   0.312  25.174  0.00  0.00    -0.310 N 
ATOM     15  C   UNL     1      -5.409   1.591  24.897  0.00  0.00    +0.239 C 
ATOM     21  H   UNL     1      -5.100  -0.057  26.110  0.00  0.00    +0.149 HD
BRANCH  15  17
ATOM     17  C   UNL     1      -6.085   2.220  26.096  0.00  0.00    +0.255 C 
BRANCH  17   3
ATOM      3  O   UNL     1      -5.659   3.555  26.264  0.00  0.00    -0.374 OA
ATOM     20  C   UNL     1      -4.265   3.704  26.015  0.00  0.00    +0.194 C 
ENDBRANCH  17   3
ENDBRANCH  15  17
ENDBRANCH   9   5
BRANCH   8  11
ATOM     11  C   UNL     1      -0.893  -1.398  24.038  0.00  0.00    +0.063 C 
BRANCH  11  14
ATOM      1  O   UNL     1       0.952   1.704  23.987  0.00  0.00    -0.357 OA
ATOM      6  N   UNL     1       0.687   0.422  23.519  0.00  0.00    -0.083 NA
ATOM     14  C   UNL     1      -0.329  -0.017  24.270  0.00  0.00    +0.084 A 
ATOM     16  C   UNL     1      -0.741   0.936  25.218  0.00  0.00    +0.073 A 
ATOM     18  C   UNL     1       0.095   1.998  24.998  0.00  0.00    +0.163 A 
BRANCH  18  19
ATOM     19  C   UNL     1       0.236   3.324  25.611  0.00  0.00    +0.232 C 
BRANCH  19   4
ATOM      4  O   UNL     1      -0.920   4.122  25.342  0.00  0.00    -0.387 OA
ATOM     22  H   UNL     1      -1.592   3.529  24.966  0.00  0.00    +0.210 HD
ENDBRANCH  19   4
ENDBRANCH  18  19
ENDBRANCH  11  14
ENDBRANCH   8  11
TORSDOF 7
ENDMDL
MODEL 10
REMARK VINA RESULT:      -3.4      3.140      4.625
REMARK  Name = 56774115
REMARK  10 active torsions:
REMARK  status: ('A' for Active; 'I' for Inactive)
REMARK    1  A    between atoms: O_3  and  C_17
REMARK    2  A    between atoms: O_3  and  C_20
REMARK    3  A    between atoms: O_4  and  C_19
REMARK    4  A    between atoms: N_5  and  C_9
REMARK    5  A    between atoms: C_7  and  C_12
REMARK    6  A    between atoms: C_7  and  C_13
REMARK    7  A    between atoms: C_8  and  C_11
REMARK    8  A    between atoms: C_11  and  C_14
REMARK    9  A    between atoms: C_15  and  C_17
REMARK   10  A    between atoms: C_18  and  C_19
REMARK                            x       y       z     vdW  Elec       q    Type
REMARK                         _______ _______ _______ _____ _____    ______ ____
ROOT
ATOM      7  C   UNL     1      -0.143   1.496  24.318  0.00  0.00    -0.013 C 
ATOM      8  C   UNL     1      -0.811   2.648  23.539  0.00  0.00    +0.004 C 
ATOM      9  C   UNL     1      -1.116   0.543  23.593  0.00  0.00    +0.079 C 
ATOM     10  C   UNL     1      -2.063   1.752  23.438  0.00  0.00    +0.027 C 
ATOM     12  C   UNL     1       1.326   1.321  23.997  0.00  0.00    +0.013 C 
ATOM     13  C   UNL     1      -0.347   1.510  25.821  0.00  0.00    +0.013 C 
ENDROOT
BRANCH   9   5
ATOM      2  O   UNL     1      -3.758   0.419  24.771  0.00  0.00    -0.273 OA
ATOM      5  N   UNL     1      -1.675  -0.545  24.414  0.00  0.00    -0.310 N 
ATOM     15  C   UNL     1      -2.962  -0.503  24.932  0.00  0.00    +0.239 C 
ATOM     21  H   UNL     1      -1.105  -1.362  24.621  0.00  0.00    +0.149 HD
BRANCH  15  17
ATOM     17  C   UNL     1      -3.288  -1.741  25.737  0.00  0.00    +0.255 C 
BRANCH  17   3
ATOM      3  O   UNL     1      -3.417  -2.865  24.893  0.00  0.00    -0.374 OA
ATOM     20  C   UNL     1      -4.296  -2.611  23.800  0.00  0.00    +0.194 C 
ENDBRANCH  17   3
ENDBRANCH  15  17
ENDBRANCH   9   5
BRANCH   8  11
ATOM     11  C   UNL     1      -1.021   3.951  24.274  0.00  0.00    +0.063 C 
BRANCH  11  14
ATOM      1  O   UNL     1      -3.762   4.095  26.616  0.00  0.00    -0.357 OA
ATOM      6  N   UNL     1      -2.411   4.163  26.298  0.00  0.00    -0.083 NA
ATOM     14  C   UNL     1      -2.355   3.947  24.980  0.00  0.00    +0.084 A 
ATOM     16  C   UNL     1      -3.628   3.738  24.419  0.00  0.00    +0.073 A 
ATOM     18  C   UNL     1      -4.476   3.842  25.490  0.00  0.00    +0.163 A 
BRANCH  18  19
ATOM     19  C   UNL     1      -5.931   3.737  25.646  0.00  0.00    +0.232 C 
BRANCH  19   4
ATOM      4  O   UNL     1      -6.263   2.619  26.474  0.00  0.00    -0.387 OA
ATOM     22  H   UNL     1      -5.601   1.929  26.297  0.00  0.00    +0.210 HD
ENDBRANCH  19   4
ENDBRANCH  18  19
ENDBRANCH  11  14
ENDBRANCH   8  11
TORSDOF 7
ENDMDL
