MODEL 1
REMARK VINA RESULT:      -6.7      0.000      0.000
REMARK  Name = 75536726
REMARK  8 active torsions:
REMARK  status: ('A' for Active; 'I' for Inactive)
REMARK    1  A    between atoms: O_4  and  C_11
REMARK    2  A    between atoms: N_6  and  C_9
REMARK    3  A    between atoms: N_6  and  C_10
REMARK    4  A    between atoms: N_7  and  C_19
REMARK    5  A    between atoms: N_8  and  C_21
REMARK    6  A    between atoms: C_14  and  C_19
REMARK    7  A    between atoms: C_21  and  C_22
REMARK    8  A    between atoms: C_21  and  C_23
REMARK                            x       y       z     vdW  Elec       q    Type
REMARK                         _______ _______ _______ _____ _____    ______ ____
ROOT
ATOM      3  O   UNL     1      -0.139   2.780  23.267  0.00  0.00    -0.371 OA
ATOM     10  C   UNL     1      -0.858   3.623  25.368  0.00  0.00    +0.111 C 
ATOM     11  C   UNL     1      -0.226   2.259  25.573  0.00  0.00    +0.164 C 
ATOM     14  C   UNL     1       0.611   2.131  24.308  0.00  0.00    +0.165 C 
ATOM     15  C   UNL     1      -1.153   3.598  23.877  0.00  0.00    +0.181 C 
ENDROOT
BRANCH  11   4
ATOM      4  O   UNL     1       0.569   2.196  26.740  0.00  0.00    -0.388 OA
ATOM     25  H   UNL     1      -0.018   2.237  27.514  0.00  0.00    +0.210 HD
ENDBRANCH  11   4
BRANCH  10   6
ATOM      6  N   UNL     1      -2.046   3.844  26.177  0.00  0.00    -0.306 NA
ATOM     24  H   UNL     1      -2.101   4.822  26.462  0.00  0.00    +0.123 HD
BRANCH   6   9
ATOM      1  F   UNL     1      -5.950   1.454  26.487  0.00  0.00    -0.206 F 
ATOM      2  F   UNL     1      -6.933   1.726  24.565  0.00  0.00    -0.206 F 
ATOM      9  C   UNL     1      -3.252   3.470  25.440  0.00  0.00    +0.054 C 
ATOM     12  C   UNL     1      -3.309   1.946  25.275  0.00  0.00    +0.024 C 
ATOM     13  C   UNL     1      -4.492   3.997  26.171  0.00  0.00    +0.024 C 
ATOM     16  C   UNL     1      -4.594   1.512  24.571  0.00  0.00    +0.077 C 
ATOM     17  C   UNL     1      -5.777   3.563  25.468  0.00  0.00    +0.077 C 
ATOM     18  C   UNL     1      -5.825   2.057  25.275  0.00  0.00    +0.249 C 
ENDBRANCH   6   9
ENDBRANCH  10   6
BRANCH  14  19
ATOM     19  C   UNL     1       0.891   0.691  23.916  0.00  0.00    +0.140 C 
BRANCH  19   7
ATOM      5  O   UNL     1      -0.525  -1.060  25.720  0.00  0.00    -0.253 OA
ATOM      7  N   UNL     1      -0.324  -0.023  23.651  0.00  0.00    -0.297 N 
ATOM      8  N   UNL     1      -2.112  -1.422  24.067  0.00  0.00    -0.297 N 
ATOM     20  C   UNL     1      -0.950  -0.855  24.584  0.00  0.00    +0.300 C 
ATOM     26  H   UNL     1      -0.745   0.071  22.731  0.00  0.00    +0.150 HD
ATOM     27  H   UNL     1      -2.420  -1.132  23.143  0.00  0.00    +0.150 HD
BRANCH   8  21
ATOM     21  C   UNL     1      -2.948  -2.323  24.825  0.00  0.00    +0.068 C 
ATOM     22  C   UNL     1      -4.072  -2.864  23.951  0.00  0.00    +0.027 C 
ATOM     23  C   UNL     1      -3.498  -1.626  26.063  0.00  0.00    +0.027 C 
ENDBRANCH   8  21
ENDBRANCH  19   7
ENDBRANCH  14  19
TORSDOF 6
ENDMDL
MODEL 2
REMARK VINA RESULT:      -6.4      2.597      4.624
REMARK  Name = 75536726
REMARK  8 active torsions:
REMARK  status: ('A' for Active; 'I' for Inactive)
REMARK    1  A    between atoms: O_4  and  C_11
REMARK    2  A    between atoms: N_6  and  C_9
REMARK    3  A    between atoms: N_6  and  C_10
REMARK    4  A    between atoms: N_7  and  C_19
REMARK    5  A    between atoms: N_8  and  C_21
REMARK    6  A    between atoms: C_14  and  C_19
REMARK    7  A    between atoms: C_21  and  C_22
REMARK    8  A    between atoms: C_21  and  C_23
REMARK                            x       y       z     vdW  Elec       q    Type
REMARK                         _______ _______ _______ _____ _____    ______ ____
ROOT
ATOM      3  O   UNL     1      -2.723   3.765  23.507  0.00  0.00    -0.371 OA
ATOM     10  C   UNL     1      -4.288   2.671  24.919  0.00  0.00    +0.111 C 
ATOM     11  C   UNL     1      -3.142   3.196  25.764  0.00  0.00    +0.164 C 
ATOM     14  C   UNL     1      -2.566   4.265  24.846  0.00  0.00    +0.165 C 
ATOM     15  C   UNL     1      -3.669   2.682  23.531  0.00  0.00    +0.181 C 
ENDROOT
BRANCH  11   4
ATOM      4  O   UNL     1      -3.575   3.737  26.997  0.00  0.00    -0.388 OA
ATOM     25  H   UNL     1      -2.841   3.679  27.631  0.00  0.00    +0.210 HD
ENDBRANCH  11   4
BRANCH  10   6
ATOM      6  N   UNL     1      -4.755   1.354  25.321  0.00  0.00    -0.306 NA
ATOM     24  H   UNL     1      -5.734   1.235  25.065  0.00  0.00    +0.123 HD
BRANCH   6   9
ATOM      1  F   UNL     1      -3.545  -3.056  25.690  0.00  0.00    -0.206 F 
ATOM      2  F   UNL     1      -2.193  -3.412  24.024  0.00  0.00    -0.206 F 
ATOM      9  C   UNL     1      -3.945   0.306  24.703  0.00  0.00    +0.054 C 
ATOM     12  C   UNL     1      -2.882  -0.184  25.695  0.00  0.00    +0.024 C 
ATOM     13  C   UNL     1      -4.848  -0.844  24.241  0.00  0.00    +0.024 C 
ATOM     16  C   UNL     1      -2.062  -1.332  25.107  0.00  0.00    +0.077 C 
ATOM     17  C   UNL     1      -4.028  -1.992  23.654  0.00  0.00    +0.077 C 
ATOM     18  C   UNL     1      -2.955  -2.461  24.621  0.00  0.00    +0.249 C 
ENDBRANCH   6   9
ENDBRANCH  10   6
BRANCH  14  19
ATOM     19  C   UNL     1      -1.101   4.562  25.114  0.00  0.00    +0.140 C 
BRANCH  19   7
ATOM      5  O   UNL     1      -0.016   1.930  25.578  0.00  0.00    -0.253 OA
ATOM      7  N   UNL     1      -0.248   3.813  24.237  0.00  0.00    -0.297 N 
ATOM      8  N   UNL     1       1.039   2.040  23.515  0.00  0.00    -0.297 N 
ATOM     20  C   UNL     1       0.236   2.537  24.538  0.00  0.00    +0.300 C 
ATOM     26  H   UNL     1       0.028   4.238  23.358  0.00  0.00    +0.150 HD
ATOM     27  H   UNL     1       1.127   2.585  22.662  0.00  0.00    +0.150 HD
BRANCH   8  21
ATOM     21  C   UNL     1       1.668   0.741  23.574  0.00  0.00    +0.068 C 
ATOM     22  C   UNL     1       3.002   0.764  22.839  0.00  0.00    +0.027 C 
ATOM     23  C   UNL     1       0.742  -0.326  23.001  0.00  0.00    +0.027 C 
ENDBRANCH   8  21
ENDBRANCH  19   7
ENDBRANCH  14  19
TORSDOF 6
ENDMDL
MODEL 3
REMARK VINA RESULT:      -6.0      2.280      4.665
REMARK  Name = 75536726
REMARK  8 active torsions:
REMARK  status: ('A' for Active; 'I' for Inactive)
REMARK    1  A    between atoms: O_4  and  C_11
REMARK    2  A    between atoms: N_6  and  C_9
REMARK    3  A    between atoms: N_6  and  C_10
REMARK    4  A    between atoms: N_7  and  C_19
REMARK    5  A    between atoms: N_8  and  C_21
REMARK    6  A    between atoms: C_14  and  C_19
REMARK    7  A    between atoms: C_21  and  C_22
REMARK    8  A    between atoms: C_21  and  C_23
REMARK                            x       y       z     vdW  Elec       q    Type
REMARK                         _______ _______ _______ _____ _____    ______ ____
ROOT
ATOM      3  O   UNL     1      -0.076   3.768  25.870  0.00  0.00    -0.371 OA
ATOM     10  C   UNL     1      -0.150   1.479  25.242  0.00  0.00    +0.111 C 
ATOM     11  C   UNL     1      -1.334   2.199  24.624  0.00  0.00    +0.164 C 
ATOM     14  C   UNL     1      -0.853   3.643  24.666  0.00  0.00    +0.165 C 
ATOM     15  C   UNL     1       0.254   2.450  26.340  0.00  0.00    +0.181 C 
ENDROOT
BRANCH  11   4
ATOM      4  O   UNL     1      -1.605   1.772  23.304  0.00  0.00    -0.388 OA
ATOM     25  H   UNL     1      -1.600   2.550  22.723  0.00  0.00    +0.210 HD
ENDBRANCH  11   4
BRANCH  10   6
ATOM      6  N   UNL     1      -0.472   0.154  25.749  0.00  0.00    -0.306 NA
ATOM     24  H   UNL     1      -0.807   0.217  26.710  0.00  0.00    +0.123 HD
BRANCH   6   9
ATOM      1  F   UNL     1      -3.623  -3.180  25.694  0.00  0.00    -0.206 F 
ATOM      2  F   UNL     1      -4.499  -3.097  23.705  0.00  0.00    -0.206 F 
ATOM      9  C   UNL     1      -1.480  -0.491  24.910  0.00  0.00    +0.054 C 
ATOM     12  C   UNL     1      -1.122  -1.970  24.711  0.00  0.00    +0.024 C 
ATOM     13  C   UNL     1      -2.865  -0.335  25.547  0.00  0.00    +0.024 C 
ATOM     16  C   UNL     1      -2.193  -2.695  23.897  0.00  0.00    +0.077 C 
ATOM     17  C   UNL     1      -3.936  -1.060  24.733  0.00  0.00    +0.077 C 
ATOM     18  C   UNL     1      -3.572  -2.518  24.509  0.00  0.00    +0.249 C 
ENDBRANCH   6   9
ENDBRANCH  10   6
BRANCH  14  19
ATOM     19  C   UNL     1      -1.986   4.654  24.680  0.00  0.00    +0.140 C 
BRANCH  19   7
ATOM      5  O   UNL     1      -4.325   3.156  23.899  0.00  0.00    -0.253 OA
ATOM      7  N   UNL     1      -3.059   4.223  25.528  0.00  0.00    -0.297 N 
ATOM      8  N   UNL     1      -5.051   3.209  26.102  0.00  0.00    -0.297 N 
ATOM     20  C   UNL     1      -4.161   3.497  25.070  0.00  0.00    +0.300 C 
ATOM     26  H   UNL     1      -3.021   4.471  26.513  0.00  0.00    +0.150 HD
ATOM     27  H   UNL     1      -4.791   3.469  27.049  0.00  0.00    +0.150 HD
BRANCH   8  21
ATOM     21  C   UNL     1      -6.274   2.470  25.898  0.00  0.00    +0.068 C 
ATOM     22  C   UNL     1      -6.562   1.579  27.099  0.00  0.00    +0.027 C 
ATOM     23  C   UNL     1      -6.197   1.655  24.613  0.00  0.00    +0.027 C 
ENDBRANCH   8  21
ENDBRANCH  19   7
ENDBRANCH  14  19
TORSDOF 6
ENDMDL
MODEL 4
REMARK VINA RESULT:      -4.2      3.233      4.951
REMARK  Name = 75536726
REMARK  8 active torsions:
REMARK  status: ('A' for Active; 'I' for Inactive)
REMARK    1  A    between atoms: O_4  and  C_11
REMARK    2  A    between atoms: N_6  and  C_9
REMARK    3  A    between atoms: N_6  and  C_10
REMARK    4  A    between atoms: N_7  and  C_19
REMARK    5  A    between atoms: N_8  and  C_21
REMARK    6  A    between atoms: C_14  and  C_19
REMARK    7  A    between atoms: C_21  and  C_22
REMARK    8  A    between atoms: C_21  and  C_23
REMARK                            x       y       z     vdW  Elec       q    Type
REMARK                         _______ _______ _______ _____ _____    ______ ____
ROOT
ATOM      3  O   UNL     1      -4.915   3.493  26.525  0.00  0.00    -0.371 OA
ATOM     10  C   UNL     1      -3.172   4.340  25.152  0.00  0.00    +0.111 C 
ATOM     11  C   UNL     1      -3.940   3.284  24.380  0.00  0.00    +0.164 C 
ATOM     14  C   UNL     1      -5.255   3.258  25.148  0.00  0.00    +0.165 C 
ATOM     15  C   UNL     1      -3.580   4.024  26.582  0.00  0.00    +0.181 C 
ENDROOT
BRANCH  11   4
ATOM      4  O   UNL     1      -4.130   3.630  23.022  0.00  0.00    -0.388 OA
ATOM     25  H   UNL     1      -4.171   2.811  22.501  0.00  0.00    +0.210 HD
ENDBRANCH  11   4
BRANCH  10   6
ATOM      6  N   UNL     1      -1.733   4.281  24.948  0.00  0.00    -0.306 NA
ATOM     24  H   UNL     1      -1.248   4.694  25.744  0.00  0.00    +0.123 HD
BRANCH   6   9
ATOM      1  F   UNL     1       1.795   1.713  23.532  0.00  0.00    -0.206 F 
ATOM      2  F   UNL     1       1.125  -0.344  23.761  0.00  0.00    -0.206 F 
ATOM      9  C   UNL     1      -1.292   2.901  24.755  0.00  0.00    +0.054 C 
ATOM     12  C   UNL     1      -0.985   2.656  23.272  0.00  0.00    +0.024 C 
ATOM     13  C   UNL     1      -0.066   2.619  25.631  0.00  0.00    +0.024 C 
ATOM     16  C   UNL     1      -0.452   1.242  23.043  0.00  0.00    +0.077 C 
ATOM     17  C   UNL     1       0.467   1.206  25.401  0.00  0.00    +0.077 C 
ATOM     18  C   UNL     1       0.745   0.948  23.930  0.00  0.00    +0.249 C 
ENDBRANCH   6   9
ENDBRANCH  10   6
BRANCH  14  19
ATOM     19  C   UNL     1      -5.999   1.940  25.021  0.00  0.00    +0.140 C 
BRANCH  19   7
ATOM      5  O   UNL     1      -4.377  -0.074  23.742  0.00  0.00    -0.253 OA
ATOM      7  N   UNL     1      -5.284   0.874  25.660  0.00  0.00    -0.297 N 
ATOM      8  N   UNL     1      -3.930  -0.988  25.827  0.00  0.00    -0.297 N 
ATOM     20  C   UNL     1      -4.516  -0.065  24.965  0.00  0.00    +0.300 C 
ATOM     26  H   UNL     1      -5.349   0.789  26.670  0.00  0.00    +0.150 HD
ATOM     27  H   UNL     1      -4.043  -0.852  26.828  0.00  0.00    +0.150 HD
BRANCH   8  21
ATOM     21  C   UNL     1      -3.087  -2.066  25.366  0.00  0.00    +0.068 C 
ATOM     22  C   UNL     1      -1.735  -1.527  24.918  0.00  0.00    +0.027 C 
ATOM     23  C   UNL     1      -3.773  -2.836  24.244  0.00  0.00    +0.027 C 
ENDBRANCH   8  21
ENDBRANCH  19   7
ENDBRANCH  14  19
TORSDOF 6
ENDMDL
MODEL 5
REMARK VINA RESULT:      -3.8      2.192      3.862
REMARK  Name = 75536726
REMARK  8 active torsions:
REMARK  status: ('A' for Active; 'I' for Inactive)
REMARK    1  A    between atoms: O_4  and  C_11
REMARK    2  A    between atoms: N_6  and  C_9
REMARK    3  A    between atoms: N_6  and  C_10
REMARK    4  A    between atoms: N_7  and  C_19
REMARK    5  A    between atoms: N_8  and  C_21
REMARK    6  A    between atoms: C_14  and  C_19
REMARK    7  A    between atoms: C_21  and  C_22
REMARK    8  A    between atoms: C_21  and  C_23
REMARK                            x       y       z     vdW  Elec       q    Type
REMARK                         _______ _______ _______ _____ _____    ______ ____
ROOT
ATOM      3  O   UNL     1       0.052   3.197  23.552  0.00  0.00    -0.371 OA
ATOM     10  C   UNL     1      -0.930   3.205  25.715  0.00  0.00    +0.111 C 
ATOM     11  C   UNL     1      -0.775   1.770  25.248  0.00  0.00    +0.164 C 
ATOM     14  C   UNL     1       0.295   1.924  24.175  0.00  0.00    +0.165 C 
ATOM     15  C   UNL     1      -0.820   3.963  24.401  0.00  0.00    +0.181 C 
ENDROOT
BRANCH  11   4
ATOM      4  O   UNL     1      -0.361   0.900  26.284  0.00  0.00    -0.388 OA
ATOM     25  H   UNL     1      -0.293   1.414  27.106  0.00  0.00    +0.210 HD
ENDBRANCH  11   4
BRANCH  10   6
ATOM      6  N   UNL     1      -2.179   3.461  26.413  0.00  0.00    -0.306 NA
ATOM     24  H   UNL     1      -2.223   4.435  26.710  0.00  0.00    +0.123 HD
BRANCH   6   9
ATOM      1  F   UNL     1      -6.316   1.477  26.398  0.00  0.00    -0.206 F 
ATOM      2  F   UNL     1      -7.038   1.692  24.357  0.00  0.00    -0.206 F 
ATOM      9  C   UNL     1      -3.324   3.145  25.561  0.00  0.00    +0.054 C 
ATOM     12  C   UNL     1      -3.516   1.625  25.489  0.00  0.00    +0.024 C 
ATOM     13  C   UNL     1      -4.580   3.840  26.099  0.00  0.00    +0.024 C 
ATOM     16  C   UNL     1      -4.749   1.261  24.663  0.00  0.00    +0.077 C 
ATOM     17  C   UNL     1      -5.813   3.476  25.273  0.00  0.00    +0.077 C 
ATOM     18  C   UNL     1      -5.991   1.971  25.175  0.00  0.00    +0.249 C 
ENDBRANCH   6   9
ENDBRANCH  10   6
BRANCH  14  19
ATOM     19  C   UNL     1       0.260   0.825  23.128  0.00  0.00    +0.140 C 
BRANCH  19   7
ATOM      5  O   UNL     1       3.059   1.497  22.940  0.00  0.00    -0.253 OA
ATOM      7  N   UNL     1       1.374  -0.067  23.271  0.00  0.00    -0.297 N 
ATOM      8  N   UNL     1       3.584  -0.726  23.346  0.00  0.00    -0.297 N 
ATOM     20  C   UNL     1       2.706   0.340  23.165  0.00  0.00    +0.300 C 
ATOM     26  H   UNL     1       1.183  -1.049  23.445  0.00  0.00    +0.150 HD
ATOM     27  H   UNL     1       3.198  -1.630  23.603  0.00  0.00    +0.150 HD
BRANCH   8  21
ATOM     21  C   UNL     1       5.019  -0.578  23.285  0.00  0.00    +0.068 C 
ATOM     22  C   UNL     1       5.703  -1.757  23.966  0.00  0.00    +0.027 C 
ATOM     23  C   UNL     1       5.446   0.744  23.912  0.00  0.00    +0.027 C 
ENDBRANCH   8  21
ENDBRANCH  19   7
ENDBRANCH  14  19
TORSDOF 6
ENDMDL
MODEL 6
REMARK VINA RESULT:      -3.2     14.506     16.716
REMARK  Name = 75536726
REMARK  8 active torsions:
REMARK  status: ('A' for Active; 'I' for Inactive)
REMARK    1  A    between atoms: O_4  and  C_11
REMARK    2  A    between atoms: N_6  and  C_9
REMARK    3  A    between atoms: N_6  and  C_10
REMARK    4  A    between atoms: N_7  and  C_19
REMARK    5  A    between atoms: N_8  and  C_21
REMARK    6  A    between atoms: C_14  and  C_19
REMARK    7  A    between atoms: C_21  and  C_22
REMARK    8  A    between atoms: C_21  and  C_23
REMARK                            x       y       z     vdW  Elec       q    Type
REMARK                         _______ _______ _______ _____ _____    ______ ____
ROOT
ATOM      3  O   UNL     1      -6.238 -10.780  15.979  0.00  0.00    -0.371 OA
ATOM     10  C   UNL     1      -4.186 -10.780  14.783  0.00  0.00    +0.111 C 
ATOM     11  C   UNL     1      -3.947 -10.223  16.174  0.00  0.00    +0.164 C 
ATOM     14  C   UNL     1      -5.152 -10.776  16.922  0.00  0.00    +0.165 C 
ATOM     15  C   UNL     1      -5.694 -10.636  14.656  0.00  0.00    +0.181 C 
ENDROOT
BRANCH  11   4
ATOM      4  O   UNL     1      -2.728 -10.666  16.737  0.00  0.00    -0.388 OA
ATOM     25  H   UNL     1      -2.048 -10.653  16.044  0.00  0.00    +0.210 HD
ENDBRANCH  11   4
BRANCH  10   6
ATOM      6  N   UNL     1      -3.460 -10.075  13.739  0.00  0.00    -0.306 NA
ATOM     24  H   UNL     1      -2.470 -10.313  13.777  0.00  0.00    +0.123 HD
BRANCH   6   9
ATOM      1  F   UNL     1      -4.170  -8.377   9.536  0.00  0.00    -0.206 F 
ATOM      2  F   UNL     1      -5.123  -9.989   8.430  0.00  0.00    -0.206 F 
ATOM      9  C   UNL     1      -4.002 -10.399  12.421  0.00  0.00    +0.054 C 
ATOM     12  C   UNL     1      -5.167  -9.458  12.091  0.00  0.00    +0.024 C 
ATOM     13  C   UNL     1      -2.894 -10.304  11.366  0.00  0.00    +0.024 C 
ATOM     16  C   UNL     1      -5.712  -9.721  10.688  0.00  0.00    +0.077 C 
ATOM     17  C   UNL     1      -3.439 -10.567   9.963  0.00  0.00    +0.077 C 
ATOM     18  C   UNL     1      -4.612  -9.657   9.642  0.00  0.00    +0.249 C 
ENDBRANCH   6   9
ENDBRANCH  10   6
BRANCH  14  19
ATOM     19  C   UNL     1      -5.533  -9.953  18.140  0.00  0.00    +0.140 C 
BRANCH  19   7
ATOM      5  O   UNL     1      -7.762  -8.777  16.735  0.00  0.00    -0.253 OA
ATOM      7  N   UNL     1      -6.925 -10.098  18.453  0.00  0.00    -0.297 N 
ATOM      8  N   UNL     1      -9.204  -9.800  18.238  0.00  0.00    -0.297 N 
ATOM     20  C   UNL     1      -7.949  -9.492  17.718  0.00  0.00    +0.300 C 
ATOM     26  H   UNL     1      -7.180 -10.660  19.259  0.00  0.00    +0.150 HD
ATOM     27  H   UNL     1      -9.259 -10.461  19.007  0.00  0.00    +0.150 HD
BRANCH   8  21
ATOM     21  C   UNL     1     -10.432  -9.300  17.666  0.00  0.00    +0.068 C 
ATOM     22  C   UNL     1     -10.641  -9.878  16.272  0.00  0.00    +0.027 C 
ATOM     23  C   UNL     1     -10.425  -7.776  17.635  0.00  0.00    +0.027 C 
ENDBRANCH   8  21
ENDBRANCH  19   7
ENDBRANCH  14  19
TORSDOF 6
ENDMDL
MODEL 7
REMARK VINA RESULT:      -3.0      2.573      4.971
REMARK  Name = 75536726
REMARK  8 active torsions:
REMARK  status: ('A' for Active; 'I' for Inactive)
REMARK    1  A    between atoms: O_4  and  C_11
REMARK    2  A    between atoms: N_6  and  C_9
REMARK    3  A    between atoms: N_6  and  C_10
REMARK    4  A    between atoms: N_7  and  C_19
REMARK    5  A    between atoms: N_8  and  C_21
REMARK    6  A    between atoms: C_14  and  C_19
REMARK    7  A    between atoms: C_21  and  C_22
REMARK    8  A    between atoms: C_21  and  C_23
REMARK                            x       y       z     vdW  Elec       q    Type
REMARK                         _______ _______ _______ _____ _____    ______ ____
ROOT
ATOM      3  O   UNL     1      -0.805  -1.157  25.552  0.00  0.00    -0.371 OA
ATOM     10  C   UNL     1      -3.175  -1.149  25.707  0.00  0.00    +0.111 C 
ATOM     11  C   UNL     1      -2.776  -1.086  24.245  0.00  0.00    +0.164 C 
ATOM     14  C   UNL     1      -1.352  -1.623  24.307  0.00  0.00    +0.165 C 
ATOM     15  C   UNL     1      -1.888  -0.718  26.390  0.00  0.00    +0.181 C 
ENDROOT
BRANCH  11   4
ATOM      4  O   UNL     1      -3.604  -1.880  23.418  0.00  0.00    -0.388 OA
ATOM     25  H   UNL     1      -4.470  -1.446  23.346  0.00  0.00    +0.210 HD
ENDBRANCH  11   4
BRANCH  10   6
ATOM      6  N   UNL     1      -4.306  -0.298  26.041  0.00  0.00    -0.306 NA
ATOM     24  H   UNL     1      -4.243   0.006  27.013  0.00  0.00    +0.123 HD
BRANCH   6   9
ATOM      1  F   UNL     1      -3.761   4.256  25.918  0.00  0.00    -0.206 F 
ATOM      2  F   UNL     1      -4.157   4.816  23.854  0.00  0.00    -0.206 F 
ATOM      9  C   UNL     1      -4.359   0.864  25.157  0.00  0.00    +0.054 C 
ATOM     12  C   UNL     1      -5.433   1.844  25.649  0.00  0.00    +0.024 C 
ATOM     13  C   UNL     1      -2.982   1.535  25.095  0.00  0.00    +0.024 C 
ATOM     16  C   UNL     1      -5.468   3.106  24.788  0.00  0.00    +0.077 C 
ATOM     17  C   UNL     1      -3.017   2.797  24.235  0.00  0.00    +0.077 C 
ATOM     18  C   UNL     1      -4.098   3.757  24.700  0.00  0.00    +0.249 C 
ENDBRANCH   6   9
ENDBRANCH  10   6
BRANCH  14  19
ATOM     19  C   UNL     1      -0.482  -1.152  23.155  0.00  0.00    +0.140 C 
BRANCH  19   7
ATOM      5  O   UNL     1       1.723  -0.241  21.533  0.00  0.00    -0.253 OA
ATOM      7  N   UNL     1       0.852  -0.863  23.595  0.00  0.00    -0.297 N 
ATOM      8  N   UNL     1       3.062  -0.217  23.427  0.00  0.00    -0.297 N 
ATOM     20  C   UNL     1       1.868  -0.423  22.741  0.00  0.00    +0.300 C 
ATOM     26  H   UNL     1       1.074  -0.997  24.577  0.00  0.00    +0.150 HD
ATOM     27  H   UNL     1       3.061  -0.323  24.438  0.00  0.00    +0.150 HD
BRANCH   8  21
ATOM     21  C   UNL     1       4.270   0.236  22.779  0.00  0.00    +0.068 C 
ATOM     22  C   UNL     1       5.485  -0.079  23.642  0.00  0.00    +0.027 C 
ATOM     23  C   UNL     1       4.183   1.726  22.471  0.00  0.00    +0.027 C 
ENDBRANCH   8  21
ENDBRANCH  19   7
ENDBRANCH  14  19
TORSDOF 6
ENDMDL
MODEL 8
REMARK VINA RESULT:      -3.0      1.758      4.714
REMARK  Name = 75536726
REMARK  8 active torsions:
REMARK  status: ('A' for Active; 'I' for Inactive)
REMARK    1  A    between atoms: O_4  and  C_11
REMARK    2  A    between atoms: N_6  and  C_9
REMARK    3  A    between atoms: N_6  and  C_10
REMARK    4  A    between atoms: N_7  and  C_19
REMARK    5  A    between atoms: N_8  and  C_21
REMARK    6  A    between atoms: C_14  and  C_19
REMARK    7  A    between atoms: C_21  and  C_22
REMARK    8  A    between atoms: C_21  and  C_23
REMARK                            x       y       z     vdW  Elec       q    Type
REMARK                         _______ _______ _______ _____ _____    ______ ____
ROOT
ATOM      3  O   UNL     1      -1.474  -0.614  26.287  0.00  0.00    -0.371 OA
ATOM     10  C   UNL     1      -3.060  -1.894  25.070  0.00  0.00    +0.111 C 
ATOM     11  C   UNL     1      -1.830  -1.685  24.208  0.00  0.00    +0.164 C 
ATOM     14  C   UNL     1      -0.785  -1.354  25.266  0.00  0.00    +0.165 C 
ATOM     15  C   UNL     1      -2.889  -0.802  26.113  0.00  0.00    +0.181 C 
ENDROOT
BRANCH  11   4
ATOM      4  O   UNL     1      -1.481  -2.835  23.464  0.00  0.00    -0.388 OA
ATOM     25  H   UNL     1      -2.211  -3.040  22.857  0.00  0.00    +0.210 HD
ENDBRANCH  11   4
BRANCH  10   6
ATOM      6  N   UNL     1      -4.312  -1.786  24.337  0.00  0.00    -0.306 NA
ATOM     24  H   UNL     1      -5.069  -2.213  24.869  0.00  0.00    +0.123 HD
BRANCH   6   9
ATOM      1  F   UNL     1      -3.294   2.527  25.526  0.00  0.00    -0.206 F 
ATOM      2  F   UNL     1      -4.552   3.773  24.262  0.00  0.00    -0.206 F 
ATOM      9  C   UNL     1      -4.627  -0.387  24.054  0.00  0.00    +0.054 C 
ATOM     12  C   UNL     1      -5.194   0.284  25.311  0.00  0.00    +0.024 C 
ATOM     13  C   UNL     1      -3.372   0.338  23.554  0.00  0.00    +0.024 C 
ATOM     16  C   UNL     1      -5.469   1.768  25.072  0.00  0.00    +0.077 C 
ATOM     17  C   UNL     1      -3.647   1.822  23.314  0.00  0.00    +0.077 C 
ATOM     18  C   UNL     1      -4.236   2.484  24.548  0.00  0.00    +0.249 C 
ENDBRANCH   6   9
ENDBRANCH  10   6
BRANCH  14  19
ATOM     19  C   UNL     1       0.374  -0.532  24.729  0.00  0.00    +0.140 C 
BRANCH  19   7
ATOM      5  O   UNL     1       0.629   2.054  25.984  0.00  0.00    -0.253 OA
ATOM      7  N   UNL     1      -0.076   0.728  24.212  0.00  0.00    -0.297 N 
ATOM      8  N   UNL     1      -0.439   3.006  24.158  0.00  0.00    -0.297 N 
ATOM     20  C   UNL     1       0.087   1.941  24.885  0.00  0.00    +0.300 C 
ATOM     26  H   UNL     1      -0.551   0.736  23.314  0.00  0.00    +0.150 HD
ATOM     27  H   UNL     1      -0.800   2.822  23.226  0.00  0.00    +0.150 HD
BRANCH   8  21
ATOM     21  C   UNL     1      -0.403   4.370  24.630  0.00  0.00    +0.068 C 
ATOM     22  C   UNL     1      -1.679   4.702  25.392  0.00  0.00    +0.027 C 
ATOM     23  C   UNL     1      -0.190   5.331  23.466  0.00  0.00    +0.027 C 
ENDBRANCH   8  21
ENDBRANCH  19   7
ENDBRANCH  14  19
TORSDOF 6
ENDMDL
