MODEL 1
REMARK VINA RESULT:      -1.5      0.000      0.000
REMARK  Name = 38031261
REMARK  14 active torsions:
REMARK  status: ('A' for Active; 'I' for Inactive)
REMARK    1  A    between atoms: O_3  and  C_23
REMARK    2  A    between atoms: O_3  and  C_27
REMARK    3  A    between atoms: O_4  and  C_30
REMARK    4  A    between atoms: O_4  and  C_31
REMARK    5  A    between atoms: N_5  and  C_15
REMARK    6  A    between atoms: C_8  and  C_12
REMARK    7  A    between atoms: C_9  and  C_15
REMARK    8  A    between atoms: C_11  and  C_16
REMARK    9  A    between atoms: C_12  and  C_17
REMARK   10  A    between atoms: C_12  and  C_18
REMARK   11  A    between atoms: C_13  and  C_19
REMARK   12  A    between atoms: C_16  and  C_20
REMARK   13  A    between atoms: C_21  and  C_23
REMARK   14  A    between atoms: C_22  and  C_24
REMARK                            x       y       z     vdW  Elec       q    Type
REMARK                         _______ _______ _______ _____ _____    ______ ____
ROOT
ATOM      8  C   UNL     1      -3.535   2.233  24.130  0.00  0.00    +0.000 C 
ATOM      9  C   UNL     1      -4.340   3.413  24.727  0.00  0.00    +0.032 C 
ATOM     10  C   UNL     1      -4.449   1.017  23.910  0.00  0.00    +0.012 C 
ATOM     11  C   UNL     1      -5.112   0.543  25.216  0.00  0.00    +0.024 C 
ATOM     13  C   UNL     1      -5.701   1.699  26.000  0.00  0.00    -0.073 C 
ATOM     14  C   UNL     1      -5.353   2.975  25.759  0.00  0.00    -0.022 C 
ATOM     19  C   UNL     1      -6.731   1.357  27.040  0.00  0.00    +0.039 C 
ENDROOT
BRANCH   8  12
ATOM     12  C   UNL     1      -2.857   2.617  22.811  0.00  0.00    -0.013 C 
ATOM     17  C   UNL     1      -2.491   1.366  22.017  0.00  0.00    +0.007 C 
ATOM     18  C   UNL     1      -3.764   3.530  21.992  0.00  0.00    +0.007 C 
ENDBRANCH   8  12
BRANCH   9  15
ATOM     15  C   UNL     1      -3.409   4.464  25.341  0.00  0.00    +0.112 C 
BRANCH  15   5
ATOM      2  O   UNL     1      -0.738   5.272  24.578  0.00  0.00    -0.273 OA
ATOM      5  N   UNL     1      -2.176   3.869  25.754  0.00  0.00    -0.313 N 
ATOM     21  C   UNL     1      -0.926   4.325  25.337  0.00  0.00    +0.239 C 
ATOM     32  H   UNL     1      -2.213   3.112  26.431  0.00  0.00    +0.149 HD
BRANCH  21  23
ATOM     23  C   UNL     1       0.206   3.513  25.928  0.00  0.00    +0.255 C 
BRANCH  23   3
ATOM      3  O   UNL     1      -0.297   2.492  26.764  0.00  0.00    -0.374 OA
ATOM     27  C   UNL     1       0.535   2.279  27.901  0.00  0.00    +0.194 C 
ENDBRANCH  23   3
ENDBRANCH  21  23
ENDBRANCH  15   5
ENDBRANCH   9  15
BRANCH  11  16
ATOM     16  C   UNL     1      -4.130  -0.259  26.077  0.00  0.00    +0.105 C 
BRANCH  16  20
ATOM      1  O   UNL     1      -1.921  -0.075  25.054  0.00  0.00    -0.420 OA
ATOM      6  N   UNL     1      -2.956  -2.018  24.656  0.00  0.00    -0.112 NA
ATOM      7  N   UNL     1      -1.727  -2.051  24.023  0.00  0.00    -0.107 NA
ATOM     20  C   UNL     1      -3.026  -0.847  25.245  0.00  0.00    +0.218 A 
ATOM     22  C   UNL     1      -1.158  -0.897  24.282  0.00  0.00    +0.248 A 
BRANCH  22  24
ATOM     24  C   UNL     1       0.119  -0.378  23.885  0.00  0.00    +0.039 A 
ATOM     25  C   UNL     1       0.336   0.999  23.866  0.00  0.00    +0.017 A 
ATOM     26  C   UNL     1       1.143  -1.252  23.517  0.00  0.00    +0.017 A 
ATOM     28  C   UNL     1       1.577   1.504  23.480  0.00  0.00    +0.046 A 
ATOM     29  C   UNL     1       2.384  -0.747  23.131  0.00  0.00    +0.046 A 
ATOM     30  C   UNL     1       2.602   0.631  23.112  0.00  0.00    +0.120 A 
BRANCH  30   4
ATOM      4  O   UNL     1       3.814   1.123  22.739  0.00  0.00    -0.495 OA
ATOM     31  C   UNL     1       4.967   0.392  23.153  0.00  0.00    +0.277 C 
ENDBRANCH  30   4
ENDBRANCH  22  24
ENDBRANCH  16  20
ENDBRANCH  11  16
TORSDOF 9
ENDMDL
MODEL 2
REMARK VINA RESULT:       0.4      2.282      5.459
REMARK  Name = 38031261
REMARK  14 active torsions:
REMARK  status: ('A' for Active; 'I' for Inactive)
REMARK    1  A    between atoms: O_3  and  C_23
REMARK    2  A    between atoms: O_3  and  C_27
REMARK    3  A    between atoms: O_4  and  C_30
REMARK    4  A    between atoms: O_4  and  C_31
REMARK    5  A    between atoms: N_5  and  C_15
REMARK    6  A    between atoms: C_8  and  C_12
REMARK    7  A    between atoms: C_9  and  C_15
REMARK    8  A    between atoms: C_11  and  C_16
REMARK    9  A    between atoms: C_12  and  C_17
REMARK   10  A    between atoms: C_12  and  C_18
REMARK   11  A    between atoms: C_13  and  C_19
REMARK   12  A    between atoms: C_16  and  C_20
REMARK   13  A    between atoms: C_21  and  C_23
REMARK   14  A    between atoms: C_22  and  C_24
REMARK                            x       y       z     vdW  Elec       q    Type
REMARK                         _______ _______ _______ _____ _____    ______ ____
ROOT
ATOM      8  C   UNL     1      -2.169   2.470  23.847  0.00  0.00    +0.000 C 
ATOM      9  C   UNL     1      -0.688   2.918  23.792  0.00  0.00    +0.032 C 
ATOM     10  C   UNL     1      -3.100   3.656  23.550  0.00  0.00    +0.012 C 
ATOM     11  C   UNL     1      -2.903   4.814  24.546  0.00  0.00    +0.024 C 
ATOM     13  C   UNL     1      -1.437   5.139  24.750  0.00  0.00    -0.073 C 
ATOM     14  C   UNL     1      -0.461   4.284  24.395  0.00  0.00    -0.022 C 
ATOM     19  C   UNL     1      -1.116   6.487  25.332  0.00  0.00    +0.039 C 
ENDROOT
BRANCH   8  12
ATOM     12  C   UNL     1      -2.455   1.329  22.865  0.00  0.00    -0.013 C 
ATOM     17  C   UNL     1      -2.345   1.826  21.427  0.00  0.00    +0.007 C 
ATOM     18  C   UNL     1      -1.501   0.165  23.109  0.00  0.00    +0.007 C 
ENDBRANCH   8  12
BRANCH   9  15
ATOM     15  C   UNL     1       0.225   1.898  24.482  0.00  0.00    +0.112 C 
BRANCH  15   5
ATOM      2  O   UNL     1       1.505  -0.318  23.135  0.00  0.00    -0.273 OA
ATOM      5  N   UNL     1       1.520   1.887  23.878  0.00  0.00    -0.313 N 
ATOM     21  C   UNL     1       2.064   0.770  23.246  0.00  0.00    +0.239 C 
ATOM     32  H   UNL     1       2.047   2.756  23.861  0.00  0.00    +0.149 HD
BRANCH  21  23
ATOM     23  C   UNL     1       3.448   1.040  22.695  0.00  0.00    +0.255 C 
BRANCH  23   3
ATOM      3  O   UNL     1       4.281  -0.087  22.865  0.00  0.00    -0.374 OA
ATOM     27  C   UNL     1       5.351   0.176  23.768  0.00  0.00    +0.194 C 
ENDBRANCH  23   3
ENDBRANCH  21  23
ENDBRANCH  15   5
ENDBRANCH   9  15
BRANCH  11  16
ATOM     16  C   UNL     1      -3.589   4.516  25.884  0.00  0.00    +0.105 C 
BRANCH  16  20
ATOM      1  O   UNL     1      -3.726   2.115  25.466  0.00  0.00    -0.420 OA
ATOM      6  N   UNL     1      -5.670   3.056  26.050  0.00  0.00    -0.112 NA
ATOM      7  N   UNL     1      -5.892   1.706  25.846  0.00  0.00    -0.107 NA
ATOM     20  C   UNL     1      -4.392   3.249  25.818  0.00  0.00    +0.218 A 
ATOM     22  C   UNL     1      -4.731   1.198  25.508  0.00  0.00    +0.248 A 
BRANCH  22  24
ATOM     24  C   UNL     1      -4.365  -0.150  25.180  0.00  0.00    +0.039 A 
ATOM     25  C   UNL     1      -4.820  -0.728  23.995  0.00  0.00    +0.017 A 
ATOM     26  C   UNL     1      -3.553  -0.882  26.047  0.00  0.00    +0.017 A 
ATOM     28  C   UNL     1      -4.463  -2.037  23.676  0.00  0.00    +0.046 A 
ATOM     29  C   UNL     1      -3.197  -2.192  25.728  0.00  0.00    +0.046 A 
ATOM     30  C   UNL     1      -3.652  -2.771  24.543  0.00  0.00    +0.120 A 
BRANCH  30   4
ATOM      4  O   UNL     1      -3.302  -4.047  24.230  0.00  0.00    -0.495 OA
ATOM     31  C   UNL     1      -2.311  -4.219  23.218  0.00  0.00    +0.277 C 
ENDBRANCH  30   4
ENDBRANCH  22  24
ENDBRANCH  16  20
ENDBRANCH  11  16
TORSDOF 9
ENDMDL
MODEL 3
REMARK VINA RESULT:       1.4      1.785      4.425
REMARK  Name = 38031261
REMARK  14 active torsions:
REMARK  status: ('A' for Active; 'I' for Inactive)
REMARK    1  A    between atoms: O_3  and  C_23
REMARK    2  A    between atoms: O_3  and  C_27
REMARK    3  A    between atoms: O_4  and  C_30
REMARK    4  A    between atoms: O_4  and  C_31
REMARK    5  A    between atoms: N_5  and  C_15
REMARK    6  A    between atoms: C_8  and  C_12
REMARK    7  A    between atoms: C_9  and  C_15
REMARK    8  A    between atoms: C_11  and  C_16
REMARK    9  A    between atoms: C_12  and  C_17
REMARK   10  A    between atoms: C_12  and  C_18
REMARK   11  A    between atoms: C_13  and  C_19
REMARK   12  A    between atoms: C_16  and  C_20
REMARK   13  A    between atoms: C_21  and  C_23
REMARK   14  A    between atoms: C_22  and  C_24
REMARK                            x       y       z     vdW  Elec       q    Type
REMARK                         _______ _______ _______ _____ _____    ______ ____
ROOT
ATOM      8  C   UNL     1      -4.365   2.640  25.315  0.00  0.00    +0.000 C 
ATOM      9  C   UNL     1      -4.693   1.376  24.482  0.00  0.00    +0.032 C 
ATOM     10  C   UNL     1      -4.038   3.822  24.390  0.00  0.00    +0.012 C 
ATOM     11  C   UNL     1      -2.844   3.525  23.464  0.00  0.00    +0.024 C 
ATOM     13  C   UNL     1      -2.967   2.165  22.806  0.00  0.00    -0.073 C 
ATOM     14  C   UNL     1      -3.808   1.222  23.267  0.00  0.00    -0.022 C 
ATOM     19  C   UNL     1      -2.132   1.929  21.578  0.00  0.00    +0.039 C 
ENDROOT
BRANCH   8  12
ATOM     12  C   UNL     1      -5.516   3.018  26.253  0.00  0.00    -0.013 C 
ATOM     17  C   UNL     1      -6.173   4.315  25.791  0.00  0.00    +0.007 C 
ATOM     18  C   UNL     1      -6.539   1.889  26.322  0.00  0.00    +0.007 C 
ENDBRANCH   8  12
BRANCH   9  15
ATOM     15  C   UNL     1      -4.606   0.109  25.340  0.00  0.00    +0.112 C 
BRANCH  15   5
ATOM      2  O   UNL     1      -4.461  -2.370  23.859  0.00  0.00    -0.273 OA
ATOM      5  N   UNL     1      -3.430  -0.638  25.023  0.00  0.00    -0.313 N 
ATOM     21  C   UNL     1      -3.450  -1.831  24.300  0.00  0.00    +0.239 C 
ATOM     32  H   UNL     1      -2.530  -0.251  25.291  0.00  0.00    +0.149 HD
BRANCH  21  23
ATOM     23  C   UNL     1      -2.063  -2.407  24.109  0.00  0.00    +0.255 C 
BRANCH  23   3
ATOM      3  O   UNL     1      -1.485  -2.737  25.353  0.00  0.00    -0.374 OA
ATOM     27  C   UNL     1      -0.104  -2.390  25.406  0.00  0.00    +0.194 C 
ENDBRANCH  23   3
ENDBRANCH  21  23
ENDBRANCH  15   5
ENDBRANCH   9  15
BRANCH  11  16
ATOM     16  C   UNL     1      -1.515   3.652  24.216  0.00  0.00    +0.105 C 
BRANCH  16  20
ATOM      1  O   UNL     1       0.489   2.325  23.784  0.00  0.00    -0.420 OA
ATOM      6  N   UNL     1      -1.192   1.173  24.708  0.00  0.00    -0.112 NA
ATOM      7  N   UNL     1      -0.131   0.306  24.521  0.00  0.00    -0.107 NA
ATOM     20  C   UNL     1      -0.785   2.340  24.265  0.00  0.00    +0.218 A 
ATOM     22  C   UNL     1       0.826   1.021  23.979  0.00  0.00    +0.248 A 
BRANCH  22  24
ATOM     24  C   UNL     1       2.149   0.647  23.569  0.00  0.00    +0.039 A 
ATOM     25  C   UNL     1       2.571  -0.676  23.697  0.00  0.00    +0.017 A 
ATOM     26  C   UNL     1       3.012   1.608  23.042  0.00  0.00    +0.017 A 
ATOM     28  C   UNL     1       3.857  -1.039  23.298  0.00  0.00    +0.046 A 
ATOM     29  C   UNL     1       4.299   1.245  22.644  0.00  0.00    +0.046 A 
ATOM     30  C   UNL     1       4.722  -0.078  22.772  0.00  0.00    +0.120 A 
BRANCH  30   4
ATOM      4  O   UNL     1       5.975  -0.433  22.380  0.00  0.00    -0.495 OA
ATOM     31  C   UNL     1       7.023  -0.278  23.337  0.00  0.00    +0.277 C 
ENDBRANCH  30   4
ENDBRANCH  22  24
ENDBRANCH  16  20
ENDBRANCH  11  16
TORSDOF 9
ENDMDL
MODEL 4
REMARK VINA RESULT:       1.6      1.833      3.570
REMARK  Name = 38031261
REMARK  14 active torsions:
REMARK  status: ('A' for Active; 'I' for Inactive)
REMARK    1  A    between atoms: O_3  and  C_23
REMARK    2  A    between atoms: O_3  and  C_27
REMARK    3  A    between atoms: O_4  and  C_30
REMARK    4  A    between atoms: O_4  and  C_31
REMARK    5  A    between atoms: N_5  and  C_15
REMARK    6  A    between atoms: C_8  and  C_12
REMARK    7  A    between atoms: C_9  and  C_15
REMARK    8  A    between atoms: C_11  and  C_16
REMARK    9  A    between atoms: C_12  and  C_17
REMARK   10  A    between atoms: C_12  and  C_18
REMARK   11  A    between atoms: C_13  and  C_19
REMARK   12  A    between atoms: C_16  and  C_20
REMARK   13  A    between atoms: C_21  and  C_23
REMARK   14  A    between atoms: C_22  and  C_24
REMARK                            x       y       z     vdW  Elec       q    Type
REMARK                         _______ _______ _______ _____ _____    ______ ____
ROOT
ATOM      8  C   UNL     1      -1.869   3.773  24.745  0.00  0.00    +0.000 C 
ATOM      9  C   UNL     1      -2.217   3.030  26.058  0.00  0.00    +0.032 C 
ATOM     10  C   UNL     1      -3.110   4.490  24.190  0.00  0.00    +0.012 C 
ATOM     11  C   UNL     1      -4.268   3.514  23.907  0.00  0.00    +0.024 C 
ATOM     13  C   UNL     1      -4.497   2.562  25.064  0.00  0.00    -0.073 C 
ATOM     14  C   UNL     1      -3.574   2.368  26.023  0.00  0.00    -0.022 C 
ATOM     19  C   UNL     1      -5.830   1.870  25.117  0.00  0.00    +0.039 C 
ENDROOT
BRANCH   8  12
ATOM     12  C   UNL     1      -0.734   4.782  24.946  0.00  0.00    -0.013 C 
ATOM     17  C   UNL     1       0.282   4.672  23.813  0.00  0.00    +0.007 C 
ATOM     18  C   UNL     1      -1.291   6.199  25.036  0.00  0.00    +0.007 C 
ENDBRANCH   8  12
BRANCH   9  15
ATOM     15  C   UNL     1      -1.149   1.985  26.402  0.00  0.00    +0.112 C 
BRANCH  15   5
ATOM      2  O   UNL     1      -0.631  -0.632  27.521  0.00  0.00    -0.273 OA
ATOM      5  N   UNL     1      -1.473   0.719  25.822  0.00  0.00    -0.313 N 
ATOM     21  C   UNL     1      -1.186  -0.501  26.433  0.00  0.00    +0.239 C 
ATOM     32  H   UNL     1      -1.988   0.712  24.947  0.00  0.00    +0.149 HD
BRANCH  21  23
ATOM     23  C   UNL     1      -1.641  -1.680  25.599  0.00  0.00    +0.255 C 
BRANCH  23   3
ATOM      3  O   UNL     1      -3.040  -1.842  25.686  0.00  0.00    -0.374 OA
ATOM     27  C   UNL     1      -3.514  -2.847  24.795  0.00  0.00    +0.194 C 
ENDBRANCH  23   3
ENDBRANCH  21  23
ENDBRANCH  15   5
ENDBRANCH   9  15
BRANCH  11  16
ATOM     16  C   UNL     1      -4.038   2.746  22.602  0.00  0.00    +0.105 C 
BRANCH  16  20
ATOM      1  O   UNL     1      -1.751   1.890  22.640  0.00  0.00    -0.420 OA
ATOM      6  N   UNL     1      -3.313   0.355  23.100  0.00  0.00    -0.112 NA
ATOM      7  N   UNL     1      -2.076  -0.262  23.156  0.00  0.00    -0.107 NA
ATOM     20  C   UNL     1      -3.074   1.610  22.796  0.00  0.00    +0.218 A 
ATOM     22  C   UNL     1      -1.196   0.671  22.882  0.00  0.00    +0.248 A 
BRANCH  22  24
ATOM     24  C   UNL     1       0.235   0.607  22.798  0.00  0.00    +0.039 A 
ATOM     25  C   UNL     1       0.841  -0.246  21.875  0.00  0.00    +0.017 A 
ATOM     26  C   UNL     1       1.019   1.396  23.639  0.00  0.00    +0.017 A 
ATOM     28  C   UNL     1       2.231  -0.309  21.794  0.00  0.00    +0.046 A 
ATOM     29  C   UNL     1       2.410   1.333  23.558  0.00  0.00    +0.046 A 
ATOM     30  C   UNL     1       3.017   0.480  22.635  0.00  0.00    +0.120 A 
BRANCH  30   4
ATOM      4  O   UNL     1       4.373   0.421  22.553  0.00  0.00    -0.495 OA
ATOM     31  C   UNL     1       5.091   0.254  23.776  0.00  0.00    +0.277 C 
ENDBRANCH  30   4
ENDBRANCH  22  24
ENDBRANCH  16  20
ENDBRANCH  11  16
TORSDOF 9
ENDMDL
MODEL 5
REMARK VINA RESULT:       2.0      1.762      5.125
REMARK  Name = 38031261
REMARK  14 active torsions:
REMARK  status: ('A' for Active; 'I' for Inactive)
REMARK    1  A    between atoms: O_3  and  C_23
REMARK    2  A    between atoms: O_3  and  C_27
REMARK    3  A    between atoms: O_4  and  C_30
REMARK    4  A    between atoms: O_4  and  C_31
REMARK    5  A    between atoms: N_5  and  C_15
REMARK    6  A    between atoms: C_8  and  C_12
REMARK    7  A    between atoms: C_9  and  C_15
REMARK    8  A    between atoms: C_11  and  C_16
REMARK    9  A    between atoms: C_12  and  C_17
REMARK   10  A    between atoms: C_12  and  C_18
REMARK   11  A    between atoms: C_13  and  C_19
REMARK   12  A    between atoms: C_16  and  C_20
REMARK   13  A    between atoms: C_21  and  C_23
REMARK   14  A    between atoms: C_22  and  C_24
REMARK                            x       y       z     vdW  Elec       q    Type
REMARK                         _______ _______ _______ _____ _____    ______ ____
ROOT
ATOM      8  C   UNL     1      -3.033  -0.685  24.686  0.00  0.00    +0.000 C 
ATOM      9  C   UNL     1      -1.858  -0.147  23.834  0.00  0.00    +0.032 C 
ATOM     10  C   UNL     1      -4.370  -0.452  23.966  0.00  0.00    +0.012 C 
ATOM     11  C   UNL     1      -4.621   1.040  23.674  0.00  0.00    +0.024 C 
ATOM     13  C   UNL     1      -3.402   1.709  23.073  0.00  0.00    -0.073 C 
ATOM     14  C   UNL     1      -2.177   1.157  23.143  0.00  0.00    -0.022 C 
ATOM     19  C   UNL     1      -3.629   3.008  22.351  0.00  0.00    +0.039 C 
ENDROOT
BRANCH   8  12
ATOM     12  C   UNL     1      -2.870  -2.175  25.004  0.00  0.00    -0.013 C 
ATOM     17  C   UNL     1      -3.975  -2.986  24.333  0.00  0.00    +0.007 C 
ATOM     18  C   UNL     1      -1.496  -2.667  24.563  0.00  0.00    +0.007 C 
ENDBRANCH   8  12
BRANCH   9  15
ATOM     15  C   UNL     1      -0.592   0.020  24.681  0.00  0.00    +0.112 C 
BRANCH  15   5
ATOM      2  O   UNL     1       1.418   1.837  23.669  0.00  0.00    -0.273 OA
ATOM      5  N   UNL     1       0.573  -0.317  23.923  0.00  0.00    -0.313 N 
ATOM     21  C   UNL     1       1.495   0.628  23.473  0.00  0.00    +0.239 C 
ATOM     32  H   UNL     1       0.766  -1.300  23.753  0.00  0.00    +0.149 HD
BRANCH  21  23
ATOM     23  C   UNL     1       2.631  -0.006  22.698  0.00  0.00    +0.255 C 
BRANCH  23   3
ATOM      3  O   UNL     1       3.727   0.878  22.608  0.00  0.00    -0.374 OA
ATOM     27  C   UNL     1       4.893   0.342  23.227  0.00  0.00    +0.194 C 
ENDBRANCH  23   3
ENDBRANCH  21  23
ENDBRANCH  15   5
ENDBRANCH   9  15
BRANCH  11  16
ATOM     16  C   UNL     1      -5.087   1.779  24.934  0.00  0.00    +0.105 C 
BRANCH  16  20
ATOM      1  O   UNL     1      -2.941   2.189  26.023  0.00  0.00    -0.420 OA
ATOM      6  N   UNL     1      -4.013   4.045  25.381  0.00  0.00    -0.112 NA
ATOM      7  N   UNL     1      -2.823   4.422  25.977  0.00  0.00    -0.107 NA
ATOM     20  C   UNL     1      -4.039   2.733  25.429  0.00  0.00    +0.218 A 
ATOM     22  C   UNL     1      -2.232   3.308  26.336  0.00  0.00    +0.248 A 
BRANCH  22  24
ATOM     24  C   UNL     1      -0.977   3.090  26.995  0.00  0.00    +0.039 A 
ATOM     25  C   UNL     1      -0.921   3.031  28.388  0.00  0.00    +0.017 A 
ATOM     26  C   UNL     1       0.189   2.938  26.244  0.00  0.00    +0.017 A 
ATOM     28  C   UNL     1       0.298   2.820  29.029  0.00  0.00    +0.046 A 
ATOM     29  C   UNL     1       1.409   2.726  26.885  0.00  0.00    +0.046 A 
ATOM     30  C   UNL     1       1.465   2.667  28.278  0.00  0.00    +0.120 A 
BRANCH  30   4
ATOM      4  O   UNL     1       2.654   2.458  28.903  0.00  0.00    -0.495 OA
ATOM     31  C   UNL     1       2.618   1.767  30.151  0.00  0.00    +0.277 C 
ENDBRANCH  30   4
ENDBRANCH  22  24
ENDBRANCH  16  20
ENDBRANCH  11  16
TORSDOF 9
ENDMDL
MODEL 6
REMARK VINA RESULT:       2.0      2.665      4.995
REMARK  Name = 38031261
REMARK  14 active torsions:
REMARK  status: ('A' for Active; 'I' for Inactive)
REMARK    1  A    between atoms: O_3  and  C_23
REMARK    2  A    between atoms: O_3  and  C_27
REMARK    3  A    between atoms: O_4  and  C_30
REMARK    4  A    between atoms: O_4  and  C_31
REMARK    5  A    between atoms: N_5  and  C_15
REMARK    6  A    between atoms: C_8  and  C_12
REMARK    7  A    between atoms: C_9  and  C_15
REMARK    8  A    between atoms: C_11  and  C_16
REMARK    9  A    between atoms: C_12  and  C_17
REMARK   10  A    between atoms: C_12  and  C_18
REMARK   11  A    between atoms: C_13  and  C_19
REMARK   12  A    between atoms: C_16  and  C_20
REMARK   13  A    between atoms: C_21  and  C_23
REMARK   14  A    between atoms: C_22  and  C_24
REMARK                            x       y       z     vdW  Elec       q    Type
REMARK                         _______ _______ _______ _____ _____    ______ ____
ROOT
ATOM      8  C   UNL     1      -2.070   2.626  23.776  0.00  0.00    +0.000 C 
ATOM      9  C   UNL     1      -0.673   3.276  23.617  0.00  0.00    +0.032 C 
ATOM     10  C   UNL     1      -3.175   3.672  23.563  0.00  0.00    +0.012 C 
ATOM     11  C   UNL     1      -3.067   4.844  24.556  0.00  0.00    +0.024 C 
ATOM     13  C   UNL     1      -1.649   5.369  24.654  0.00  0.00    -0.073 C 
ATOM     14  C   UNL     1      -0.593   4.660  24.217  0.00  0.00    -0.022 C 
ATOM     19  C   UNL     1      -1.475   6.748  25.227  0.00  0.00    +0.039 C 
ENDROOT
BRANCH   8  12
ATOM     12  C   UNL     1      -2.267   1.458  22.804  0.00  0.00    -0.013 C 
ATOM     17  C   UNL     1      -2.408   1.974  21.375  0.00  0.00    +0.007 C 
ATOM     18  C   UNL     1      -1.108   0.474  22.912  0.00  0.00    +0.007 C 
ENDBRANCH   8  12
BRANCH   9  15
ATOM     15  C   UNL     1       0.421   2.392  24.224  0.00  0.00    +0.112 C 
BRANCH  15   5
ATOM      2  O   UNL     1      -0.716   0.874  26.408  0.00  0.00    -0.273 OA
ATOM      5  N   UNL     1       0.565   2.652  25.622  0.00  0.00    -0.313 N 
ATOM     21  C   UNL     1      -0.020   1.864  26.614  0.00  0.00    +0.239 C 
ATOM     32  H   UNL     1       1.171   3.416  25.907  0.00  0.00    +0.149 HD
BRANCH  21  23
ATOM     23  C   UNL     1       0.298   2.367  28.006  0.00  0.00    +0.255 C 
BRANCH  23   3
ATOM      3  O   UNL     1       1.692   2.493  28.184  0.00  0.00    -0.374 OA
ATOM     27  C   UNL     1       2.041   2.637  29.558  0.00  0.00    +0.194 C 
ENDBRANCH  23   3
ENDBRANCH  21  23
ENDBRANCH  15   5
ENDBRANCH   9  15
BRANCH  11  16
ATOM     16  C   UNL     1      -3.603   4.451  25.937  0.00  0.00    +0.105 C 
BRANCH  16  20
ATOM      1  O   UNL     1      -3.718   2.056  25.476  0.00  0.00    -0.420 OA
ATOM      6  N   UNL     1      -5.651   2.954  26.157  0.00  0.00    -0.112 NA
ATOM      7  N   UNL     1      -5.861   1.604  25.934  0.00  0.00    -0.107 NA
ATOM     20  C   UNL     1      -4.387   3.172  25.878  0.00  0.00    +0.218 A 
ATOM     22  C   UNL     1      -4.706   1.122  25.539  0.00  0.00    +0.248 A 
BRANCH  22  24
ATOM     24  C   UNL     1      -4.332  -0.212  25.169  0.00  0.00    +0.039 A 
ATOM     25  C   UNL     1      -3.572  -0.991  26.042  0.00  0.00    +0.017 A 
ATOM     26  C   UNL     1      -4.727  -0.730  23.935  0.00  0.00    +0.017 A 
ATOM     28  C   UNL     1      -3.208  -2.287  25.682  0.00  0.00    +0.046 A 
ATOM     29  C   UNL     1      -4.363  -2.028  23.575  0.00  0.00    +0.046 A 
ATOM     30  C   UNL     1      -3.603  -2.807  24.448  0.00  0.00    +0.120 A 
BRANCH  30   4
ATOM      4  O   UNL     1      -3.250  -4.073  24.099  0.00  0.00    -0.495 OA
ATOM     31  C   UNL     1      -2.137  -4.217  23.218  0.00  0.00    +0.277 C 
ENDBRANCH  30   4
ENDBRANCH  22  24
ENDBRANCH  16  20
ENDBRANCH  11  16
TORSDOF 9
ENDMDL
MODEL 7
REMARK VINA RESULT:       2.2      2.179      4.262
REMARK  Name = 38031261
REMARK  14 active torsions:
REMARK  status: ('A' for Active; 'I' for Inactive)
REMARK    1  A    between atoms: O_3  and  C_23
REMARK    2  A    between atoms: O_3  and  C_27
REMARK    3  A    between atoms: O_4  and  C_30
REMARK    4  A    between atoms: O_4  and  C_31
REMARK    5  A    between atoms: N_5  and  C_15
REMARK    6  A    between atoms: C_8  and  C_12
REMARK    7  A    between atoms: C_9  and  C_15
REMARK    8  A    between atoms: C_11  and  C_16
REMARK    9  A    between atoms: C_12  and  C_17
REMARK   10  A    between atoms: C_12  and  C_18
REMARK   11  A    between atoms: C_13  and  C_19
REMARK   12  A    between atoms: C_16  and  C_20
REMARK   13  A    between atoms: C_21  and  C_23
REMARK   14  A    between atoms: C_22  and  C_24
REMARK                            x       y       z     vdW  Elec       q    Type
REMARK                         _______ _______ _______ _____ _____    ______ ____
ROOT
ATOM      8  C   UNL     1      -3.059   2.885  23.793  0.00  0.00    +0.000 C 
ATOM      9  C   UNL     1      -1.757   3.158  24.584  0.00  0.00    +0.032 C 
ATOM     10  C   UNL     1      -4.010   4.088  23.893  0.00  0.00    +0.012 C 
ATOM     11  C   UNL     1      -4.384   4.414  25.352  0.00  0.00    +0.024 C 
ATOM     13  C   UNL     1      -3.166   4.436  26.253  0.00  0.00    -0.073 C 
ATOM     14  C   UNL     1      -1.997   3.881  25.888  0.00  0.00    -0.022 C 
ATOM     19  C   UNL     1      -3.310   5.150  27.569  0.00  0.00    +0.039 C 
ENDROOT
BRANCH   8  12
ATOM     12  C   UNL     1      -2.775   2.572  22.320  0.00  0.00    -0.013 C 
ATOM     17  C   UNL     1      -2.686   1.063  22.105  0.00  0.00    +0.007 C 
ATOM     18  C   UNL     1      -3.852   3.181  21.428  0.00  0.00    +0.007 C 
ENDBRANCH   8  12
BRANCH   9  15
ATOM     15  C   UNL     1      -0.991   1.857  24.855  0.00  0.00    +0.112 C 
BRANCH  15   5
ATOM      2  O   UNL     1       0.416  -0.095  23.251  0.00  0.00    -0.273 OA
ATOM      5  N   UNL     1       0.349   1.947  24.366  0.00  0.00    -0.313 N 
ATOM     21  C   UNL     1       0.953   0.954  23.594  0.00  0.00    +0.239 C 
ATOM     32  H   UNL     1       0.867   2.803  24.543  0.00  0.00    +0.149 HD
BRANCH  21  23
ATOM     23  C   UNL     1       2.374   1.310  23.213  0.00  0.00    +0.255 C 
BRANCH  23   3
ATOM      3  O   UNL     1       3.041   0.190  22.674  0.00  0.00    -0.374 OA
ATOM     27  C   UNL     1       4.431   0.198  22.986  0.00  0.00    +0.194 C 
ENDBRANCH  23   3
ENDBRANCH  21  23
ENDBRANCH  15   5
ENDBRANCH   9  15
BRANCH  11  16
ATOM     16  C   UNL     1      -5.442   3.441  25.883  0.00  0.00    +0.105 C 
BRANCH  16  20
ATOM      1  O   UNL     1      -4.164   1.388  25.545  0.00  0.00    -0.420 OA
ATOM      6  N   UNL     1      -6.118   1.441  24.457  0.00  0.00    -0.112 NA
ATOM      7  N   UNL     1      -5.506   0.232  24.178  0.00  0.00    -0.107 NA
ATOM     20  C   UNL     1      -5.299   2.082  25.258  0.00  0.00    +0.218 A 
ATOM     22  C   UNL     1      -4.369   0.246  24.834  0.00  0.00    +0.248 A 
BRANCH  22  24
ATOM     24  C   UNL     1      -3.329  -0.739  24.915  0.00  0.00    +0.039 A 
ATOM     25  C   UNL     1      -3.461  -1.950  24.236  0.00  0.00    +0.017 A 
ATOM     26  C   UNL     1      -2.187  -0.485  25.673  0.00  0.00    +0.017 A 
ATOM     28  C   UNL     1      -2.451  -2.907  24.315  0.00  0.00    +0.046 A 
ATOM     29  C   UNL     1      -1.175  -1.443  25.753  0.00  0.00    +0.046 A 
ATOM     30  C   UNL     1      -1.307  -2.654  25.074  0.00  0.00    +0.120 A 
BRANCH  30   4
ATOM      4  O   UNL     1      -0.320  -3.587  25.148  0.00  0.00    -0.495 OA
ATOM     31  C   UNL     1       0.961  -3.142  25.595  0.00  0.00    +0.277 C 
ENDBRANCH  30   4
ENDBRANCH  22  24
ENDBRANCH  16  20
ENDBRANCH  11  16
TORSDOF 9
ENDMDL
