MODEL 1
REMARK VINA RESULT:      -4.3      0.000      0.000
REMARK  Name = 71693076
REMARK  9 active torsions:
REMARK  status: ('A' for Active; 'I' for Inactive)
REMARK    1  A    between atoms: N_1  and  C_12
REMARK    2  A    between atoms: N_2  and  C_19
REMARK    3  A    between atoms: C_4  and  C_8
REMARK    4  A    between atoms: C_6  and  C_12
REMARK    5  A    between atoms: C_7  and  C_11
REMARK    6  A    between atoms: C_8  and  C_13
REMARK    7  A    between atoms: C_8  and  C_14
REMARK    8  A    between atoms: C_9  and  C_15
REMARK    9  A    between atoms: C_11  and  C_16
REMARK                            x       y       z     vdW  Elec       q    Type
REMARK                         _______ _______ _______ _____ _____    ______ ____
ROOT
ATOM      4  C   UNL     1      -5.258  -9.077  10.250  0.00  0.00    +0.000 C 
ATOM      5  C   UNL     1      -5.922  -8.954  11.629  0.00  0.00    +0.012 C 
ATOM      6  C   UNL     1      -6.291  -8.826   9.127  0.00  0.00    +0.029 C 
ATOM      7  C   UNL     1      -7.125  -9.903  11.815  0.00  0.00    +0.022 C 
ATOM      9  C   UNL     1      -7.988 -10.023  10.568  0.00  0.00    -0.073 C 
ATOM     10  C   UNL     1      -7.602  -9.526   9.379  0.00  0.00    -0.023 C 
ATOM     15  C   UNL     1      -9.281 -10.781  10.689  0.00  0.00    +0.039 C 
ENDROOT
BRANCH   4   8
ATOM      8  C   UNL     1      -4.571 -10.440  10.086  0.00  0.00    -0.013 C 
ATOM     13  C   UNL     1      -3.240 -10.457  10.828  0.00  0.00    +0.007 C 
ATOM     14  C   UNL     1      -4.371 -10.759   8.609  0.00  0.00    +0.007 C 
ENDBRANCH   4   8
BRANCH   7  11
ATOM     11  C   UNL     1      -7.919  -9.451  13.048  0.00  0.00    +0.082 C 
BRANCH  11  16
ATOM      2  N   UNL     1      -7.772  -9.657  15.548  0.00  0.00    -0.331 N 
ATOM      3  N   UNL     1      -5.928 -10.144  14.407  0.00  0.00    -0.232 NA
ATOM     16  C   UNL     1      -7.180  -9.758  14.319  0.00  0.00    +0.111 A 
ATOM     17  C   UNL     1      -6.837 -10.002  16.491  0.00  0.00    +0.069 A 
ATOM     18  C   UNL     1      -5.695 -10.302  15.754  0.00  0.00    +0.089 A 
ATOM     19  C   UNL     1      -9.136  -9.259  15.810  0.00  0.00    +0.150 C 
ATOM     20  C   UNL     1      -6.893 -10.074  17.883  0.00  0.00    +0.028 A 
ATOM     21  C   UNL     1      -4.530 -10.699  16.430  0.00  0.00    +0.030 A 
ATOM     22  C   UNL     1      -5.724 -10.472  18.540  0.00  0.00    +0.002 A 
ATOM     23  C   UNL     1      -4.562 -10.779  17.828  0.00  0.00    +0.002 A 
ENDBRANCH  11  16
ENDBRANCH   7  11
BRANCH   6  12
ATOM     12  C   UNL     1      -6.550  -7.330   8.919  0.00  0.00    +0.085 C 
BRANCH  12   1
ATOM      1  N   UNL     1      -7.938  -7.094   8.566  0.00  0.00    -0.329 NA
ATOM     24  H   UNL     1      -8.505  -6.984   9.405  0.00  0.00    +0.118 HD
ATOM     25  H   UNL     1      -8.309  -7.912   8.082  0.00  0.00    +0.118 HD
ENDBRANCH  12   1
ENDBRANCH   6  12
TORSDOF 5
ENDMDL
MODEL 2
REMARK VINA RESULT:      -3.2      1.409      1.882
REMARK  Name = 71693076
REMARK  9 active torsions:
REMARK  status: ('A' for Active; 'I' for Inactive)
REMARK    1  A    between atoms: N_1  and  C_12
REMARK    2  A    between atoms: N_2  and  C_19
REMARK    3  A    between atoms: C_4  and  C_8
REMARK    4  A    between atoms: C_6  and  C_12
REMARK    5  A    between atoms: C_7  and  C_11
REMARK    6  A    between atoms: C_8  and  C_13
REMARK    7  A    between atoms: C_8  and  C_14
REMARK    8  A    between atoms: C_9  and  C_15
REMARK    9  A    between atoms: C_11  and  C_16
REMARK                            x       y       z     vdW  Elec       q    Type
REMARK                         _______ _______ _______ _____ _____    ______ ____
ROOT
ATOM      4  C   UNL     1      -6.422  -8.780   9.670  0.00  0.00    +0.000 C 
ATOM      5  C   UNL     1      -7.328  -8.822  10.909  0.00  0.00    +0.012 C 
ATOM      6  C   UNL     1      -7.226  -8.342   8.425  0.00  0.00    +0.029 C 
ATOM      7  C   UNL     1      -8.554  -9.744  10.738  0.00  0.00    +0.022 C 
ATOM      9  C   UNL     1      -9.173  -9.663   9.351  0.00  0.00    -0.073 C 
ATOM     10  C   UNL     1      -8.569  -9.022   8.334  0.00  0.00    -0.023 C 
ATOM     15  C   UNL     1     -10.474 -10.383   9.127  0.00  0.00    +0.039 C 
ENDROOT
BRANCH   4   8
ATOM      8  C   UNL     1      -5.730 -10.132   9.444  0.00  0.00    -0.013 C 
ATOM     13  C   UNL     1      -5.025 -10.588  10.716  0.00  0.00    +0.007 C 
ATOM     14  C   UNL     1      -4.745 -10.037   8.284  0.00  0.00    +0.007 C 
ENDBRANCH   4   8
BRANCH   7  11
ATOM     11  C   UNL     1      -9.558  -9.436  11.857  0.00  0.00    +0.082 C 
BRANCH  11  16
ATOM      2  N   UNL     1      -9.489  -9.080  14.343  0.00  0.00    -0.331 N 
ATOM      3  N   UNL     1      -7.846 -10.300  13.475  0.00  0.00    -0.232 NA
ATOM     16  C   UNL     1      -8.941  -9.622  13.214  0.00  0.00    +0.111 A 
ATOM     17  C   UNL     1      -8.693  -9.431  15.404  0.00  0.00    +0.069 A 
ATOM     18  C   UNL     1      -7.675 -10.193  14.836  0.00  0.00    +0.089 A 
ATOM     19  C   UNL     1     -10.690  -8.279  14.412  0.00  0.00    +0.150 C 
ATOM     20  C   UNL     1      -8.775  -9.157  16.769  0.00  0.00    +0.028 A 
ATOM     21  C   UNL     1      -6.671 -10.718  15.665  0.00  0.00    +0.030 A 
ATOM     22  C   UNL     1      -7.767  -9.689  17.580  0.00  0.00    +0.002 A 
ATOM     23  C   UNL     1      -6.732 -10.456  17.040  0.00  0.00    +0.002 A 
ENDBRANCH  11  16
ENDBRANCH   7  11
BRANCH   6  12
ATOM     12  C   UNL     1      -7.427  -6.824   8.385  0.00  0.00    +0.085 C 
BRANCH  12   1
ATOM      1  N   UNL     1      -8.814  -6.483   8.645  0.00  0.00    -0.329 NA
ATOM     24  H   UNL     1      -9.117  -6.876   9.534  0.00  0.00    +0.118 HD
ATOM     25  H   UNL     1      -9.407  -6.908   7.933  0.00  0.00    +0.118 HD
ENDBRANCH  12   1
ENDBRANCH   6  12
TORSDOF 5
ENDMDL
MODEL 3
REMARK VINA RESULT:      -3.0     14.442     17.534
REMARK  Name = 71693076
REMARK  9 active torsions:
REMARK  status: ('A' for Active; 'I' for Inactive)
REMARK    1  A    between atoms: N_1  and  C_12
REMARK    2  A    between atoms: N_2  and  C_19
REMARK    3  A    between atoms: C_4  and  C_8
REMARK    4  A    between atoms: C_6  and  C_12
REMARK    5  A    between atoms: C_7  and  C_11
REMARK    6  A    between atoms: C_8  and  C_13
REMARK    7  A    between atoms: C_8  and  C_14
REMARK    8  A    between atoms: C_9  and  C_15
REMARK    9  A    between atoms: C_11  and  C_16
REMARK                            x       y       z     vdW  Elec       q    Type
REMARK                         _______ _______ _______ _____ _____    ______ ____
ROOT
ATOM      4  C   UNL     1      -2.859   4.579  25.803  0.00  0.00    +0.000 C 
ATOM      5  C   UNL     1      -1.712   3.595  26.070  0.00  0.00    +0.012 C 
ATOM      6  C   UNL     1      -3.979   3.896  24.984  0.00  0.00    +0.029 C 
ATOM      7  C   UNL     1      -1.112   2.991  24.783  0.00  0.00    +0.022 C 
ATOM      9  C   UNL     1      -2.163   2.660  23.733  0.00  0.00    -0.073 C 
ATOM     10  C   UNL     1      -3.440   3.065  23.848  0.00  0.00    -0.023 C 
ATOM     15  C   UNL     1      -1.712   1.907  22.513  0.00  0.00    +0.039 C 
ENDROOT
BRANCH   4   8
ATOM      8  C   UNL     1      -2.350   5.848  25.105  0.00  0.00    -0.013 C 
ATOM     13  C   UNL     1      -3.107   6.080  23.803  0.00  0.00    +0.007 C 
ATOM     14  C   UNL     1      -0.850   5.748  24.850  0.00  0.00    +0.007 C 
ENDBRANCH   4   8
BRANCH   7  11
ATOM     11  C   UNL     1      -0.250   1.780  25.165  0.00  0.00    +0.082 C 
BRANCH  11  16
ATOM      2  N   UNL     1      -0.585  -0.550  24.287  0.00  0.00    -0.331 N 
ATOM      3  N   UNL     1      -2.167   0.233  25.638  0.00  0.00    -0.232 NA
ATOM     16  C   UNL     1      -1.023   0.498  25.048  0.00  0.00    +0.111 A 
ATOM     17  C   UNL     1      -1.509  -1.559  24.393  0.00  0.00    +0.069 A 
ATOM     18  C   UNL     1      -2.486  -1.045  25.241  0.00  0.00    +0.089 A 
ATOM     19  C   UNL     1       0.632  -0.592  23.509  0.00  0.00    +0.150 C 
ATOM     20  C   UNL     1      -1.571  -2.836  23.835  0.00  0.00    +0.028 A 
ATOM     21  C   UNL     1      -3.599  -1.840  25.563  0.00  0.00    +0.030 A 
ATOM     22  C   UNL     1      -2.685  -3.614  24.167  0.00  0.00    +0.002 A 
ATOM     23  C   UNL     1      -3.682  -3.127  25.015  0.00  0.00    +0.002 A 
ENDBRANCH  11  16
ENDBRANCH   7  11
BRANCH   6  12
ATOM     12  C   UNL     1      -4.874   3.022  25.868  0.00  0.00    +0.085 C 
BRANCH  12   1
ATOM      1  N   UNL     1      -5.061   1.711  25.272  0.00  0.00    -0.329 NA
ATOM     24  H   UNL     1      -4.424   1.036  25.690  0.00  0.00    +0.118 HD
ATOM     25  H   UNL     1      -4.819   1.751  24.282  0.00  0.00    +0.118 HD
ENDBRANCH  12   1
ENDBRANCH   6  12
TORSDOF 5
ENDMDL
MODEL 4
REMARK VINA RESULT:      -1.9     15.311     17.546
REMARK  Name = 71693076
REMARK  9 active torsions:
REMARK  status: ('A' for Active; 'I' for Inactive)
REMARK    1  A    between atoms: N_1  and  C_12
REMARK    2  A    between atoms: N_2  and  C_19
REMARK    3  A    between atoms: C_4  and  C_8
REMARK    4  A    between atoms: C_6  and  C_12
REMARK    5  A    between atoms: C_7  and  C_11
REMARK    6  A    between atoms: C_8  and  C_13
REMARK    7  A    between atoms: C_8  and  C_14
REMARK    8  A    between atoms: C_9  and  C_15
REMARK    9  A    between atoms: C_11  and  C_16
REMARK                            x       y       z     vdW  Elec       q    Type
REMARK                         _______ _______ _______ _____ _____    ______ ____
ROOT
ATOM      4  C   UNL     1       0.865  -0.282  23.234  0.00  0.00    +0.000 C 
ATOM      5  C   UNL     1       0.261   1.086  22.889  0.00  0.00    +0.012 C 
ATOM      6  C   UNL     1       0.132  -0.910  24.441  0.00  0.00    +0.029 C 
ATOM      7  C   UNL     1       0.277   2.077  24.072  0.00  0.00    +0.022 C 
ATOM      9  C   UNL     1      -0.051   1.420  25.404  0.00  0.00    -0.073 C 
ATOM     10  C   UNL     1      -0.121   0.084  25.546  0.00  0.00    -0.023 C 
ATOM     15  C   UNL     1      -0.236   2.320  26.595  0.00  0.00    +0.039 C 
ENDROOT
BRANCH   4   8
ATOM      8  C   UNL     1       2.375  -0.172  23.491  0.00  0.00    -0.013 C 
ATOM     13  C   UNL     1       3.051   0.602  22.366  0.00  0.00    +0.007 C 
ATOM     14  C   UNL     1       2.991  -1.559  23.639  0.00  0.00    +0.007 C 
ENDBRANCH   4   8
BRANCH   7  11
ATOM     11  C   UNL     1      -0.656   3.250  23.741  0.00  0.00    +0.082 C 
BRANCH  11  16
ATOM      2  N   UNL     1      -2.795   3.842  24.918  0.00  0.00    -0.331 N 
ATOM      3  N   UNL     1      -2.754   1.881  23.873  0.00  0.00    -0.232 NA
ATOM     16  C   UNL     1      -2.068   2.963  24.163  0.00  0.00    +0.111 A 
ATOM     17  C   UNL     1      -4.032   3.288  25.129  0.00  0.00    +0.069 A 
ATOM     18  C   UNL     1      -3.981   2.064  24.466  0.00  0.00    +0.089 A 
ATOM     19  C   UNL     1      -2.344   5.125  25.408  0.00  0.00    +0.150 C 
ATOM     20  C   UNL     1      -5.156   3.739  25.821  0.00  0.00    +0.028 A 
ATOM     21  C   UNL     1      -5.110   1.229  24.486  0.00  0.00    +0.030 A 
ATOM     22  C   UNL     1      -6.271   2.895  25.830  0.00  0.00    +0.002 A 
ATOM     23  C   UNL     1      -6.251   1.662  25.175  0.00  0.00    +0.002 A 
ENDBRANCH  11  16
ENDBRANCH   7  11
BRANCH   6  12
ATOM     12  C   UNL     1      -1.197  -1.551  24.026  0.00  0.00    +0.085 C 
BRANCH  12   1
ATOM      1  N   UNL     1      -2.269  -1.128  24.909  0.00  0.00    -0.329 NA
ATOM     24  H   UNL     1      -1.939  -0.407  25.549  0.00  0.00    +0.118 HD
ATOM     25  H   UNL     1      -2.556  -1.912  25.494  0.00  0.00    +0.118 HD
ENDBRANCH  12   1
ENDBRANCH   6  12
TORSDOF 5
ENDMDL
MODEL 5
REMARK VINA RESULT:      -1.6     14.486     17.396
REMARK  Name = 71693076
REMARK  9 active torsions:
REMARK  status: ('A' for Active; 'I' for Inactive)
REMARK    1  A    between atoms: N_1  and  C_12
REMARK    2  A    between atoms: N_2  and  C_19
REMARK    3  A    between atoms: C_4  and  C_8
REMARK    4  A    between atoms: C_6  and  C_12
REMARK    5  A    between atoms: C_7  and  C_11
REMARK    6  A    between atoms: C_8  and  C_13
REMARK    7  A    between atoms: C_8  and  C_14
REMARK    8  A    between atoms: C_9  and  C_15
REMARK    9  A    between atoms: C_11  and  C_16
REMARK                            x       y       z     vdW  Elec       q    Type
REMARK                         _______ _______ _______ _____ _____    ______ ____
ROOT
ATOM      4  C   UNL     1      -3.612   0.477  23.925  0.00  0.00    +0.000 C 
ATOM      5  C   UNL     1      -2.372   0.901  23.125  0.00  0.00    +0.012 C 
ATOM      6  C   UNL     1      -3.953   1.535  24.999  0.00  0.00    +0.029 C 
ATOM      7  C   UNL     1      -1.133   1.154  24.009  0.00  0.00    +0.022 C 
ATOM      9  C   UNL     1      -1.466   1.856  25.317  0.00  0.00    -0.073 C 
ATOM     10  C   UNL     1      -2.733   2.026  25.736  0.00  0.00    -0.023 C 
ATOM     15  C   UNL     1      -0.317   2.310  26.174  0.00  0.00    +0.039 C 
ENDROOT
BRANCH   4   8
ATOM      8  C   UNL     1      -3.420  -0.913  24.548  0.00  0.00    -0.013 C 
ATOM     13  C   UNL     1      -4.250  -1.951  23.800  0.00  0.00    +0.007 C 
ATOM     14  C   UNL     1      -3.791  -0.888  26.027  0.00  0.00    +0.007 C 
ENDBRANCH   4   8
BRANCH   7  11
ATOM     11  C   UNL     1      -0.085   1.908  23.179  0.00  0.00    +0.082 C 
BRANCH  11  16
ATOM      2  N   UNL     1       1.398  -0.095  23.498  0.00  0.00    -0.331 N 
ATOM      3  N   UNL     1       2.422   1.841  23.118  0.00  0.00    -0.232 NA
ATOM     16  C   UNL     1       1.260   1.244  23.260  0.00  0.00    +0.111 A 
ATOM     17  C   UNL     1       2.740  -0.381  23.511  0.00  0.00    +0.069 A 
ATOM     18  C   UNL     1       3.357   0.843  23.271  0.00  0.00    +0.089 A 
ATOM     19  C   UNL     1       0.326  -1.043  23.701  0.00  0.00    +0.150 C 
ATOM     20  C   UNL     1       3.443  -1.570  23.705  0.00  0.00    +0.028 A 
ATOM     21  C   UNL     1       4.760   0.903  23.221  0.00  0.00    +0.030 A 
ATOM     22  C   UNL     1       4.838  -1.492  23.650  0.00  0.00    +0.002 A 
ATOM     23  C   UNL     1       5.487  -0.278  23.412  0.00  0.00    +0.002 A 
ENDBRANCH  11  16
ENDBRANCH   7  11
BRANCH   6  12
ATOM     12  C   UNL     1      -4.695   2.733  24.398  0.00  0.00    +0.085 C 
BRANCH  12   1
ATOM      1  N   UNL     1      -4.908   3.761  25.402  0.00  0.00    -0.329 NA
ATOM     24  H   UNL     1      -4.026   4.011  25.847  0.00  0.00    +0.118 HD
ATOM     25  H   UNL     1      -5.503   3.392  26.144  0.00  0.00    +0.118 HD
ENDBRANCH  12   1
ENDBRANCH   6  12
TORSDOF 5
ENDMDL
MODEL 6
REMARK VINA RESULT:      -1.4     14.830     17.255
REMARK  Name = 71693076
REMARK  9 active torsions:
REMARK  status: ('A' for Active; 'I' for Inactive)
REMARK    1  A    between atoms: N_1  and  C_12
REMARK    2  A    between atoms: N_2  and  C_19
REMARK    3  A    between atoms: C_4  and  C_8
REMARK    4  A    between atoms: C_6  and  C_12
REMARK    5  A    between atoms: C_7  and  C_11
REMARK    6  A    between atoms: C_8  and  C_13
REMARK    7  A    between atoms: C_8  and  C_14
REMARK    8  A    between atoms: C_9  and  C_15
REMARK    9  A    between atoms: C_11  and  C_16
REMARK                            x       y       z     vdW  Elec       q    Type
REMARK                         _______ _______ _______ _____ _____    ______ ____
ROOT
ATOM      4  C   UNL     1      -4.150   3.127  24.537  0.00  0.00    +0.000 C 
ATOM      5  C   UNL     1      -2.880   2.343  24.893  0.00  0.00    +0.012 C 
ATOM      6  C   UNL     1      -5.407   2.382  25.043  0.00  0.00    +0.029 C 
ATOM      7  C   UNL     1      -2.877   0.900  24.346  0.00  0.00    +0.022 C 
ATOM      9  C   UNL     1      -4.235   0.223  24.444  0.00  0.00    -0.073 C 
ATOM     10  C   UNL     1      -5.352   0.900  24.768  0.00  0.00    -0.023 C 
ATOM     15  C   UNL     1      -4.308  -1.240  24.104  0.00  0.00    +0.039 C 
ENDROOT
BRANCH   4   8
ATOM      8  C   UNL     1      -4.230   3.396  23.027  0.00  0.00    -0.013 C 
ATOM     13  C   UNL     1      -3.076   2.711  22.303  0.00  0.00    +0.007 C 
ATOM     14  C   UNL     1      -4.225   4.897  22.755  0.00  0.00    +0.007 C 
ENDBRANCH   4   8
BRANCH   7  11
ATOM     11  C   UNL     1      -1.765   0.111  25.050  0.00  0.00    +0.082 C 
BRANCH  11  16
ATOM      2  N   UNL     1       0.458   1.162  24.536  0.00  0.00    -0.331 N 
ATOM      3  N   UNL     1      -0.087  -0.630  23.339  0.00  0.00    -0.232 NA
ATOM     16  C   UNL     1      -0.471   0.190  24.291  0.00  0.00    +0.111 A 
ATOM     17  C   UNL     1       1.514   0.955  23.684  0.00  0.00    +0.069 A 
ATOM     18  C   UNL     1       1.149  -0.169  22.948  0.00  0.00    +0.089 A 
ATOM     19  C   UNL     1       0.353   2.219  25.516  0.00  0.00    +0.150 C 
ATOM     20  C   UNL     1       2.718   1.635  23.501  0.00  0.00    +0.028 A 
ATOM     21  C   UNL     1       2.027  -0.656  21.966  0.00  0.00    +0.030 A 
ATOM     22  C   UNL     1       3.580   1.135  22.520  0.00  0.00    +0.002 A 
ATOM     23  C   UNL     1       3.243   0.010  21.765  0.00  0.00    +0.002 A 
ENDBRANCH  11  16
ENDBRANCH   7  11
BRANCH   6  12
ATOM     12  C   UNL     1      -5.634   2.608  26.542  0.00  0.00    +0.085 C 
BRANCH  12   1
ATOM      1  N   UNL     1      -6.680   1.733  27.040  0.00  0.00    -0.329 NA
ATOM     24  H   UNL     1      -7.450   1.684  26.374  0.00  0.00    +0.118 HD
ATOM     25  H   UNL     1      -7.072   2.125  27.895  0.00  0.00    +0.118 HD
ENDBRANCH  12   1
ENDBRANCH   6  12
TORSDOF 5
ENDMDL
MODEL 7
REMARK VINA RESULT:      -1.3     14.084     17.157
REMARK  Name = 71693076
REMARK  9 active torsions:
REMARK  status: ('A' for Active; 'I' for Inactive)
REMARK    1  A    between atoms: N_1  and  C_12
REMARK    2  A    between atoms: N_2  and  C_19
REMARK    3  A    between atoms: C_4  and  C_8
REMARK    4  A    between atoms: C_6  and  C_12
REMARK    5  A    between atoms: C_7  and  C_11
REMARK    6  A    between atoms: C_8  and  C_13
REMARK    7  A    between atoms: C_8  and  C_14
REMARK    8  A    between atoms: C_9  and  C_15
REMARK    9  A    between atoms: C_11  and  C_16
REMARK                            x       y       z     vdW  Elec       q    Type
REMARK                         _______ _______ _______ _____ _____    ______ ____
ROOT
ATOM      4  C   UNL     1      -2.779  -2.352  25.273  0.00  0.00    +0.000 C 
ATOM      5  C   UNL     1      -3.638  -1.198  25.808  0.00  0.00    +0.012 C 
ATOM      6  C   UNL     1      -1.558  -1.805  24.498  0.00  0.00    +0.029 C 
ATOM      7  C   UNL     1      -4.121  -0.233  24.705  0.00  0.00    +0.022 C 
ATOM      9  C   UNL     1      -3.062   0.040  23.647  0.00  0.00    -0.073 C 
ATOM     10  C   UNL     1      -1.920  -0.667  23.578  0.00  0.00    -0.023 C 
ATOM     15  C   UNL     1      -3.361   1.100  22.623  0.00  0.00    +0.039 C 
ENDROOT
BRANCH   4   8
ATOM      8  C   UNL     1      -3.612  -3.307  24.406  0.00  0.00    -0.013 C 
ATOM     13  C   UNL     1      -2.737  -3.956  23.339  0.00  0.00    +0.007 C 
ATOM     14  C   UNL     1      -4.781  -2.564  23.770  0.00  0.00    +0.007 C 
ENDBRANCH   4   8
BRANCH   7  11
ATOM     11  C   UNL     1      -4.643   1.048  25.369  0.00  0.00    +0.082 C 
BRANCH  11  16
ATOM      2  N   UNL     1      -4.021   3.478  25.229  0.00  0.00    -0.331 N 
ATOM      3  N   UNL     1      -2.338   2.026  25.207  0.00  0.00    -0.232 NA
ATOM     16  C   UNL     1      -3.643   2.165  25.268  0.00  0.00    +0.111 A 
ATOM     17  C   UNL     1      -2.882   4.238  25.137  0.00  0.00    +0.069 A 
ATOM     18  C   UNL     1      -1.846   3.309  25.125  0.00  0.00    +0.089 A 
ATOM     19  C   UNL     1      -5.375   3.981  25.276  0.00  0.00    +0.150 C 
ATOM     20  C   UNL     1      -2.678   5.616  25.065  0.00  0.00    +0.028 A 
ATOM     21  C   UNL     1      -0.520   3.764  25.036  0.00  0.00    +0.030 A 
ATOM     22  C   UNL     1      -1.352   6.052  24.978  0.00  0.00    +0.002 A 
ATOM     23  C   UNL     1      -0.290   5.144  24.964  0.00  0.00    +0.002 A 
ENDBRANCH  11  16
ENDBRANCH   7  11
BRANCH   6  12
ATOM     12  C   UNL     1      -0.442  -1.354  25.445  0.00  0.00    +0.085 C 
BRANCH  12   1
ATOM      1  N   UNL     1      -0.013  -0.003  25.125  0.00  0.00    -0.329 NA
ATOM     24  H   UNL     1       0.999   0.032  25.019  0.00  0.00    +0.118 HD
ATOM     25  H   UNL     1      -0.237   0.617  25.902  0.00  0.00    +0.118 HD
ENDBRANCH  12   1
ENDBRANCH   6  12
TORSDOF 5
ENDMDL
MODEL 8
REMARK VINA RESULT:      -0.8     15.571     17.978
REMARK  Name = 71693076
REMARK  9 active torsions:
REMARK  status: ('A' for Active; 'I' for Inactive)
REMARK    1  A    between atoms: N_1  and  C_12
REMARK    2  A    between atoms: N_2  and  C_19
REMARK    3  A    between atoms: C_4  and  C_8
REMARK    4  A    between atoms: C_6  and  C_12
REMARK    5  A    between atoms: C_7  and  C_11
REMARK    6  A    between atoms: C_8  and  C_13
REMARK    7  A    between atoms: C_8  and  C_14
REMARK    8  A    between atoms: C_9  and  C_15
REMARK    9  A    between atoms: C_11  and  C_16
REMARK                            x       y       z     vdW  Elec       q    Type
REMARK                         _______ _______ _______ _____ _____    ______ ____
ROOT
ATOM      4  C   UNL     1      -4.320   2.186  24.964  0.00  0.00    +0.000 C 
ATOM      5  C   UNL     1      -3.050   1.838  25.754  0.00  0.00    +0.012 C 
ATOM      6  C   UNL     1      -3.960   2.951  23.670  0.00  0.00    +0.029 C 
ATOM      7  C   UNL     1      -2.193   3.072  26.108  0.00  0.00    +0.022 C 
ATOM      9  C   UNL     1      -2.128   4.095  24.983  0.00  0.00    -0.073 C 
ATOM     10  C   UNL     1      -2.918   4.017  23.897  0.00  0.00    -0.023 C 
ATOM     15  C   UNL     1      -1.180   5.250  25.150  0.00  0.00    +0.039 C 
ENDROOT
BRANCH   4   8
ATOM      8  C   UNL     1      -5.310   2.981  25.828  0.00  0.00    -0.013 C 
ATOM     13  C   UNL     1      -6.488   2.102  26.232  0.00  0.00    +0.007 C 
ATOM     14  C   UNL     1      -5.791   4.220  25.082  0.00  0.00    +0.007 C 
ENDBRANCH   4   8
BRANCH   7  11
ATOM     11  C   UNL     1      -0.807   2.593  26.558  0.00  0.00    +0.082 C 
BRANCH  11  16
ATOM      2  N   UNL     1      -0.438   0.655  25.002  0.00  0.00    -0.331 N 
ATOM      3  N   UNL     1       0.951   2.375  24.781  0.00  0.00    -0.232 NA
ATOM     16  C   UNL     1      -0.078   1.897  25.444  0.00  0.00    +0.111 A 
ATOM     17  C   UNL     1       0.417   0.307  23.987  0.00  0.00    +0.069 A 
ATOM     18  C   UNL     1       1.274   1.398  23.868  0.00  0.00    +0.089 A 
ATOM     19  C   UNL     1      -1.524  -0.153  25.511  0.00  0.00    +0.150 C 
ATOM     20  C   UNL     1       0.510  -0.832  23.188  0.00  0.00    +0.028 A 
ATOM     21  C   UNL     1       2.291   1.366  22.900  0.00  0.00    +0.030 A 
ATOM     22  C   UNL     1       1.528  -0.846  22.228  0.00  0.00    +0.002 A 
ATOM     23  C   UNL     1       2.404   0.232  22.085  0.00  0.00    +0.002 A 
ENDBRANCH  11  16
ENDBRANCH   7  11
BRANCH   6  12
ATOM     12  C   UNL     1      -3.479   2.003  22.566  0.00  0.00    +0.085 C 
BRANCH  12   1
ATOM      1  N   UNL     1      -2.086   2.257  22.244  0.00  0.00    -0.329 NA
ATOM     24  H   UNL     1      -2.010   3.013  21.565  0.00  0.00    +0.118 HD
ATOM     25  H   UNL     1      -1.687   1.434  21.793  0.00  0.00    +0.118 HD
ENDBRANCH  12   1
ENDBRANCH   6  12
TORSDOF 5
ENDMDL
MODEL 9
REMARK VINA RESULT:      -0.6     15.293     17.498
REMARK  Name = 71693076
REMARK  9 active torsions:
REMARK  status: ('A' for Active; 'I' for Inactive)
REMARK    1  A    between atoms: N_1  and  C_12
REMARK    2  A    between atoms: N_2  and  C_19
REMARK    3  A    between atoms: C_4  and  C_8
REMARK    4  A    between atoms: C_6  and  C_12
REMARK    5  A    between atoms: C_7  and  C_11
REMARK    6  A    between atoms: C_8  and  C_13
REMARK    7  A    between atoms: C_8  and  C_14
REMARK    8  A    between atoms: C_9  and  C_15
REMARK    9  A    between atoms: C_11  and  C_16
REMARK                            x       y       z     vdW  Elec       q    Type
REMARK                         _______ _______ _______ _____ _____    ______ ____
ROOT
ATOM      4  C   UNL     1       0.818  -0.072  23.223  0.00  0.00    +0.000 C 
ATOM      5  C   UNL     1       0.250   1.329  22.952  0.00  0.00    +0.012 C 
ATOM      6  C   UNL     1       0.049  -0.754  24.377  0.00  0.00    +0.029 C 
ATOM      7  C   UNL     1       0.266   2.246  24.194  0.00  0.00    +0.022 C 
ATOM      9  C   UNL     1      -0.099   1.516  25.478  0.00  0.00    -0.073 C 
ATOM     10  C   UNL     1      -0.202   0.176  25.536  0.00  0.00    -0.023 C 
ATOM     15  C   UNL     1      -0.287   2.346  26.718  0.00  0.00    +0.039 C 
ENDROOT
BRANCH   4   8
ATOM      8  C   UNL     1       2.325  -0.012  23.511  0.00  0.00    -0.013 C 
ATOM     13  C   UNL     1       3.037   0.816  22.448  0.00  0.00    +0.007 C 
ATOM     14  C   UNL     1       2.908  -1.419  23.582  0.00  0.00    +0.007 C 
ENDBRANCH   4   8
BRANCH   7  11
ATOM     11  C   UNL     1      -0.634   3.457  23.920  0.00  0.00    +0.082 C 
BRANCH  11  16
ATOM      2  N   UNL     1      -2.894   2.388  23.672  0.00  0.00    -0.331 N 
ATOM      3  N   UNL     1      -2.617   3.711  25.436  0.00  0.00    -0.232 NA
ATOM     16  C   UNL     1      -2.046   3.204  24.367  0.00  0.00    +0.111 A 
ATOM     17  C   UNL     1      -4.094   2.368  24.337  0.00  0.00    +0.069 A 
ATOM     18  C   UNL     1      -3.895   3.202  25.434  0.00  0.00    +0.089 A 
ATOM     19  C   UNL     1      -2.587   1.673  22.454  0.00  0.00    +0.150 C 
ATOM     20  C   UNL     1      -5.298   1.713  24.080  0.00  0.00    +0.028 A 
ATOM     21  C   UNL     1      -4.950   3.405  26.339  0.00  0.00    +0.030 A 
ATOM     22  C   UNL     1      -6.338   1.926  24.991  0.00  0.00    +0.002 A 
ATOM     23  C   UNL     1      -6.169   2.757  26.101  0.00  0.00    +0.002 A 
ENDBRANCH  11  16
ENDBRANCH   7  11
BRANCH   6  12
ATOM     12  C   UNL     1      -1.285  -1.338  23.901  0.00  0.00    +0.085 C 
BRANCH  12   1
ATOM      1  N   UNL     1      -2.314  -1.156  24.910  0.00  0.00    -0.329 NA
ATOM     24  H   UNL     1      -3.238  -1.178  24.484  0.00  0.00    +0.118 HD
ATOM     25  H   UNL     1      -2.219  -0.230  25.328  0.00  0.00    +0.118 HD
ENDBRANCH  12   1
ENDBRANCH   6  12
TORSDOF 5
ENDMDL
