MODEL 1
REMARK VINA RESULT:      -5.0      0.000      0.000
REMARK  Name = 40779622
REMARK  9 active torsions:
REMARK  status: ('A' for Active; 'I' for Inactive)
REMARK    1  A    between atoms: S_1  and  N_6
REMARK    2  A    between atoms: S_1  and  C_19
REMARK    3  A    between atoms: N_5  and  C_14
REMARK    4  A    between atoms: N_5  and  C_16
REMARK    5  A    between atoms: N_5  and  C_17
REMARK    6  A    between atoms: N_6  and  C_15
REMARK    7  A    between atoms: C_8  and  C_14
REMARK    8  A    between atoms: C_9  and  C_15
REMARK    9  A    between atoms: C_16  and  C_18
REMARK                            x       y       z     vdW  Elec       q    Type
REMARK                         _______ _______ _______ _____ _____    ______ ____
ROOT
ATOM      4  N   UNL     1      -2.166  -1.658  23.798  0.00  0.00    -0.298 NA
ATOM      7  C   UNL     1      -3.536  -1.544  26.006  0.00  0.00    -0.003 C 
ATOM      8  C   UNL     1      -4.146  -0.618  24.929  0.00  0.00    +0.020 C 
ATOM      9  C   UNL     1      -1.262  -1.371  24.945  0.00  0.00    +0.072 C 
ATOM     10  C   UNL     1      -2.067  -1.149  26.244  0.00  0.00    +0.024 C 
ATOM     11  C   UNL     1      -3.215  -0.616  23.696  0.00  0.00    +0.089 C 
ATOM     12  C   UNL     1      -3.537  -2.970  25.423  0.00  0.00    +0.019 C 
ATOM     13  C   UNL     1      -2.831  -2.959  24.056  0.00  0.00    +0.085 C 
ENDROOT
BRANCH   8  14
ATOM     14  C   UNL     1      -4.416   0.797  25.434  0.00  0.00    +0.089 C 
BRANCH  14   5
ATOM      5  N   UNL     1      -5.178   1.541  24.416  0.00  0.00    -0.301 NA
ATOM     17  C   UNL     1      -6.527   1.811  24.899  0.00  0.00    +0.105 C 
BRANCH   5  16
ATOM     16  C   UNL     1      -4.487   2.781  24.080  0.00  0.00    +0.110 C 
BRANCH  16  18
ATOM     18  C   UNL     1      -3.748   2.668  22.783  0.00  0.00    -0.019 C 
ATOM     22  C   UNL     1      -2.475   2.267  22.681  0.00  0.00    +0.005 C 
ENDBRANCH  16  18
ENDBRANCH   5  16
ENDBRANCH  14   5
ENDBRANCH   8  14
BRANCH   9  15
ATOM     15  C   UNL     1      -0.311  -0.206  24.660  0.00  0.00    +0.124 C 
BRANCH  15   6
ATOM      6  N   UNL     1      -0.536   0.856  25.654  0.00  0.00    -0.188 NA
ATOM     26  H   UNL     1      -0.884   0.547  26.570  0.00  0.00    +0.148 HD
BRANCH   6   1
ATOM      1  S   UNL     1       0.366   2.299  25.583  0.00  0.00    +0.058 S 
ATOM      2  O   UNL     1       1.044   2.378  24.303  0.00  0.00    -0.153 OA
ATOM      3  O   UNL     1       1.116   2.451  26.815  0.00  0.00    -0.153 OA
BRANCH   1  19
ATOM     19  C   UNL     1      -0.910   3.523  25.601  0.00  0.00    +0.105 A 
ATOM     20  C   UNL     1      -2.075   3.305  26.335  0.00  0.00    +0.028 A 
ATOM     21  C   UNL     1      -0.752   4.705  24.878  0.00  0.00    +0.028 A 
ATOM     23  C   UNL     1      -3.083   4.269  26.347  0.00  0.00    +0.002 A 
ATOM     24  C   UNL     1      -1.760   5.669  24.889  0.00  0.00    +0.002 A 
ATOM     25  C   UNL     1      -2.926   5.451  25.624  0.00  0.00    +0.000 A 
ENDBRANCH   1  19
ENDBRANCH   6   1
ENDBRANCH  15   6
ENDBRANCH   9  15
TORSDOF 8
ENDMDL
MODEL 2
REMARK VINA RESULT:      -4.6      3.348      6.311
REMARK  Name = 40779622
REMARK  9 active torsions:
REMARK  status: ('A' for Active; 'I' for Inactive)
REMARK    1  A    between atoms: S_1  and  N_6
REMARK    2  A    between atoms: S_1  and  C_19
REMARK    3  A    between atoms: N_5  and  C_14
REMARK    4  A    between atoms: N_5  and  C_16
REMARK    5  A    between atoms: N_5  and  C_17
REMARK    6  A    between atoms: N_6  and  C_15
REMARK    7  A    between atoms: C_8  and  C_14
REMARK    8  A    between atoms: C_9  and  C_15
REMARK    9  A    between atoms: C_16  and  C_18
REMARK                            x       y       z     vdW  Elec       q    Type
REMARK                         _______ _______ _______ _____ _____    ______ ____
ROOT
ATOM      4  N   UNL     1      -1.090   3.371  24.050  0.00  0.00    -0.298 NA
ATOM      7  C   UNL     1      -0.142   1.486  25.572  0.00  0.00    -0.003 C 
ATOM      8  C   UNL     1       0.547   1.476  24.189  0.00  0.00    +0.020 C 
ATOM      9  C   UNL     1      -2.204   2.551  24.599  0.00  0.00    +0.072 C 
ATOM     10  C   UNL     1      -1.663   1.336  25.385  0.00  0.00    +0.024 C 
ATOM     11  C   UNL     1      -0.151   2.516  23.283  0.00  0.00    +0.089 C 
ATOM     12  C   UNL     1       0.106   2.876  26.187  0.00  0.00    +0.019 C 
ATOM     13  C   UNL     1      -0.349   3.959  25.193  0.00  0.00    +0.085 C 
ENDROOT
BRANCH   8  14
ATOM     14  C   UNL     1       0.578   0.095  23.540  0.00  0.00    +0.089 C 
BRANCH  14   5
ATOM      5  N   UNL     1       1.887  -0.113  22.897  0.00  0.00    -0.301 NA
ATOM     17  C   UNL     1       1.708  -0.380  21.474  0.00  0.00    +0.105 C 
BRANCH   5  16
ATOM     16  C   UNL     1       2.737   1.054  23.105  0.00  0.00    +0.110 C 
BRANCH  16  18
ATOM     18  C   UNL     1       4.144   0.797  22.663  0.00  0.00    -0.019 C 
ATOM     22  C   UNL     1       5.055   0.152  23.403  0.00  0.00    +0.005 C 
ENDBRANCH  16  18
ENDBRANCH   5  16
ENDBRANCH  14   5
ENDBRANCH   8  14
BRANCH   9  15
ATOM     15  C   UNL     1      -3.206   2.131  23.522  0.00  0.00    +0.124 C 
BRANCH  15   6
ATOM      6  N   UNL     1      -4.550   2.593  23.905  0.00  0.00    -0.188 NA
ATOM     26  H   UNL     1      -5.054   3.141  23.197  0.00  0.00    +0.148 HD
BRANCH   6   1
ATOM      1  S   UNL     1      -5.465   1.715  25.042  0.00  0.00    +0.058 S 
ATOM      2  O   UNL     1      -6.818   1.552  24.544  0.00  0.00    -0.153 OA
ATOM      3  O   UNL     1      -5.237   2.268  26.363  0.00  0.00    -0.153 OA
BRANCH   1  19
ATOM     19  C   UNL     1      -4.673   0.136  24.999  0.00  0.00    +0.105 A 
ATOM     20  C   UNL     1      -4.002  -0.339  26.125  0.00  0.00    +0.028 A 
ATOM     21  C   UNL     1      -4.717  -0.635  23.837  0.00  0.00    +0.028 A 
ATOM     23  C   UNL     1      -3.374  -1.584  26.090  0.00  0.00    +0.002 A 
ATOM     24  C   UNL     1      -4.089  -1.880  23.802  0.00  0.00    +0.002 A 
ATOM     25  C   UNL     1      -3.417  -2.355  24.929  0.00  0.00    +0.000 A 
ENDBRANCH   1  19
ENDBRANCH   6   1
ENDBRANCH  15   6
ENDBRANCH   9  15
TORSDOF 8
ENDMDL
MODEL 3
REMARK VINA RESULT:      -4.5      2.961      4.730
REMARK  Name = 40779622
REMARK  9 active torsions:
REMARK  status: ('A' for Active; 'I' for Inactive)
REMARK    1  A    between atoms: S_1  and  N_6
REMARK    2  A    between atoms: S_1  and  C_19
REMARK    3  A    between atoms: N_5  and  C_14
REMARK    4  A    between atoms: N_5  and  C_16
REMARK    5  A    between atoms: N_5  and  C_17
REMARK    6  A    between atoms: N_6  and  C_15
REMARK    7  A    between atoms: C_8  and  C_14
REMARK    8  A    between atoms: C_9  and  C_15
REMARK    9  A    between atoms: C_16  and  C_18
REMARK                            x       y       z     vdW  Elec       q    Type
REMARK                         _______ _______ _______ _____ _____    ______ ____
ROOT
ATOM      4  N   UNL     1      -2.150  -1.512  23.820  0.00  0.00    -0.298 NA
ATOM      7  C   UNL     1      -3.609  -1.115  25.937  0.00  0.00    -0.003 C 
ATOM      8  C   UNL     1      -4.101  -0.246  24.757  0.00  0.00    +0.020 C 
ATOM      9  C   UNL     1      -1.282  -1.189  24.985  0.00  0.00    +0.072 C 
ATOM     10  C   UNL     1      -2.128  -0.803  26.218  0.00  0.00    +0.024 C 
ATOM     11  C   UNL     1      -3.116  -0.413  23.578  0.00  0.00    +0.089 C 
ATOM     12  C   UNL     1      -3.686  -2.582  25.474  0.00  0.00    +0.019 C 
ATOM     13  C   UNL     1      -2.919  -2.737  24.149  0.00  0.00    +0.085 C 
ENDROOT
BRANCH   8  14
ATOM     14  C   UNL     1      -4.290   1.223  25.129  0.00  0.00    +0.089 C 
BRANCH  14   5
ATOM      5  N   UNL     1      -3.307   2.042  24.397  0.00  0.00    -0.301 NA
ATOM     17  C   UNL     1      -3.993   3.043  23.589  0.00  0.00    +0.105 C 
BRANCH   5  16
ATOM     16  C   UNL     1      -2.384   2.672  25.335  0.00  0.00    +0.110 C 
BRANCH  16  18
ATOM     18  C   UNL     1      -2.392   4.163  25.200  0.00  0.00    -0.019 C 
ATOM     22  C   UNL     1      -1.287   4.918  25.181  0.00  0.00    +0.005 C 
ENDBRANCH  16  18
ENDBRANCH   5  16
ENDBRANCH  14   5
ENDBRANCH   8  14
BRANCH   9  15
ATOM     15  C   UNL     1      -0.237  -0.121  24.655  0.00  0.00    +0.124 C 
BRANCH  15   6
ATOM      6  N   UNL     1       0.840  -0.728  23.855  0.00  0.00    -0.188 NA
ATOM     26  H   UNL     1       0.752  -1.736  23.677  0.00  0.00    +0.148 HD
BRANCH   6   1
ATOM      1  S   UNL     1       1.706   0.213  22.731  0.00  0.00    +0.058 S 
ATOM      2  O   UNL     1       1.441   1.617  22.977  0.00  0.00    -0.153 OA
ATOM      3  O   UNL     1       1.520  -0.343  21.404  0.00  0.00    -0.153 OA
BRANCH   1  19
ATOM     19  C   UNL     1       3.379  -0.116  23.199  0.00  0.00    +0.105 A 
ATOM     20  C   UNL     1       3.735  -1.377  23.677  0.00  0.00    +0.028 A 
ATOM     21  C   UNL     1       4.343   0.887  23.092  0.00  0.00    +0.028 A 
ATOM     23  C   UNL     1       5.054  -1.635  24.049  0.00  0.00    +0.002 A 
ATOM     24  C   UNL     1       5.662   0.629  23.465  0.00  0.00    +0.002 A 
ATOM     25  C   UNL     1       6.017  -0.632  23.943  0.00  0.00    +0.000 A 
ENDBRANCH   1  19
ENDBRANCH   6   1
ENDBRANCH  15   6
ENDBRANCH   9  15
TORSDOF 8
ENDMDL
MODEL 4
REMARK VINA RESULT:      -4.5      2.765      6.166
REMARK  Name = 40779622
REMARK  9 active torsions:
REMARK  status: ('A' for Active; 'I' for Inactive)
REMARK    1  A    between atoms: S_1  and  N_6
REMARK    2  A    between atoms: S_1  and  C_19
REMARK    3  A    between atoms: N_5  and  C_14
REMARK    4  A    between atoms: N_5  and  C_16
REMARK    5  A    between atoms: N_5  and  C_17
REMARK    6  A    between atoms: N_6  and  C_15
REMARK    7  A    between atoms: C_8  and  C_14
REMARK    8  A    between atoms: C_9  and  C_15
REMARK    9  A    between atoms: C_16  and  C_18
REMARK                            x       y       z     vdW  Elec       q    Type
REMARK                         _______ _______ _______ _____ _____    ______ ____
ROOT
ATOM      4  N   UNL     1      -2.097   4.624  24.554  0.00  0.00    -0.298 NA
ATOM      7  C   UNL     1      -0.333   2.955  25.487  0.00  0.00    -0.003 C 
ATOM      8  C   UNL     1      -0.772   2.553  24.061  0.00  0.00    +0.020 C 
ATOM      9  C   UNL     1      -2.522   4.127  25.891  0.00  0.00    +0.072 C 
ATOM     10  C   UNL     1      -1.570   3.024  26.401  0.00  0.00    +0.024 C 
ATOM     11  C   UNL     1      -1.919   3.489  23.616  0.00  0.00    +0.089 C 
ATOM     12  C   UNL     1       0.243   4.381  25.393  0.00  0.00    +0.019 C 
ATOM     13  C   UNL     1      -0.787   5.301  24.714  0.00  0.00    +0.085 C 
ENDROOT
BRANCH   8  14
ATOM     14  C   UNL     1      -1.168   1.083  23.945  0.00  0.00    +0.089 C 
BRANCH  14   5
ATOM      5  N   UNL     1       0.042   0.246  24.020  0.00  0.00    -0.301 NA
ATOM     17  C   UNL     1      -0.307  -1.099  24.462  0.00  0.00    +0.105 C 
BRANCH   5  16
ATOM     16  C   UNL     1       0.708   0.211  22.722  0.00  0.00    +0.110 C 
BRANCH  16  18
ATOM     18  C   UNL     1       2.163  -0.113  22.856  0.00  0.00    -0.019 C 
ATOM     22  C   UNL     1       3.142   0.796  22.771  0.00  0.00    +0.005 C 
ENDBRANCH  16  18
ENDBRANCH   5  16
ENDBRANCH  14   5
ENDBRANCH   8  14
BRANCH   9  15
ATOM     15  C   UNL     1      -3.982   3.670  25.906  0.00  0.00    +0.124 C 
BRANCH  15   6
ATOM      6  N   UNL     1      -4.029   2.200  25.847  0.00  0.00    -0.188 NA
ATOM     26  H   UNL     1      -3.932   1.712  26.746  0.00  0.00    +0.148 HD
BRANCH   6   1
ATOM      1  S   UNL     1      -4.887   1.420  24.599  0.00  0.00    +0.058 S 
ATOM      2  O   UNL     1      -4.445   1.938  23.318  0.00  0.00    -0.153 OA
ATOM      3  O   UNL     1      -6.299   1.406  24.932  0.00  0.00    -0.153 OA
BRANCH   1  19
ATOM     19  C   UNL     1      -4.306  -0.242  24.746  0.00  0.00    +0.105 A 
ATOM     20  C   UNL     1      -4.457  -1.131  23.683  0.00  0.00    +0.028 A 
ATOM     21  C   UNL     1      -3.697  -0.666  25.928  0.00  0.00    +0.028 A 
ATOM     23  C   UNL     1      -4.001  -2.444  23.800  0.00  0.00    +0.002 A 
ATOM     24  C   UNL     1      -3.242  -1.979  26.046  0.00  0.00    +0.002 A 
ATOM     25  C   UNL     1      -3.394  -2.868  24.982  0.00  0.00    +0.000 A 
ENDBRANCH   1  19
ENDBRANCH   6   1
ENDBRANCH  15   6
ENDBRANCH   9  15
TORSDOF 8
ENDMDL
MODEL 5
REMARK VINA RESULT:      -4.2      3.039      5.684
REMARK  Name = 40779622
REMARK  9 active torsions:
REMARK  status: ('A' for Active; 'I' for Inactive)
REMARK    1  A    between atoms: S_1  and  N_6
REMARK    2  A    between atoms: S_1  and  C_19
REMARK    3  A    between atoms: N_5  and  C_14
REMARK    4  A    between atoms: N_5  and  C_16
REMARK    5  A    between atoms: N_5  and  C_17
REMARK    6  A    between atoms: N_6  and  C_15
REMARK    7  A    between atoms: C_8  and  C_14
REMARK    8  A    between atoms: C_9  and  C_15
REMARK    9  A    between atoms: C_16  and  C_18
REMARK                            x       y       z     vdW  Elec       q    Type
REMARK                         _______ _______ _______ _____ _____    ______ ____
ROOT
ATOM      4  N   UNL     1      -1.843   3.192  25.385  0.00  0.00    -0.298 NA
ATOM      7  C   UNL     1      -3.539   2.545  23.521  0.00  0.00    -0.003 C 
ATOM      8  C   UNL     1      -3.909   1.870  24.861  0.00  0.00    +0.020 C 
ATOM      9  C   UNL     1      -1.118   2.677  24.192  0.00  0.00    +0.072 C 
ATOM     10  C   UNL     1      -2.104   2.147  23.129  0.00  0.00    +0.024 C 
ATOM     11  C   UNL     1      -2.794   2.172  25.889  0.00  0.00    +0.089 C 
ATOM     12  C   UNL     1      -3.537   4.065  23.770  0.00  0.00    +0.019 C 
ATOM     13  C   UNL     1      -2.623   4.383  24.967  0.00  0.00    +0.085 C 
ENDROOT
BRANCH   8  14
ATOM     14  C   UNL     1      -4.164   0.371  24.731  0.00  0.00    +0.089 C 
BRANCH  14   5
ATOM      5  N   UNL     1      -3.028  -0.369  25.306  0.00  0.00    -0.301 NA
ATOM     17  C   UNL     1      -3.450  -1.079  26.508  0.00  0.00    +0.105 C 
BRANCH   5  16
ATOM     16  C   UNL     1      -2.482  -1.295  24.319  0.00  0.00    +0.110 C 
BRANCH  16  18
ATOM     18  C   UNL     1      -3.142  -2.636  24.397  0.00  0.00    -0.019 C 
ATOM     22  C   UNL     1      -4.219  -2.983  23.682  0.00  0.00    +0.005 C 
ENDBRANCH  16  18
ENDBRANCH   5  16
ENDBRANCH  14   5
ENDBRANCH   8  14
BRANCH   9  15
ATOM     15  C   UNL     1      -0.061   1.632  24.558  0.00  0.00    +0.124 C 
BRANCH  15   6
ATOM      6  N   UNL     1       0.828   1.419  23.404  0.00  0.00    -0.188 NA
ATOM     26  H   UNL     1       1.505   2.169  23.215  0.00  0.00    +0.148 HD
BRANCH   6   1
ATOM      1  S   UNL     1       1.223  -0.162  22.908  0.00  0.00    +0.058 S 
ATOM      2  O   UNL     1       1.014  -0.281  21.478  0.00  0.00    -0.153 OA
ATOM      3  O   UNL     1       0.608  -1.111  23.817  0.00  0.00    -0.153 OA
BRANCH   1  19
ATOM     19  C   UNL     1       2.964  -0.210  23.211  0.00  0.00    +0.105 A 
ATOM     20  C   UNL     1       3.553  -1.372  23.708  0.00  0.00    +0.028 A 
ATOM     21  C   UNL     1       3.747   0.916  22.956  0.00  0.00    +0.028 A 
ATOM     23  C   UNL     1       4.926  -1.409  23.949  0.00  0.00    +0.002 A 
ATOM     24  C   UNL     1       5.120   0.879  23.199  0.00  0.00    +0.002 A 
ATOM     25  C   UNL     1       5.710  -0.284  23.696  0.00  0.00    +0.000 A 
ENDBRANCH   1  19
ENDBRANCH   6   1
ENDBRANCH  15   6
ENDBRANCH   9  15
TORSDOF 8
ENDMDL
MODEL 6
REMARK VINA RESULT:      -3.8      2.642      4.481
REMARK  Name = 40779622
REMARK  9 active torsions:
REMARK  status: ('A' for Active; 'I' for Inactive)
REMARK    1  A    between atoms: S_1  and  N_6
REMARK    2  A    between atoms: S_1  and  C_19
REMARK    3  A    between atoms: N_5  and  C_14
REMARK    4  A    between atoms: N_5  and  C_16
REMARK    5  A    between atoms: N_5  and  C_17
REMARK    6  A    between atoms: N_6  and  C_15
REMARK    7  A    between atoms: C_8  and  C_14
REMARK    8  A    between atoms: C_9  and  C_15
REMARK    9  A    between atoms: C_16  and  C_18
REMARK                            x       y       z     vdW  Elec       q    Type
REMARK                         _______ _______ _______ _____ _____    ______ ____
ROOT
ATOM      4  N   UNL     1      -3.287  -1.294  26.042  0.00  0.00    -0.298 NA
ATOM      7  C   UNL     1      -2.341  -1.690  23.651  0.00  0.00    -0.003 C 
ATOM      8  C   UNL     1      -1.268  -1.068  24.573  0.00  0.00    +0.020 C 
ATOM      9  C   UNL     1      -4.189  -0.680  25.029  0.00  0.00    +0.072 C 
ATOM     10  C   UNL     1      -3.576  -0.770  23.614  0.00  0.00    +0.024 C 
ATOM     11  C   UNL     1      -1.923  -0.724  25.930  0.00  0.00    +0.089 C 
ATOM     12  C   UNL     1      -2.780  -3.015  24.304  0.00  0.00    +0.019 C 
ATOM     13  C   UNL     1      -3.205  -2.748  25.758  0.00  0.00    +0.085 C 
ENDROOT
BRANCH   8  14
ATOM     14  C   UNL     1      -0.575   0.145  23.958  0.00  0.00    +0.089 C 
BRANCH  14   5
ATOM      5  N   UNL     1       0.711  -0.274  23.372  0.00  0.00    -0.301 NA
ATOM     17  C   UNL     1       0.529  -0.627  21.969  0.00  0.00    +0.105 C 
BRANCH   5  16
ATOM     16  C   UNL     1       1.698   0.791  23.518  0.00  0.00    +0.110 C 
BRANCH  16  18
ATOM     18  C   UNL     1       2.877   0.577  22.621  0.00  0.00    -0.019 C 
ATOM     22  C   UNL     1       4.149   0.614  23.036  0.00  0.00    +0.005 C 
ENDBRANCH  16  18
ENDBRANCH   5  16
ENDBRANCH  14   5
ENDBRANCH   8  14
BRANCH   9  15
ATOM     15  C   UNL     1      -4.580   0.755  25.389  0.00  0.00    +0.124 C 
BRANCH  15   6
ATOM      6  N   UNL     1      -4.248   1.643  24.264  0.00  0.00    -0.188 NA
ATOM     26  H   UNL     1      -4.487   1.291  23.329  0.00  0.00    +0.148 HD
BRANCH   6   1
ATOM      1  S   UNL     1      -4.185   3.330  24.494  0.00  0.00    +0.058 S 
ATOM      2  O   UNL     1      -5.002   3.687  25.638  0.00  0.00    -0.153 OA
ATOM      3  O   UNL     1      -4.388   3.991  23.218  0.00  0.00    -0.153 OA
BRANCH   1  19
ATOM     19  C   UNL     1      -2.491   3.570  24.937  0.00  0.00    +0.105 A 
ATOM     20  C   UNL     1      -1.817   4.718  24.521  0.00  0.00    +0.028 A 
ATOM     21  C   UNL     1      -1.827   2.610  25.700  0.00  0.00    +0.028 A 
ATOM     23  C   UNL     1      -0.480   4.906  24.868  0.00  0.00    +0.002 A 
ATOM     24  C   UNL     1      -0.488   2.797  26.046  0.00  0.00    +0.002 A 
ATOM     25  C   UNL     1       0.185   3.946  25.630  0.00  0.00    +0.000 A 
ENDBRANCH   1  19
ENDBRANCH   6   1
ENDBRANCH  15   6
ENDBRANCH   9  15
TORSDOF 8
ENDMDL
MODEL 7
REMARK VINA RESULT:      -3.5      3.096      5.542
REMARK  Name = 40779622
REMARK  9 active torsions:
REMARK  status: ('A' for Active; 'I' for Inactive)
REMARK    1  A    between atoms: S_1  and  N_6
REMARK    2  A    between atoms: S_1  and  C_19
REMARK    3  A    between atoms: N_5  and  C_14
REMARK    4  A    between atoms: N_5  and  C_16
REMARK    5  A    between atoms: N_5  and  C_17
REMARK    6  A    between atoms: N_6  and  C_15
REMARK    7  A    between atoms: C_8  and  C_14
REMARK    8  A    between atoms: C_9  and  C_15
REMARK    9  A    between atoms: C_16  and  C_18
REMARK                            x       y       z     vdW  Elec       q    Type
REMARK                         _______ _______ _______ _____ _____    ______ ____
ROOT
ATOM      4  N   UNL     1      -0.834   2.640  25.825  0.00  0.00    -0.298 NA
ATOM      7  C   UNL     1      -2.678   2.792  23.996  0.00  0.00    -0.003 C 
ATOM      8  C   UNL     1      -2.792   1.469  24.786  0.00  0.00    +0.020 C 
ATOM      9  C   UNL     1      -0.219   2.948  24.505  0.00  0.00    +0.072 C 
ATOM     10  C   UNL     1      -1.273   2.896  23.377  0.00  0.00    +0.024 C 
ATOM     11  C   UNL     1      -1.593   1.368  25.755  0.00  0.00    +0.089 C 
ATOM     12  C   UNL     1      -2.811   3.937  25.019  0.00  0.00    +0.019 C 
ATOM     13  C   UNL     1      -1.788   3.729  26.149  0.00  0.00    +0.085 C 
ENDROOT
BRANCH   8  14
ATOM     14  C   UNL     1      -2.897   0.238  23.888  0.00  0.00    +0.089 C 
BRANCH  14   5
ATOM      5  N   UNL     1      -4.210  -0.400  24.087  0.00  0.00    -0.301 NA
ATOM     17  C   UNL     1      -4.052  -1.845  24.196  0.00  0.00    +0.105 C 
BRANCH   5  16
ATOM     16  C   UNL     1      -4.857   0.145  25.275  0.00  0.00    +0.110 C 
BRANCH  16  18
ATOM     18  C   UNL     1      -5.852   1.207  24.924  0.00  0.00    -0.019 C 
ATOM     22  C   UNL     1      -6.070   2.301  25.663  0.00  0.00    +0.005 C 
ENDBRANCH  16  18
ENDBRANCH   5  16
ENDBRANCH  14   5
ENDBRANCH   8  14
BRANCH   9  15
ATOM     15  C   UNL     1       0.985   2.054  24.199  0.00  0.00    +0.124 C 
BRANCH  15   6
ATOM      6  N   UNL     1       0.796   1.421  22.884  0.00  0.00    -0.188 NA
ATOM     26  H   UNL     1       0.850   2.049  22.073  0.00  0.00    +0.148 HD
BRANCH   6   1
ATOM      1  S   UNL     1       1.197  -0.219  22.658  0.00  0.00    +0.058 S 
ATOM      2  O   UNL     1       1.072  -0.553  21.252  0.00  0.00    -0.153 OA
ATOM      3  O   UNL     1       0.515  -1.017  23.659  0.00  0.00    -0.153 OA
BRANCH   1  19
ATOM     19  C   UNL     1       2.915  -0.230  23.071  0.00  0.00    +0.105 A 
ATOM     20  C   UNL     1       3.488  -1.365  23.642  0.00  0.00    +0.028 A 
ATOM     21  C   UNL     1       3.698   0.899  22.828  0.00  0.00    +0.028 A 
ATOM     23  C   UNL     1       4.844  -1.373  23.971  0.00  0.00    +0.002 A 
ATOM     24  C   UNL     1       5.053   0.893  23.158  0.00  0.00    +0.002 A 
ATOM     25  C   UNL     1       5.626  -0.244  23.730  0.00  0.00    +0.000 A 
ENDBRANCH   1  19
ENDBRANCH   6   1
ENDBRANCH  15   6
ENDBRANCH   9  15
TORSDOF 8
ENDMDL
MODEL 8
REMARK VINA RESULT:      -3.2      1.887      3.666
REMARK  Name = 40779622
REMARK  9 active torsions:
REMARK  status: ('A' for Active; 'I' for Inactive)
REMARK    1  A    between atoms: S_1  and  N_6
REMARK    2  A    between atoms: S_1  and  C_19
REMARK    3  A    between atoms: N_5  and  C_14
REMARK    4  A    between atoms: N_5  and  C_16
REMARK    5  A    between atoms: N_5  and  C_17
REMARK    6  A    between atoms: N_6  and  C_15
REMARK    7  A    between atoms: C_8  and  C_14
REMARK    8  A    between atoms: C_9  and  C_15
REMARK    9  A    between atoms: C_16  and  C_18
REMARK                            x       y       z     vdW  Elec       q    Type
REMARK                         _______ _______ _______ _____ _____    ______ ____
ROOT
ATOM      4  N   UNL     1      -1.654  -1.367  24.299  0.00  0.00    -0.298 NA
ATOM      7  C   UNL     1      -4.059  -1.752  25.214  0.00  0.00    -0.003 C 
ATOM      8  C   UNL     1      -4.073  -0.769  24.021  0.00  0.00    +0.020 C 
ATOM      9  C   UNL     1      -1.685  -1.131  25.768  0.00  0.00    +0.072 C 
ATOM     10  C   UNL     1      -3.128  -1.207  26.312  0.00  0.00    +0.024 C 
ATOM     11  C   UNL     1      -2.613  -0.468  23.614  0.00  0.00    +0.089 C 
ATOM     12  C   UNL     1      -3.439  -3.067  24.703  0.00  0.00    +0.019 C 
ATOM     13  C   UNL     1      -2.077  -2.767  24.053  0.00  0.00    +0.085 C 
ENDROOT
BRANCH   8  14
ATOM     14  C   UNL     1      -4.855   0.511  24.304  0.00  0.00    +0.089 C 
BRANCH  14   5
ATOM      5  N   UNL     1      -3.912   1.631  24.474  0.00  0.00    -0.301 NA
ATOM     17  C   UNL     1      -3.890   2.452  23.269  0.00  0.00    +0.105 C 
BRANCH   5  16
ATOM     16  C   UNL     1      -4.283   2.425  25.640  0.00  0.00    +0.110 C 
BRANCH  16  18
ATOM     18  C   UNL     1      -3.768   3.827  25.539  0.00  0.00    -0.019 C 
ATOM     22  C   UNL     1      -2.752   4.305  26.267  0.00  0.00    +0.005 C 
ENDBRANCH  16  18
ENDBRANCH   5  16
ENDBRANCH  14   5
ENDBRANCH   8  14
BRANCH   9  15
ATOM     15  C   UNL     1      -0.996   0.177  26.164  0.00  0.00    +0.124 C 
BRANCH  15   6
ATOM      6  N   UNL     1      -1.112   1.139  25.056  0.00  0.00    -0.188 NA
ATOM     26  H   UNL     1      -2.069   1.401  24.788  0.00  0.00    +0.148 HD
BRANCH   6   1
ATOM      1  S   UNL     1       0.139   2.255  24.756  0.00  0.00    +0.058 S 
ATOM      2  O   UNL     1       0.865   2.502  25.987  0.00  0.00    -0.153 OA
ATOM      3  O   UNL     1      -0.391   3.366  23.987  0.00  0.00    -0.153 OA
BRANCH   1  19
ATOM     19  C   UNL     1       1.192   1.335  23.676  0.00  0.00    +0.105 A 
ATOM     20  C   UNL     1       2.539   1.674  23.559  0.00  0.00    +0.028 A 
ATOM     21  C   UNL     1       0.674   0.270  22.938  0.00  0.00    +0.028 A 
ATOM     23  C   UNL     1       3.369   0.949  22.704  0.00  0.00    +0.002 A 
ATOM     24  C   UNL     1       1.504  -0.454  22.082  0.00  0.00    +0.002 A 
ATOM     25  C   UNL     1       2.852  -0.114  21.965  0.00  0.00    +0.000 A 
ENDBRANCH   1  19
ENDBRANCH   6   1
ENDBRANCH  15   6
ENDBRANCH   9  15
TORSDOF 8
ENDMDL
MODEL 9
REMARK VINA RESULT:      -3.1      3.002      5.014
REMARK  Name = 40779622
REMARK  9 active torsions:
REMARK  status: ('A' for Active; 'I' for Inactive)
REMARK    1  A    between atoms: S_1  and  N_6
REMARK    2  A    between atoms: S_1  and  C_19
REMARK    3  A    between atoms: N_5  and  C_14
REMARK    4  A    between atoms: N_5  and  C_16
REMARK    5  A    between atoms: N_5  and  C_17
REMARK    6  A    between atoms: N_6  and  C_15
REMARK    7  A    between atoms: C_8  and  C_14
REMARK    8  A    between atoms: C_9  and  C_15
REMARK    9  A    between atoms: C_16  and  C_18
REMARK                            x       y       z     vdW  Elec       q    Type
REMARK                         _______ _______ _______ _____ _____    ______ ____
ROOT
ATOM      4  N   UNL     1      -2.047  -0.251  23.504  0.00  0.00    -0.298 NA
ATOM      7  C   UNL     1      -3.552   0.261  25.563  0.00  0.00    -0.003 C 
ATOM      8  C   UNL     1      -3.044   1.568  24.912  0.00  0.00    +0.020 C 
ATOM      9  C   UNL     1      -1.566  -1.012  24.690  0.00  0.00    +0.072 C 
ATOM     10  C   UNL     1      -2.348  -0.612  25.960  0.00  0.00    +0.024 C 
ATOM     11  C   UNL     1      -2.045   1.203  23.791  0.00  0.00    +0.089 C 
ATOM     12  C   UNL     1      -4.333  -0.505  24.479  0.00  0.00    +0.019 C 
ATOM     13  C   UNL     1      -3.445  -0.667  23.232  0.00  0.00    +0.085 C 
ENDROOT
BRANCH   8  14
ATOM     14  C   UNL     1      -2.433   2.543  25.916  0.00  0.00    +0.089 C 
BRANCH  14   5
ATOM      5  N   UNL     1      -2.995   3.886  25.694  0.00  0.00    -0.301 NA
ATOM     17  C   UNL     1      -1.973   4.772  25.148  0.00  0.00    +0.105 C 
BRANCH   5  16
ATOM     16  C   UNL     1      -4.146   3.807  24.801  0.00  0.00    +0.110 C 
BRANCH  16  18
ATOM     18  C   UNL     1      -5.426   3.661  25.562  0.00  0.00    -0.019 C 
ATOM     22  C   UNL     1      -6.222   2.587  25.489  0.00  0.00    +0.005 C 
ENDBRANCH  16  18
ENDBRANCH   5  16
ENDBRANCH  14   5
ENDBRANCH   8  14
BRANCH   9  15
ATOM     15  C   UNL     1      -0.054  -0.885  24.890  0.00  0.00    +0.124 C 
BRANCH  15   6
ATOM      6  N   UNL     1       0.630  -1.207  23.627  0.00  0.00    -0.188 NA
ATOM     26  H   UNL     1       0.283  -2.036  23.128  0.00  0.00    +0.148 HD
BRANCH   6   1
ATOM      1  S   UNL     1       1.371   0.026  22.715  0.00  0.00    +0.058 S 
ATOM      2  O   UNL     1       0.931   1.316  23.208  0.00  0.00    -0.153 OA
ATOM      3  O   UNL     1       1.257  -0.293  21.304  0.00  0.00    -0.153 OA
BRANCH   1  19
ATOM     19  C   UNL     1       3.072  -0.175  23.153  0.00  0.00    +0.105 A 
ATOM     20  C   UNL     1       3.965   0.882  22.986  0.00  0.00    +0.028 A 
ATOM     21  C   UNL     1       3.521  -1.393  23.665  0.00  0.00    +0.028 A 
ATOM     23  C   UNL     1       5.307   0.723  23.329  0.00  0.00    +0.002 A 
ATOM     24  C   UNL     1       4.864  -1.553  24.007  0.00  0.00    +0.002 A 
ATOM     25  C   UNL     1       5.757  -0.494  23.839  0.00  0.00    +0.000 A 
ENDBRANCH   1  19
ENDBRANCH   6   1
ENDBRANCH  15   6
ENDBRANCH   9  15
TORSDOF 8
ENDMDL
MODEL 10
REMARK VINA RESULT:      -3.0      2.768      4.291
REMARK  Name = 40779622
REMARK  9 active torsions:
REMARK  status: ('A' for Active; 'I' for Inactive)
REMARK    1  A    between atoms: S_1  and  N_6
REMARK    2  A    between atoms: S_1  and  C_19
REMARK    3  A    between atoms: N_5  and  C_14
REMARK    4  A    between atoms: N_5  and  C_16
REMARK    5  A    between atoms: N_5  and  C_17
REMARK    6  A    between atoms: N_6  and  C_15
REMARK    7  A    between atoms: C_8  and  C_14
REMARK    8  A    between atoms: C_9  and  C_15
REMARK    9  A    between atoms: C_16  and  C_18
REMARK                            x       y       z     vdW  Elec       q    Type
REMARK                         _______ _______ _______ _____ _____    ______ ____
ROOT
ATOM      4  N   UNL     1      -3.231  -0.567  25.966  0.00  0.00    -0.298 NA
ATOM      7  C   UNL     1      -2.763  -2.408  24.188  0.00  0.00    -0.003 C 
ATOM      8  C   UNL     1      -1.465  -1.654  24.557  0.00  0.00    +0.020 C 
ATOM      9  C   UNL     1      -4.164  -0.415  24.816  0.00  0.00    +0.072 C 
ATOM     10  C   UNL     1      -3.810  -1.400  23.680  0.00  0.00    +0.024 C 
ATOM     11  C   UNL     1      -1.825  -0.486  25.502  0.00  0.00    +0.089 C 
ATOM     12  C   UNL     1      -3.312  -3.019  25.491  0.00  0.00    +0.019 C 
ATOM     13  C   UNL     1      -3.446  -1.913  26.553  0.00  0.00    +0.085 C 
ENDROOT
BRANCH   8  14
ATOM     14  C   UNL     1      -0.680  -1.173  23.339  0.00  0.00    +0.089 C 
BRANCH  14   5
ATOM      5  N   UNL     1       0.236  -0.093  23.745  0.00  0.00    -0.301 NA
ATOM     17  C   UNL     1       1.452  -0.141  22.942  0.00  0.00    +0.105 C 
BRANCH   5  16
ATOM     16  C   UNL     1      -0.424   1.201  23.614  0.00  0.00    +0.110 C 
BRANCH  16  18
ATOM     18  C   UNL     1       0.241   2.248  24.452  0.00  0.00    -0.019 C 
ATOM     22  C   UNL     1       0.317   2.199  25.788  0.00  0.00    +0.005 C 
ENDBRANCH  16  18
ENDBRANCH   5  16
ENDBRANCH  14   5
ENDBRANCH   8  14
BRANCH   9  15
ATOM     15  C   UNL     1      -4.239   1.028  24.313  0.00  0.00    +0.124 C 
BRANCH  15   6
ATOM      6  N   UNL     1      -5.556   1.591  24.655  0.00  0.00    -0.188 NA
ATOM     26  H   UNL     1      -6.347   0.936  24.619  0.00  0.00    +0.148 HD
BRANCH   6   1
ATOM      1  S   UNL     1      -5.669   2.929  25.704  0.00  0.00    +0.058 S 
ATOM      2  O   UNL     1      -5.740   2.458  27.074  0.00  0.00    -0.153 OA
ATOM      3  O   UNL     1      -6.670   3.847  25.195  0.00  0.00    -0.153 OA
BRANCH   1  19
ATOM     19  C   UNL     1      -4.096   3.701  25.473  0.00  0.00    +0.105 A 
ATOM     20  C   UNL     1      -3.242   3.883  26.560  0.00  0.00    +0.028 A 
ATOM     21  C   UNL     1      -3.710   4.131  24.204  0.00  0.00    +0.028 A 
ATOM     23  C   UNL     1      -2.002   4.495  26.379  0.00  0.00    +0.002 A 
ATOM     24  C   UNL     1      -2.470   4.744  24.022  0.00  0.00    +0.002 A 
ATOM     25  C   UNL     1      -1.616   4.926  25.110  0.00  0.00    +0.000 A 
ENDBRANCH   1  19
ENDBRANCH   6   1
ENDBRANCH  15   6
ENDBRANCH   9  15
TORSDOF 8
ENDMDL
