MODEL 1
REMARK VINA RESULT:       0.7      0.000      0.000
REMARK  Name = 26744413
REMARK  7 active torsions:
REMARK  status: ('A' for Active; 'I' for Inactive)
REMARK    1  A    between atoms: O_2  and  C_11
REMARK    2  A    between atoms: N_5  and  C_13
REMARK    3  A    between atoms: N_8  and  C_21
REMARK    4  A    between atoms: C_9  and  C_14
REMARK    5  A    between atoms: C_13  and  C_15
REMARK    6  A    between atoms: C_18  and  C_22
REMARK    7  A    between atoms: C_27  and  C_29
REMARK                            x       y       z     vdW  Elec       q    Type
REMARK                         _______ _______ _______ _____ _____    ______ ____
ROOT
ATOM      5  N   UNL     1      -3.272 -10.154  13.714  0.00  0.00    -0.285 NA
ATOM      9  C   UNL     1      -4.523 -10.781  13.241  0.00  0.00    +0.149 C 
ATOM     10  C   UNL     1      -5.472 -10.730  14.453  0.00  0.00    +0.061 C 
ATOM     11  C   UNL     1      -4.650 -10.101  15.571  0.00  0.00    +0.130 C 
ATOM     12  C   UNL     1      -3.217 -10.376  15.157  0.00  0.00    +0.116 C 
ENDROOT
BRANCH   9  14
ATOM      3  O   UNL     1      -4.308 -10.068  10.912  0.00  0.00    -0.336 OA
ATOM      6  N   UNL     1      -6.254  -9.502  11.866  0.00  0.00    -0.190 NA
ATOM      7  N   UNL     1      -5.040  -9.388   9.930  0.00  0.00    -0.056 NA
ATOM     14  C   UNL     1      -5.096 -10.091  12.020  0.00  0.00    +0.245 A 
ATOM     18  C   UNL     1      -6.175  -9.086  10.569  0.00  0.00    +0.202 A 
BRANCH  18  22
ATOM      1  F   UNL     1     -10.336  -6.318   8.124  0.00  0.00    -0.205 F 
ATOM     22  C   UNL     1      -7.247  -8.372   9.939  0.00  0.00    +0.023 A 
ATOM     23  C   UNL     1      -8.571  -8.685  10.250  0.00  0.00    +0.014 A 
ATOM     24  C   UNL     1      -6.968  -7.365   9.015  0.00  0.00    +0.014 A 
ATOM     25  C   UNL     1      -9.614  -7.991   9.636  0.00  0.00    +0.039 A 
ATOM     26  C   UNL     1      -8.011  -6.670   8.403  0.00  0.00    +0.039 A 
ATOM     28  C   UNL     1      -9.334  -6.984   8.713  0.00  0.00    +0.123 A 
ENDBRANCH  18  22
ENDBRANCH   9  14
BRANCH  11   2
ATOM      2  O   UNL     1      -4.960 -10.694  16.817  0.00  0.00    -0.390 OA
ATOM     30  H   UNL     1      -5.859 -10.412  17.059  0.00  0.00    +0.210 HD
ENDBRANCH  11   2
BRANCH   5  13
ATOM     13  C   UNL     1      -2.085 -10.656  13.035  0.00  0.00    +0.120 C 
BRANCH  13  15
ATOM     15  C   UNL     1      -1.096  -9.557  12.748  0.00  0.00    -0.033 A 
ATOM     16  C   UNL     1      -0.641  -8.739  13.783  0.00  0.00    +0.007 A 
ATOM     17  C   UNL     1      -0.634  -9.357  11.447  0.00  0.00    +0.007 A 
ATOM     19  C   UNL     1       0.274  -7.722  13.516  0.00  0.00    +0.023 A 
ATOM     20  C   UNL     1       0.280  -8.339  11.180  0.00  0.00    +0.023 A 
ATOM     21  C   UNL     1       0.735  -7.520  12.215  0.00  0.00    +0.033 A 
BRANCH  21   8
ATOM      4  O   UNL     1       3.713  -7.409  12.645  0.00  0.00    -0.276 OA
ATOM      8  N   UNL     1       1.650  -6.502  11.949  0.00  0.00    -0.286 N 
ATOM     27  C   UNL     1       3.034  -6.503  12.173  0.00  0.00    +0.214 C 
ATOM     29  C   UNL     1       3.670  -5.203  11.747  0.00  0.00    +0.109 C 
ATOM     31  H   UNL     1       1.255  -5.657  11.543  0.00  0.00    +0.155 HD
ENDBRANCH  21   8
ENDBRANCH  13  15
ENDBRANCH   5  13
TORSDOF 6
ENDMDL
MODEL 2
REMARK VINA RESULT:       1.1     15.132     17.031
REMARK  Name = 26744413
REMARK  7 active torsions:
REMARK  status: ('A' for Active; 'I' for Inactive)
REMARK    1  A    between atoms: O_2  and  C_11
REMARK    2  A    between atoms: N_5  and  C_13
REMARK    3  A    between atoms: N_8  and  C_21
REMARK    4  A    between atoms: C_9  and  C_14
REMARK    5  A    between atoms: C_13  and  C_15
REMARK    6  A    between atoms: C_18  and  C_22
REMARK    7  A    between atoms: C_27  and  C_29
REMARK                            x       y       z     vdW  Elec       q    Type
REMARK                         _______ _______ _______ _____ _____    ______ ____
ROOT
ATOM      5  N   UNL     1      -3.942   4.010  25.679  0.00  0.00    -0.285 NA
ATOM      9  C   UNL     1      -5.030   3.096  26.085  0.00  0.00    +0.149 C 
ATOM     10  C   UNL     1      -6.325   3.812  25.661  0.00  0.00    +0.061 C 
ATOM     11  C   UNL     1      -5.867   5.139  25.068  0.00  0.00    +0.130 C 
ATOM     12  C   UNL     1      -4.505   5.358  25.700  0.00  0.00    +0.116 C 
ENDROOT
BRANCH   9  14
ATOM      3  O   UNL     1      -6.028   1.166  24.964  0.00  0.00    -0.336 OA
ATOM      6  N   UNL     1      -3.831   0.965  25.348  0.00  0.00    -0.190 NA
ATOM      7  N   UNL     1      -5.657  -0.086  24.458  0.00  0.00    -0.056 NA
ATOM     14  C   UNL     1      -4.893   1.719  25.470  0.00  0.00    +0.245 A 
ATOM     18  C   UNL     1      -4.347  -0.132  24.722  0.00  0.00    +0.202 A 
BRANCH  18  22
ATOM      1  F   UNL     1      -1.172  -4.493  23.366  0.00  0.00    -0.205 F 
ATOM     22  C   UNL     1      -3.529  -1.256  24.373  0.00  0.00    +0.023 A 
ATOM     23  C   UNL     1      -2.149  -1.205  24.577  0.00  0.00    +0.014 A 
ATOM     24  C   UNL     1      -4.111  -2.401  23.829  0.00  0.00    +0.014 A 
ATOM     25  C   UNL     1      -1.353  -2.299  24.237  0.00  0.00    +0.039 A 
ATOM     26  C   UNL     1      -3.315  -3.495  23.490  0.00  0.00    +0.039 A 
ATOM     28  C   UNL     1      -1.937  -3.443  23.693  0.00  0.00    +0.123 A 
ENDBRANCH  18  22
ENDBRANCH   9  14
BRANCH  11   2
ATOM      2  O   UNL     1      -6.772   6.175  25.398  0.00  0.00    -0.390 OA
ATOM     30  H   UNL     1      -7.229   6.435  24.580  0.00  0.00    +0.210 HD
ENDBRANCH  11   2
BRANCH   5  13
ATOM     13  C   UNL     1      -2.755   3.898  26.515  0.00  0.00    +0.120 C 
BRANCH  13  15
ATOM     15  C   UNL     1      -1.600   3.283  25.769  0.00  0.00    -0.033 A 
ATOM     16  C   UNL     1      -0.630   2.556  26.460  0.00  0.00    +0.007 A 
ATOM     17  C   UNL     1      -1.499   3.441  24.386  0.00  0.00    +0.007 A 
ATOM     19  C   UNL     1       0.439   1.988  25.769  0.00  0.00    +0.023 A 
ATOM     20  C   UNL     1      -0.429   2.873  23.696  0.00  0.00    +0.023 A 
ATOM     21  C   UNL     1       0.541   2.146  24.387  0.00  0.00    +0.033 A 
BRANCH  21   8
ATOM      4  O   UNL     1       0.674  -0.339  22.693  0.00  0.00    -0.276 OA
ATOM      8  N   UNL     1       1.611   1.578  23.697  0.00  0.00    -0.286 N 
ATOM     27  C   UNL     1       1.618   0.411  22.920  0.00  0.00    +0.214 C 
ATOM     29  C   UNL     1       2.982   0.135  22.338  0.00  0.00    +0.109 C 
ATOM     31  H   UNL     1       2.494   2.079  23.773  0.00  0.00    +0.155 HD
ENDBRANCH  21   8
ENDBRANCH  13  15
ENDBRANCH   5  13
TORSDOF 6
ENDMDL
MODEL 3
REMARK VINA RESULT:       1.2      4.256      5.694
REMARK  Name = 26744413
REMARK  7 active torsions:
REMARK  status: ('A' for Active; 'I' for Inactive)
REMARK    1  A    between atoms: O_2  and  C_11
REMARK    2  A    between atoms: N_5  and  C_13
REMARK    3  A    between atoms: N_8  and  C_21
REMARK    4  A    between atoms: C_9  and  C_14
REMARK    5  A    between atoms: C_13  and  C_15
REMARK    6  A    between atoms: C_18  and  C_22
REMARK    7  A    between atoms: C_27  and  C_29
REMARK                            x       y       z     vdW  Elec       q    Type
REMARK                         _______ _______ _______ _____ _____    ______ ____
ROOT
ATOM      5  N   UNL     1      -5.916 -10.037  16.957  0.00  0.00    -0.285 NA
ATOM      9  C   UNL     1      -7.168 -10.765  17.246  0.00  0.00    +0.149 C 
ATOM     10  C   UNL     1      -7.612 -10.252  18.628  0.00  0.00    +0.061 C 
ATOM     11  C   UNL     1      -6.522  -9.275  19.055  0.00  0.00    +0.130 C 
ATOM     12  C   UNL     1      -5.315  -9.717  18.250  0.00  0.00    +0.116 C 
ENDROOT
BRANCH   9  14
ATOM      3  O   UNL     1      -9.514 -10.753  16.556  0.00  0.00    -0.336 OA
ATOM      6  N   UNL     1      -8.078 -10.211  14.925  0.00  0.00    -0.190 NA
ATOM      7  N   UNL     1     -10.292 -10.506  15.418  0.00  0.00    -0.056 NA
ATOM     14  C   UNL     1      -8.222 -10.557  16.178  0.00  0.00    +0.245 A 
ATOM     18  C   UNL     1      -9.374 -10.193  14.498  0.00  0.00    +0.202 A 
BRANCH  18  22
ATOM      1  F   UNL     1     -10.715  -8.887   9.260  0.00  0.00    -0.205 F 
ATOM     22  C   UNL     1      -9.719  -9.856  13.149  0.00  0.00    +0.023 A 
ATOM     23  C   UNL     1     -10.376  -8.656  12.874  0.00  0.00    +0.014 A 
ATOM     24  C   UNL     1      -9.399 -10.729  12.108  0.00  0.00    +0.014 A 
ATOM     25  C   UNL     1     -10.712  -8.329  11.561  0.00  0.00    +0.039 A 
ATOM     26  C   UNL     1      -9.734 -10.401  10.794  0.00  0.00    +0.039 A 
ATOM     28  C   UNL     1     -10.392  -9.202  10.521  0.00  0.00    +0.123 A 
ENDBRANCH  18  22
ENDBRANCH   9  14
BRANCH  11   2
ATOM      2  O   UNL     1      -6.287  -9.364  20.447  0.00  0.00    -0.390 OA
ATOM     30  H   UNL     1      -5.390  -9.721  20.569  0.00  0.00    +0.210 HD
ENDBRANCH  11   2
BRANCH   5  13
ATOM     13  C   UNL     1      -5.004 -10.780  16.098  0.00  0.00    +0.120 C 
BRANCH  13  15
ATOM     15  C   UNL     1      -5.031 -10.273  14.680  0.00  0.00    -0.033 A 
ATOM     16  C   UNL     1      -6.051  -9.416  14.263  0.00  0.00    +0.007 A 
ATOM     17  C   UNL     1      -4.037 -10.661  13.781  0.00  0.00    +0.007 A 
ATOM     19  C   UNL     1      -6.075  -8.948  12.950  0.00  0.00    +0.023 A 
ATOM     20  C   UNL     1      -4.062 -10.194  12.468  0.00  0.00    +0.023 A 
ATOM     21  C   UNL     1      -5.082  -9.337  12.052  0.00  0.00    +0.033 A 
BRANCH  21   8
ATOM      4  O   UNL     1      -5.668 -10.780   9.475  0.00  0.00    -0.276 OA
ATOM      8  N   UNL     1      -5.108  -8.869  10.738  0.00  0.00    -0.286 N 
ATOM     27  C   UNL     1      -5.387  -9.590   9.569  0.00  0.00    +0.214 C 
ATOM     29  C   UNL     1      -5.312  -8.715   8.342  0.00  0.00    +0.109 C 
ATOM     31  H   UNL     1      -4.895  -7.880  10.624  0.00  0.00    +0.155 HD
ENDBRANCH  21   8
ENDBRANCH  13  15
ENDBRANCH   5  13
TORSDOF 6
ENDMDL
MODEL 4
REMARK VINA RESULT:       1.2     14.820     17.307
REMARK  Name = 26744413
REMARK  7 active torsions:
REMARK  status: ('A' for Active; 'I' for Inactive)
REMARK    1  A    between atoms: O_2  and  C_11
REMARK    2  A    between atoms: N_5  and  C_13
REMARK    3  A    between atoms: N_8  and  C_21
REMARK    4  A    between atoms: C_9  and  C_14
REMARK    5  A    between atoms: C_13  and  C_15
REMARK    6  A    between atoms: C_18  and  C_22
REMARK    7  A    between atoms: C_27  and  C_29
REMARK                            x       y       z     vdW  Elec       q    Type
REMARK                         _______ _______ _______ _____ _____    ______ ____
ROOT
ATOM      5  N   UNL     1      -5.317   2.286  25.317  0.00  0.00    -0.285 NA
ATOM      9  C   UNL     1      -4.447   3.029  24.383  0.00  0.00    +0.149 C 
ATOM     10  C   UNL     1      -4.690   4.513  24.714  0.00  0.00    +0.061 C 
ATOM     11  C   UNL     1      -5.745   4.504  25.814  0.00  0.00    +0.130 C 
ATOM     12  C   UNL     1      -6.439   3.169  25.629  0.00  0.00    +0.116 C 
ENDROOT
BRANCH   9  14
ATOM      3  O   UNL     1      -2.357   2.995  25.650  0.00  0.00    -0.336 OA
ATOM      6  N   UNL     1      -2.233   1.985  23.656  0.00  0.00    -0.190 NA
ATOM      7  N   UNL     1      -1.042   2.528  25.532  0.00  0.00    -0.056 NA
ATOM     14  C   UNL     1      -2.990   2.634  24.503  0.00  0.00    +0.245 A 
ATOM     18  C   UNL     1      -1.047   1.943  24.329  0.00  0.00    +0.202 A 
BRANCH  18  22
ATOM      1  F   UNL     1       3.458  -0.510  22.177  0.00  0.00    -0.205 F 
ATOM     22  C   UNL     1       0.113   1.311  23.775  0.00  0.00    +0.023 A 
ATOM     23  C   UNL     1       1.361   1.927  23.880  0.00  0.00    +0.014 A 
ATOM     24  C   UNL     1      -0.003   0.080  23.130  0.00  0.00    +0.014 A 
ATOM     25  C   UNL     1       2.491   1.312  23.340  0.00  0.00    +0.039 A 
ATOM     26  C   UNL     1       1.126  -0.536  22.591  0.00  0.00    +0.039 A 
ATOM     28  C   UNL     1       2.373   0.080  22.695  0.00  0.00    +0.123 A 
ENDBRANCH  18  22
ENDBRANCH   9  14
BRANCH  11   2
ATOM      2  O   UNL     1      -6.641   5.588  25.658  0.00  0.00    -0.390 OA
ATOM     30  H   UNL     1      -6.110   6.402  25.623  0.00  0.00    +0.210 HD
ENDBRANCH  11   2
BRANCH   5  13
ATOM     13  C   UNL     1      -5.758   1.001  24.793  0.00  0.00    +0.120 C 
BRANCH  13  15
ATOM     15  C   UNL     1      -4.664  -0.032  24.845  0.00  0.00    -0.033 A 
ATOM     16  C   UNL     1      -3.949  -0.234  26.026  0.00  0.00    +0.007 A 
ATOM     17  C   UNL     1      -4.364  -0.789  23.712  0.00  0.00    +0.007 A 
ATOM     19  C   UNL     1      -2.936  -1.190  26.074  0.00  0.00    +0.023 A 
ATOM     20  C   UNL     1      -3.350  -1.745  23.759  0.00  0.00    +0.023 A 
ATOM     21  C   UNL     1      -2.635  -1.946  24.940  0.00  0.00    +0.033 A 
BRANCH  21   8
ATOM      4  O   UNL     1       0.246  -1.696  25.779  0.00  0.00    -0.276 OA
ATOM      8  N   UNL     1      -1.621  -2.902  24.989  0.00  0.00    -0.286 N 
ATOM     27  C   UNL     1      -0.288  -2.729  25.388  0.00  0.00    +0.214 C 
ATOM     29  C   UNL     1       0.494  -4.016  25.295  0.00  0.00    +0.109 C 
ATOM     31  H   UNL     1      -1.891  -3.838  24.694  0.00  0.00    +0.155 HD
ENDBRANCH  21   8
ENDBRANCH  13  15
ENDBRANCH   5  13
TORSDOF 6
ENDMDL
MODEL 5
REMARK VINA RESULT:       1.5      3.060      4.377
REMARK  Name = 26744413
REMARK  7 active torsions:
REMARK  status: ('A' for Active; 'I' for Inactive)
REMARK    1  A    between atoms: O_2  and  C_11
REMARK    2  A    between atoms: N_5  and  C_13
REMARK    3  A    between atoms: N_8  and  C_21
REMARK    4  A    between atoms: C_9  and  C_14
REMARK    5  A    between atoms: C_13  and  C_15
REMARK    6  A    between atoms: C_18  and  C_22
REMARK    7  A    between atoms: C_27  and  C_29
REMARK                            x       y       z     vdW  Elec       q    Type
REMARK                         _______ _______ _______ _____ _____    ______ ____
ROOT
ATOM      5  N   UNL     1      -5.791  -9.940  17.151  0.00  0.00    -0.285 NA
ATOM      9  C   UNL     1      -6.958 -10.605  16.536  0.00  0.00    +0.149 C 
ATOM     10  C   UNL     1      -8.181  -9.960  17.213  0.00  0.00    +0.061 C 
ATOM     11  C   UNL     1      -7.601  -8.980  18.225  0.00  0.00    +0.130 C 
ATOM     12  C   UNL     1      -6.210  -9.523  18.488  0.00  0.00    +0.116 C 
ENDROOT
BRANCH   9  14
ATOM      3  O   UNL     1      -8.160 -10.741  14.412  0.00  0.00    -0.336 OA
ATOM      6  N   UNL     1      -6.021 -10.111  14.213  0.00  0.00    -0.190 NA
ATOM      7  N   UNL     1      -7.939 -10.544  13.044  0.00  0.00    -0.056 NA
ATOM     14  C   UNL     1      -6.981 -10.464  15.029  0.00  0.00    +0.245 A 
ATOM     18  C   UNL     1      -6.655 -10.174  13.006  0.00  0.00    +0.202 A 
BRANCH  18  22
ATOM      1  F   UNL     1      -4.027  -8.957   8.256  0.00  0.00    -0.205 F 
ATOM     22  C   UNL     1      -5.978  -9.860  11.782  0.00  0.00    +0.023 A 
ATOM     23  C   UNL     1      -5.094 -10.781  11.218  0.00  0.00    +0.014 A 
ATOM     24  C   UNL     1      -6.202  -8.635  11.154  0.00  0.00    +0.014 A 
ATOM     25  C   UNL     1      -4.435 -10.476  10.026  0.00  0.00    +0.039 A 
ATOM     26  C   UNL     1      -5.544  -8.330   9.963  0.00  0.00    +0.039 A 
ATOM     28  C   UNL     1      -4.660  -9.250   9.400  0.00  0.00    +0.123 A 
ENDBRANCH  18  22
ENDBRANCH   9  14
BRANCH  11   2
ATOM      2  O   UNL     1      -8.385  -8.951  19.402  0.00  0.00    -0.390 OA
ATOM     30  H   UNL     1      -8.272  -9.807  19.849  0.00  0.00    +0.210 HD
ENDBRANCH  11   2
BRANCH   5  13
ATOM     13  C   UNL     1      -4.602 -10.781  17.186  0.00  0.00    +0.120 C 
BRANCH  13  15
ATOM     15  C   UNL     1      -3.593 -10.368  16.148  0.00  0.00    -0.033 A 
ATOM     16  C   UNL     1      -2.484  -9.605  16.515  0.00  0.00    +0.007 A 
ATOM     17  C   UNL     1      -3.766 -10.749  14.816  0.00  0.00    +0.007 A 
ATOM     19  C   UNL     1      -1.550  -9.223  15.553  0.00  0.00    +0.023 A 
ATOM     20  C   UNL     1      -2.833 -10.366  13.854  0.00  0.00    +0.023 A 
ATOM     21  C   UNL     1      -1.724  -9.603  14.222  0.00  0.00    +0.033 A 
BRANCH  21   8
ATOM      4  O   UNL     1      -1.887  -9.645  11.216  0.00  0.00    -0.276 OA
ATOM      8  N   UNL     1      -0.790  -9.219  13.260  0.00  0.00    -0.286 N 
ATOM     27  C   UNL     1      -0.918  -9.263  11.864  0.00  0.00    +0.214 C 
ATOM     29  C   UNL     1       0.324  -8.757  11.173  0.00  0.00    +0.109 C 
ATOM     31  H   UNL     1       0.092  -8.867  13.626  0.00  0.00    +0.155 HD
ENDBRANCH  21   8
ENDBRANCH  13  15
ENDBRANCH   5  13
TORSDOF 6
ENDMDL
MODEL 6
REMARK VINA RESULT:       1.6     16.381     18.772
REMARK  Name = 26744413
REMARK  7 active torsions:
REMARK  status: ('A' for Active; 'I' for Inactive)
REMARK    1  A    between atoms: O_2  and  C_11
REMARK    2  A    between atoms: N_5  and  C_13
REMARK    3  A    between atoms: N_8  and  C_21
REMARK    4  A    between atoms: C_9  and  C_14
REMARK    5  A    between atoms: C_13  and  C_15
REMARK    6  A    between atoms: C_18  and  C_22
REMARK    7  A    between atoms: C_27  and  C_29
REMARK                            x       y       z     vdW  Elec       q    Type
REMARK                         _______ _______ _______ _____ _____    ______ ____
ROOT
ATOM      5  N   UNL     1      -4.198   1.901  25.114  0.00  0.00    -0.285 NA
ATOM      9  C   UNL     1      -3.391   3.076  24.728  0.00  0.00    +0.149 C 
ATOM     10  C   UNL     1      -4.203   4.289  25.217  0.00  0.00    +0.061 C 
ATOM     11  C   UNL     1      -5.471   3.698  25.822  0.00  0.00    +0.130 C 
ATOM     12  C   UNL     1      -5.589   2.346  25.144  0.00  0.00    +0.116 C 
ENDROOT
BRANCH   9  14
ATOM      3  O   UNL     1      -0.971   3.271  24.439  0.00  0.00    -0.336 OA
ATOM      6  N   UNL     1      -1.607   2.808  26.536  0.00  0.00    -0.190 NA
ATOM      7  N   UNL     1       0.206   3.184  25.193  0.00  0.00    -0.056 NA
ATOM     14  C   UNL     1      -1.992   3.037  25.306  0.00  0.00    +0.245 A 
ATOM     18  C   UNL     1      -0.251   2.908  26.418  0.00  0.00    +0.202 A 
BRANCH  18  22
ATOM      1  F   UNL     1       3.123   2.211  30.786  0.00  0.00    -0.205 F 
ATOM     22  C   UNL     1       0.618   2.728  27.543  0.00  0.00    +0.023 A 
ATOM     23  C   UNL     1       0.091   2.351  28.780  0.00  0.00    +0.014 A 
ATOM     24  C   UNL     1       1.992   2.930  27.404  0.00  0.00    +0.014 A 
ATOM     25  C   UNL     1       0.938   2.176  29.875  0.00  0.00    +0.039 A 
ATOM     26  C   UNL     1       2.838   2.754  28.499  0.00  0.00    +0.039 A 
ATOM     28  C   UNL     1       2.311   2.379  29.734  0.00  0.00    +0.123 A 
ENDBRANCH  18  22
ENDBRANCH   9  14
BRANCH  11   2
ATOM      2  O   UNL     1      -6.588   4.521  25.550  0.00  0.00    -0.390 OA
ATOM     30  H   UNL     1      -6.817   4.985  26.375  0.00  0.00    +0.210 HD
ENDBRANCH  11   2
BRANCH   5  13
ATOM     13  C   UNL     1      -4.007   0.758  24.231  0.00  0.00    +0.120 C 
BRANCH  13  15
ATOM     15  C   UNL     1      -2.548   0.446  24.025  0.00  0.00    -0.033 A 
ATOM     16  C   UNL     1      -1.893   0.898  22.879  0.00  0.00    +0.007 A 
ATOM     17  C   UNL     1      -1.851  -0.296  24.979  0.00  0.00    +0.007 A 
ATOM     19  C   UNL     1      -0.543   0.608  22.688  0.00  0.00    +0.023 A 
ATOM     20  C   UNL     1      -0.501  -0.586  24.787  0.00  0.00    +0.023 A 
ATOM     21  C   UNL     1       0.154  -0.134  23.642  0.00  0.00    +0.033 A 
BRANCH  21   8
ATOM      4  O   UNL     1       2.498   1.698  23.176  0.00  0.00    -0.276 OA
ATOM      8  N   UNL     1       1.504  -0.424  23.449  0.00  0.00    -0.286 N 
ATOM     27  C   UNL     1       2.560   0.474  23.233  0.00  0.00    +0.214 C 
ATOM     29  C   UNL     1       3.878  -0.242  23.071  0.00  0.00    +0.109 C 
ATOM     31  H   UNL     1       1.745  -1.413  23.468  0.00  0.00    +0.155 HD
ENDBRANCH  21   8
ENDBRANCH  13  15
ENDBRANCH   5  13
TORSDOF 6
ENDMDL
MODEL 7
REMARK VINA RESULT:       1.7     15.039     17.615
REMARK  Name = 26744413
REMARK  7 active torsions:
REMARK  status: ('A' for Active; 'I' for Inactive)
REMARK    1  A    between atoms: O_2  and  C_11
REMARK    2  A    between atoms: N_5  and  C_13
REMARK    3  A    between atoms: N_8  and  C_21
REMARK    4  A    between atoms: C_9  and  C_14
REMARK    5  A    between atoms: C_13  and  C_15
REMARK    6  A    between atoms: C_18  and  C_22
REMARK    7  A    between atoms: C_27  and  C_29
REMARK                            x       y       z     vdW  Elec       q    Type
REMARK                         _______ _______ _______ _____ _____    ______ ____
ROOT
ATOM      5  N   UNL     1       0.682  -0.235  22.881  0.00  0.00    -0.285 NA
ATOM      9  C   UNL     1       1.310   0.517  23.987  0.00  0.00    +0.149 C 
ATOM     10  C   UNL     1       2.587   1.122  23.376  0.00  0.00    +0.061 C 
ATOM     11  C   UNL     1       2.616   0.616  21.939  0.00  0.00    +0.130 C 
ATOM     12  C   UNL     1       1.766  -0.639  21.988  0.00  0.00    +0.116 C 
ENDROOT
BRANCH   9  14
ATOM      3  O   UNL     1       0.925   2.382  25.520  0.00  0.00    -0.336 OA
ATOM      6  N   UNL     1      -0.868   1.810  24.306  0.00  0.00    -0.190 NA
ATOM      7  N   UNL     1      -0.101   3.253  25.907  0.00  0.00    -0.056 NA
ATOM     14  C   UNL     1       0.388   1.565  24.574  0.00  0.00    +0.245 A 
ATOM     18  C   UNL     1      -1.126   2.854  25.148  0.00  0.00    +0.202 A 
BRANCH  18  22
ATOM      1  F   UNL     1      -6.134   5.264  25.373  0.00  0.00    -0.205 F 
ATOM     22  C   UNL     1      -2.416   3.475  25.205  0.00  0.00    +0.023 A 
ATOM     23  C   UNL     1      -2.971   3.818  26.440  0.00  0.00    +0.014 A 
ATOM     24  C   UNL     1      -3.118   3.737  24.029  0.00  0.00    +0.014 A 
ATOM     25  C   UNL     1      -4.227   4.422  26.496  0.00  0.00    +0.039 A 
ATOM     26  C   UNL     1      -4.374   4.343  24.085  0.00  0.00    +0.039 A 
ATOM     28  C   UNL     1      -4.928   4.684  25.318  0.00  0.00    +0.123 A 
ENDBRANCH  18  22
ENDBRANCH   9  14
BRANCH  11   2
ATOM      2  O   UNL     1       3.941   0.338  21.531  0.00  0.00    -0.390 OA
ATOM     30  H   UNL     1       4.084  -0.619  21.634  0.00  0.00    +0.210 HD
ENDBRANCH  11   2
BRANCH   5  13
ATOM     13  C   UNL     1      -0.108  -1.372  23.334  0.00  0.00    +0.120 C 
BRANCH  13  15
ATOM     15  C   UNL     1      -1.354  -0.936  24.058  0.00  0.00    -0.033 A 
ATOM     16  C   UNL     1      -2.402  -0.346  23.351  0.00  0.00    +0.007 A 
ATOM     17  C   UNL     1      -1.462  -1.123  25.436  0.00  0.00    +0.007 A 
ATOM     19  C   UNL     1      -3.555   0.058  24.022  0.00  0.00    +0.023 A 
ATOM     20  C   UNL     1      -2.615  -0.719  26.107  0.00  0.00    +0.023 A 
ATOM     21  C   UNL     1      -3.663  -0.128  25.400  0.00  0.00    +0.033 A 
BRANCH  21   8
ATOM      4  O   UNL     1      -5.831   1.790  24.572  0.00  0.00    -0.276 OA
ATOM      8  N   UNL     1      -4.817   0.277  26.070  0.00  0.00    -0.286 N 
ATOM     27  C   UNL     1      -5.797   1.180  25.636  0.00  0.00    +0.214 C 
ATOM     29  C   UNL     1      -6.893   1.350  26.659  0.00  0.00    +0.109 C 
ATOM     31  H   UNL     1      -4.955  -0.139  26.989  0.00  0.00    +0.155 HD
ENDBRANCH  21   8
ENDBRANCH  13  15
ENDBRANCH   5  13
TORSDOF 6
ENDMDL
MODEL 8
REMARK VINA RESULT:       3.4     14.396     16.878
REMARK  Name = 26744413
REMARK  7 active torsions:
REMARK  status: ('A' for Active; 'I' for Inactive)
REMARK    1  A    between atoms: O_2  and  C_11
REMARK    2  A    between atoms: N_5  and  C_13
REMARK    3  A    between atoms: N_8  and  C_21
REMARK    4  A    between atoms: C_9  and  C_14
REMARK    5  A    between atoms: C_13  and  C_15
REMARK    6  A    between atoms: C_18  and  C_22
REMARK    7  A    between atoms: C_27  and  C_29
REMARK                            x       y       z     vdW  Elec       q    Type
REMARK                         _______ _______ _______ _____ _____    ______ ____
ROOT
ATOM      5  N   UNL     1      -4.322  -1.379  23.966  0.00  0.00    -0.285 NA
ATOM      9  C   UNL     1      -3.340  -1.739  25.010  0.00  0.00    +0.149 C 
ATOM     10  C   UNL     1      -3.092  -3.246  24.814  0.00  0.00    +0.061 C 
ATOM     11  C   UNL     1      -4.012  -3.652  23.668  0.00  0.00    +0.130 C 
ATOM     12  C   UNL     1      -5.093  -2.589  23.688  0.00  0.00    +0.116 C 
ENDROOT
BRANCH   9  14
ATOM      3  O   UNL     1      -1.895   0.031  25.877  0.00  0.00    -0.336 OA
ATOM      6  N   UNL     1      -1.096  -0.989  24.050  0.00  0.00    -0.190 NA
ATOM      7  N   UNL     1      -0.670   0.647  25.592  0.00  0.00    -0.056 NA
ATOM     14  C   UNL     1      -2.070  -0.920  24.922  0.00  0.00    +0.245 A 
ATOM     18  C   UNL     1      -0.260  -0.009  24.501  0.00  0.00    +0.202 A 
BRANCH  18  22
ATOM      1  F   UNL     1       4.541   1.150  21.941  0.00  0.00    -0.205 F 
ATOM     22  C   UNL     1       0.977   0.290  23.841  0.00  0.00    +0.023 A 
ATOM     23  C   UNL     1       1.735  -0.739  23.280  0.00  0.00    +0.014 A 
ATOM     24  C   UNL     1       1.424   1.609  23.760  0.00  0.00    +0.014 A 
ATOM     25  C   UNL     1       2.939  -0.447  22.638  0.00  0.00    +0.039 A 
ATOM     26  C   UNL     1       2.627   1.900  23.118  0.00  0.00    +0.039 A 
ATOM     28  C   UNL     1       3.385   0.872  22.558  0.00  0.00    +0.123 A 
ENDBRANCH  18  22
ENDBRANCH   9  14
BRANCH  11   2
ATOM      2  O   UNL     1      -4.542  -4.945  23.885  0.00  0.00    -0.390 OA
ATOM     30  H   UNL     1      -5.478  -4.925  23.621  0.00  0.00    +0.210 HD
ENDBRANCH  11   2
BRANCH   5  13
ATOM     13  C   UNL     1      -5.174  -0.259  24.340  0.00  0.00    +0.120 C 
BRANCH  13  15
ATOM     15  C   UNL     1      -4.411   1.038  24.380  0.00  0.00    -0.033 A 
ATOM     16  C   UNL     1      -3.521   1.357  23.353  0.00  0.00    +0.007 A 
ATOM     17  C   UNL     1      -4.592   1.923  25.444  0.00  0.00    +0.007 A 
ATOM     19  C   UNL     1      -2.814   2.558  23.391  0.00  0.00    +0.023 A 
ATOM     20  C   UNL     1      -3.884   3.123  25.482  0.00  0.00    +0.023 A 
ATOM     21  C   UNL     1      -2.995   3.442  24.455  0.00  0.00    +0.033 A 
BRANCH  21   8
ATOM      4  O   UNL     1      -0.200   4.032  25.406  0.00  0.00    -0.276 OA
ATOM      8  N   UNL     1      -2.286   4.642  24.492  0.00  0.00    -0.286 N 
ATOM     27  C   UNL     1      -0.979   4.862  24.950  0.00  0.00    +0.214 C 
ATOM     29  C   UNL     1      -0.578   6.310  24.822  0.00  0.00    +0.109 C 
ATOM     31  H   UNL     1      -2.789   5.455  24.143  0.00  0.00    +0.155 HD
ENDBRANCH  21   8
ENDBRANCH  13  15
ENDBRANCH   5  13
TORSDOF 6
ENDMDL
MODEL 9
REMARK VINA RESULT:       3.5     14.078     16.619
REMARK  Name = 26744413
REMARK  7 active torsions:
REMARK  status: ('A' for Active; 'I' for Inactive)
REMARK    1  A    between atoms: O_2  and  C_11
REMARK    2  A    between atoms: N_5  and  C_13
REMARK    3  A    between atoms: N_8  and  C_21
REMARK    4  A    between atoms: C_9  and  C_14
REMARK    5  A    between atoms: C_13  and  C_15
REMARK    6  A    between atoms: C_18  and  C_22
REMARK    7  A    between atoms: C_27  and  C_29
REMARK                            x       y       z     vdW  Elec       q    Type
REMARK                         _______ _______ _______ _____ _____    ______ ____
ROOT
ATOM      5  N   UNL     1       2.596   1.278  23.662  0.00  0.00    -0.285 NA
ATOM      9  C   UNL     1       2.162   0.100  22.883  0.00  0.00    +0.149 C 
ATOM     10  C   UNL     1       3.408  -0.802  22.806  0.00  0.00    +0.061 C 
ATOM     11  C   UNL     1       4.502  -0.027  23.530  0.00  0.00    +0.130 C 
ATOM     12  C   UNL     1       4.034   1.413  23.441  0.00  0.00    +0.116 C 
ENDROOT
BRANCH   9  14
ATOM      3  O   UNL     1       1.193  -1.268  24.662  0.00  0.00    -0.336 OA
ATOM      6  N   UNL     1      -0.268  -0.659  23.077  0.00  0.00    -0.190 NA
ATOM      7  N   UNL     1      -0.037  -1.823  25.033  0.00  0.00    -0.056 NA
ATOM     14  C   UNL     1       0.969  -0.599  23.500  0.00  0.00    +0.245 A 
ATOM     18  C   UNL     1      -0.848  -1.421  24.050  0.00  0.00    +0.202 A 
BRANCH  18  22
ATOM      1  F   UNL     1      -6.250  -2.742  23.896  0.00  0.00    -0.205 F 
ATOM     22  C   UNL     1      -2.240  -1.761  24.011  0.00  0.00    +0.023 A 
ATOM     23  C   UNL     1      -2.632  -3.100  24.028  0.00  0.00    +0.014 A 
ATOM     24  C   UNL     1      -3.204  -0.754  23.954  0.00  0.00    +0.014 A 
ATOM     25  C   UNL     1      -3.987  -3.431  23.989  0.00  0.00    +0.039 A 
ATOM     26  C   UNL     1      -4.558  -1.085  23.917  0.00  0.00    +0.039 A 
ATOM     28  C   UNL     1      -4.950  -2.423  23.933  0.00  0.00    +0.123 A 
ENDBRANCH  18  22
ENDBRANCH   9  14
BRANCH  11   2
ATOM      2  O   UNL     1       5.752  -0.214  22.896  0.00  0.00    -0.390 OA
ATOM     30  H   UNL     1       5.944  -1.168  22.904  0.00  0.00    +0.210 HD
ENDBRANCH  11   2
BRANCH   5  13
ATOM     13  C   UNL     1       1.872   2.494  23.318  0.00  0.00    +0.120 C 
BRANCH  13  15
ATOM     15  C   UNL     1       0.506   2.531  23.950  0.00  0.00    -0.033 A 
ATOM     16  C   UNL     1      -0.624   2.750  23.161  0.00  0.00    +0.007 A 
ATOM     17  C   UNL     1       0.368   2.346  25.326  0.00  0.00    +0.007 A 
ATOM     19  C   UNL     1      -1.888   2.785  23.747  0.00  0.00    +0.023 A 
ATOM     20  C   UNL     1      -0.896   2.382  25.912  0.00  0.00    +0.023 A 
ATOM     21  C   UNL     1      -2.025   2.601  25.123  0.00  0.00    +0.033 A 
BRANCH  21   8
ATOM      4  O   UNL     1      -4.761   2.465  23.872  0.00  0.00    -0.276 OA
ATOM      8  N   UNL     1      -3.290   2.637  25.708  0.00  0.00    -0.286 N 
ATOM     27  C   UNL     1      -4.539   2.572  25.074  0.00  0.00    +0.214 C 
ATOM     29  C   UNL     1      -5.674   2.642  26.066  0.00  0.00    +0.109 C 
ATOM     31  H   UNL     1      -3.299   2.723  26.722  0.00  0.00    +0.155 HD
ENDBRANCH  21   8
ENDBRANCH  13  15
ENDBRANCH   5  13
TORSDOF 6
ENDMDL
MODEL 10
REMARK VINA RESULT:       3.9     14.592     17.097
REMARK  Name = 26744413
REMARK  7 active torsions:
REMARK  status: ('A' for Active; 'I' for Inactive)
REMARK    1  A    between atoms: O_2  and  C_11
REMARK    2  A    between atoms: N_5  and  C_13
REMARK    3  A    between atoms: N_8  and  C_21
REMARK    4  A    between atoms: C_9  and  C_14
REMARK    5  A    between atoms: C_13  and  C_15
REMARK    6  A    between atoms: C_18  and  C_22
REMARK    7  A    between atoms: C_27  and  C_29
REMARK                            x       y       z     vdW  Elec       q    Type
REMARK                         _______ _______ _______ _____ _____    ______ ____
ROOT
ATOM      5  N   UNL     1      -2.922  -1.631  23.684  0.00  0.00    -0.285 NA
ATOM      9  C   UNL     1      -1.923  -1.013  24.579  0.00  0.00    +0.149 C 
ATOM     10  C   UNL     1      -1.751  -2.020  25.732  0.00  0.00    +0.061 C 
ATOM     11  C   UNL     1      -2.728  -3.147  25.420  0.00  0.00    +0.130 C 
ATOM     12  C   UNL     1      -3.758  -2.486  24.524  0.00  0.00    +0.116 C 
ENDROOT
BRANCH   9  14
ATOM      3  O   UNL     1      -0.710  -0.343  22.565  0.00  0.00    -0.336 OA
ATOM      6  N   UNL     1       0.604  -0.734  24.336  0.00  0.00    -0.190 NA
ATOM      7  N   UNL     1       0.602  -0.112  22.134  0.00  0.00    -0.056 NA
ATOM     14  C   UNL     1      -0.619  -0.705  23.872  0.00  0.00    +0.245 A 
ATOM     18  C   UNL     1       1.319  -0.363  23.235  0.00  0.00    +0.202 A 
BRANCH  18  22
ATOM      1  F   UNL     1       6.864   0.067  23.357  0.00  0.00    -0.205 F 
ATOM     22  C   UNL     1       2.748  -0.252  23.266  0.00  0.00    +0.023 A 
ATOM     23  C   UNL     1       3.520  -1.314  23.738  0.00  0.00    +0.014 A 
ATOM     24  C   UNL     1       3.367   0.917  22.824  0.00  0.00    +0.014 A 
ATOM     25  C   UNL     1       4.911  -1.206  23.769  0.00  0.00    +0.039 A 
ATOM     26  C   UNL     1       4.758   1.025  22.854  0.00  0.00    +0.039 A 
ATOM     28  C   UNL     1       5.529  -0.036  23.327  0.00  0.00    +0.123 A 
ENDBRANCH  18  22
ENDBRANCH   9  14
BRANCH  11   2
ATOM      2  O   UNL     1      -3.310  -3.649  26.607  0.00  0.00    -0.390 OA
ATOM     30  H   UNL     1      -2.732  -4.358  26.939  0.00  0.00    +0.210 HD
ENDBRANCH  11   2
BRANCH   5  13
ATOM     13  C   UNL     1      -3.708  -0.656  22.940  0.00  0.00    +0.120 C 
BRANCH  13  15
ATOM     15  C   UNL     1      -3.481   0.746  23.439  0.00  0.00    -0.033 A 
ATOM     16  C   UNL     1      -2.624   1.603  22.747  0.00  0.00    +0.007 A 
ATOM     17  C   UNL     1      -4.127   1.190  24.593  0.00  0.00    +0.007 A 
ATOM     19  C   UNL     1      -2.413   2.901  23.210  0.00  0.00    +0.023 A 
ATOM     20  C   UNL     1      -3.915   2.488  25.056  0.00  0.00    +0.023 A 
ATOM     21  C   UNL     1      -3.058   3.345  24.365  0.00  0.00    +0.033 A 
BRANCH  21   8
ATOM      4  O   UNL     1      -0.506   4.906  24.698  0.00  0.00    -0.276 OA
ATOM      8  N   UNL     1      -2.846   4.643  24.827  0.00  0.00    -0.286 N 
ATOM     27  C   UNL     1      -1.628   5.324  24.964  0.00  0.00    +0.214 C 
ATOM     29  C   UNL     1      -1.826   6.719  25.502  0.00  0.00    +0.109 C 
ATOM     31  H   UNL     1      -3.685   5.151  25.098  0.00  0.00    +0.155 HD
ENDBRANCH  21   8
ENDBRANCH  13  15
ENDBRANCH   5  13
TORSDOF 6
ENDMDL
