MODEL 1
REMARK VINA RESULT:      -1.6      0.000      0.000
REMARK  Name = 26743636
REMARK  5 active torsions:
REMARK  status: ('A' for Active; 'I' for Inactive)
REMARK    1  A    between atoms: O_5  and  C_14
REMARK    2  A    between atoms: N_7  and  C_10
REMARK    3  A    between atoms: C_11  and  C_17
REMARK    4  A    between atoms: C_20  and  C_21
REMARK    5  A    between atoms: C_26  and  C_27
REMARK                            x       y       z     vdW  Elec       q    Type
REMARK                         _______ _______ _______ _____ _____    ______ ____
ROOT
ATOM      6  O   UNL     1      -1.925   3.194  23.668  0.00  0.00    -0.336 OA
ATOM      8  N   UNL     1      -1.492   1.019  23.986  0.00  0.00    -0.190 NA
ATOM      9  N   UNL     1      -0.543   3.040  23.491  0.00  0.00    -0.056 NA
ATOM     17  C   UNL     1      -2.406   1.955  23.957  0.00  0.00    +0.245 A 
ATOM     20  C   UNL     1      -0.366   1.732  23.694  0.00  0.00    +0.202 A 
ENDROOT
BRANCH  20  21
ATOM     21  C   UNL     1       0.922   1.106  23.615  0.00  0.00    +0.022 A 
ATOM     22  C   UNL     1       1.037  -0.275  23.772  0.00  0.00    +0.012 A 
ATOM     23  C   UNL     1       2.059   1.879  23.381  0.00  0.00    +0.012 A 
ATOM     24  C   UNL     1       2.290  -0.884  23.695  0.00  0.00    +0.013 A 
ATOM     25  C   UNL     1       3.313   1.271  23.303  0.00  0.00    +0.013 A 
ATOM     26  C   UNL     1       3.428  -0.111  23.460  0.00  0.00    +0.055 A 
BRANCH  26  27
ATOM      1  F   UNL     1       4.710  -2.121  23.271  0.00  0.00    -0.166 F 
ATOM      2  F   UNL     1       5.540  -0.512  24.475  0.00  0.00    -0.166 F 
ATOM      3  F   UNL     1       5.510  -0.351  22.307  0.00  0.00    -0.166 F 
ATOM     27  C   UNL     1       4.767  -0.761  23.377  0.00  0.00    +0.417 C 
ENDBRANCH  26  27
ENDBRANCH  20  21
BRANCH  17  11
ATOM      7  N   UNL     1      -4.225   1.126  25.440  0.00  0.00    -0.286 NA
ATOM     11  C   UNL     1      -3.898   1.851  24.195  0.00  0.00    +0.149 C 
ATOM     12  C   UNL     1      -5.493   1.675  25.917  0.00  0.00    +0.116 C 
ATOM     13  C   UNL     1      -4.574   3.226  24.350  0.00  0.00    +0.061 C 
ATOM     14  C   UNL     1      -5.294   3.161  25.691  0.00  0.00    +0.130 C 
BRANCH   7  10
ATOM      4  O   UNL     1      -3.076  -2.736  24.261  0.00  0.00    -0.380 OA
ATOM     10  C   UNL     1      -4.285  -0.323  25.263  0.00  0.00    +0.062 C 
ATOM     15  C   UNL     1      -4.275  -0.679  23.774  0.00  0.00    +0.047 C 
ATOM     16  C   UNL     1      -3.116  -1.014  25.975  0.00  0.00    +0.047 C 
ATOM     18  C   UNL     1      -4.212  -2.191  23.590  0.00  0.00    +0.161 C 
ATOM     19  C   UNL     1      -3.119  -2.507  25.669  0.00  0.00    +0.161 C 
ENDBRANCH   7  10
BRANCH  14   5
ATOM      5  O   UNL     1      -6.526   3.853  25.633  0.00  0.00    -0.390 OA
ATOM     28  H   UNL     1      -6.787   4.063  26.547  0.00  0.00    +0.210 HD
ENDBRANCH  14   5
ENDBRANCH  17  11
TORSDOF 5
ENDMDL
MODEL 2
REMARK VINA RESULT:      -0.0      1.479      3.617
REMARK  Name = 26743636
REMARK  5 active torsions:
REMARK  status: ('A' for Active; 'I' for Inactive)
REMARK    1  A    between atoms: O_5  and  C_14
REMARK    2  A    between atoms: N_7  and  C_10
REMARK    3  A    between atoms: C_11  and  C_17
REMARK    4  A    between atoms: C_20  and  C_21
REMARK    5  A    between atoms: C_26  and  C_27
REMARK                            x       y       z     vdW  Elec       q    Type
REMARK                         _______ _______ _______ _____ _____    ______ ____
ROOT
ATOM      6  O   UNL     1      -1.150   0.717  23.093  0.00  0.00    -0.336 OA
ATOM      8  N   UNL     1       0.101  -0.667  24.332  0.00  0.00    -0.190 NA
ATOM      9  N   UNL     1       0.179   0.951  22.717  0.00  0.00    -0.056 NA
ATOM     17  C   UNL     1      -1.107  -0.249  24.048  0.00  0.00    +0.245 A 
ATOM     20  C   UNL     1       0.856   0.098  23.492  0.00  0.00    +0.202 A 
ENDROOT
BRANCH  20  21
ATOM     21  C   UNL     1       2.285  -0.014  23.451  0.00  0.00    +0.022 A 
ATOM     22  C   UNL     1       2.901  -1.216  23.799  0.00  0.00    +0.012 A 
ATOM     23  C   UNL     1       3.059   1.079  23.062  0.00  0.00    +0.012 A 
ATOM     24  C   UNL     1       4.291  -1.325  23.760  0.00  0.00    +0.013 A 
ATOM     25  C   UNL     1       4.450   0.971  23.022  0.00  0.00    +0.013 A 
ATOM     26  C   UNL     1       5.065  -0.232  23.371  0.00  0.00    +0.055 A 
BRANCH  26  27
ATOM      1  F   UNL     1       7.023  -0.922  22.183  0.00  0.00    -0.166 F 
ATOM      2  F   UNL     1       7.048  -1.106  24.348  0.00  0.00    -0.166 F 
ATOM      3  F   UNL     1       7.197   0.852  23.417  0.00  0.00    -0.166 F 
ATOM     27  C   UNL     1       6.551  -0.348  23.328  0.00  0.00    +0.417 C 
ENDBRANCH  26  27
ENDBRANCH  20  21
BRANCH  17  11
ATOM      7  N   UNL     1      -3.571   0.096  24.096  0.00  0.00    -0.286 NA
ATOM     11  C   UNL     1      -2.436  -0.687  24.625  0.00  0.00    +0.149 C 
ATOM     12  C   UNL     1      -4.733  -0.790  24.120  0.00  0.00    +0.116 C 
ATOM     13  C   UNL     1      -2.778  -2.151  24.289  0.00  0.00    +0.061 C 
ATOM     14  C   UNL     1      -4.142  -2.092  23.615  0.00  0.00    +0.130 C 
BRANCH   7  10
ATOM      4  O   UNL     1      -5.224   3.830  25.070  0.00  0.00    -0.380 OA
ATOM     10  C   UNL     1      -3.809   1.335  24.834  0.00  0.00    +0.062 C 
ATOM     15  C   UNL     1      -3.486   2.548  23.956  0.00  0.00    +0.047 C 
ATOM     16  C   UNL     1      -5.258   1.414  25.325  0.00  0.00    +0.047 C 
ATOM     18  C   UNL     1      -3.850   3.838  24.682  0.00  0.00    +0.161 C 
ATOM     19  C   UNL     1      -5.523   2.767  25.975  0.00  0.00    +0.161 C 
ENDBRANCH   7  10
BRANCH  14   5
ATOM      5  O   UNL     1      -4.933  -3.205  23.984  0.00  0.00    -0.390 OA
ATOM     28  H   UNL     1      -5.857  -2.991  23.770  0.00  0.00    +0.210 HD
ENDBRANCH  14   5
ENDBRANCH  17  11
TORSDOF 5
ENDMDL
MODEL 3
REMARK VINA RESULT:       0.7      1.583      2.082
REMARK  Name = 26743636
REMARK  5 active torsions:
REMARK  status: ('A' for Active; 'I' for Inactive)
REMARK    1  A    between atoms: O_5  and  C_14
REMARK    2  A    between atoms: N_7  and  C_10
REMARK    3  A    between atoms: C_11  and  C_17
REMARK    4  A    between atoms: C_20  and  C_21
REMARK    5  A    between atoms: C_26  and  C_27
REMARK                            x       y       z     vdW  Elec       q    Type
REMARK                         _______ _______ _______ _____ _____    ______ ____
ROOT
ATOM      6  O   UNL     1      -1.014  -0.065  22.340  0.00  0.00    -0.336 OA
ATOM      8  N   UNL     1       0.270   1.041  23.806  0.00  0.00    -0.190 NA
ATOM      9  N   UNL     1       0.299  -0.501  22.116  0.00  0.00    -0.056 NA
ATOM     17  C   UNL     1      -0.941   0.842  23.351  0.00  0.00    +0.245 A 
ATOM     20  C   UNL     1       0.996   0.196  23.018  0.00  0.00    +0.202 A 
ENDROOT
BRANCH  20  21
ATOM     21  C   UNL     1       2.419   0.072  23.158  0.00  0.00    +0.022 A 
ATOM     22  C   UNL     1       2.975  -1.133  23.585  0.00  0.00    +0.012 A 
ATOM     23  C   UNL     1       3.244   1.157  22.866  0.00  0.00    +0.012 A 
ATOM     24  C   UNL     1       4.358  -1.254  23.721  0.00  0.00    +0.013 A 
ATOM     25  C   UNL     1       4.628   1.038  23.001  0.00  0.00    +0.013 A 
ATOM     26  C   UNL     1       5.184  -0.168  23.429  0.00  0.00    +0.055 A 
BRANCH  26  27
ATOM      1  F   UNL     1       7.044  -1.105  24.605  0.00  0.00    -0.166 F 
ATOM      2  F   UNL     1       7.273   0.903  23.804  0.00  0.00    -0.166 F 
ATOM      3  F   UNL     1       7.278  -0.812  22.469  0.00  0.00    -0.166 F 
ATOM     27  C   UNL     1       6.663  -0.296  23.573  0.00  0.00    +0.417 C 
ENDBRANCH  26  27
ENDBRANCH  20  21
BRANCH  17  11
ATOM      7  N   UNL     1      -2.645   1.065  25.151  0.00  0.00    -0.286 NA
ATOM     11  C   UNL     1      -2.247   1.471  23.787  0.00  0.00    +0.149 C 
ATOM     12  C   UNL     1      -3.416   2.176  25.705  0.00  0.00    +0.116 C 
ATOM     13  C   UNL     1      -2.181   3.009  23.838  0.00  0.00    +0.061 C 
ATOM     14  C   UNL     1      -2.602   3.374  25.256  0.00  0.00    +0.130 C 
BRANCH   7  10
ATOM      4  O   UNL     1      -3.676  -2.913  24.286  0.00  0.00    -0.380 OA
ATOM     10  C   UNL     1      -3.392  -0.192  25.182  0.00  0.00    +0.062 C 
ATOM     15  C   UNL     1      -3.896  -0.546  23.780  0.00  0.00    +0.047 C 
ATOM     16  C   UNL     1      -2.528  -1.332  25.731  0.00  0.00    +0.047 C 
ATOM     18  C   UNL     1      -4.568  -1.915  23.788  0.00  0.00    +0.161 C 
ATOM     19  C   UNL     1      -3.276  -2.657  25.632  0.00  0.00    +0.161 C 
ENDBRANCH   7  10
BRANCH  14   5
ATOM      5  O   UNL     1      -3.369   4.562  25.261  0.00  0.00    -0.390 OA
ATOM     28  H   UNL     1      -4.302   4.308  25.154  0.00  0.00    +0.210 HD
ENDBRANCH  14   5
ENDBRANCH  17  11
TORSDOF 5
ENDMDL
MODEL 4
REMARK VINA RESULT:       2.2      1.870      3.893
REMARK  Name = 26743636
REMARK  5 active torsions:
REMARK  status: ('A' for Active; 'I' for Inactive)
REMARK    1  A    between atoms: O_5  and  C_14
REMARK    2  A    between atoms: N_7  and  C_10
REMARK    3  A    between atoms: C_11  and  C_17
REMARK    4  A    between atoms: C_20  and  C_21
REMARK    5  A    between atoms: C_26  and  C_27
REMARK                            x       y       z     vdW  Elec       q    Type
REMARK                         _______ _______ _______ _____ _____    ______ ____
ROOT
ATOM      6  O   UNL     1      -1.888  -1.137  24.005  0.00  0.00    -0.336 OA
ATOM      8  N   UNL     1      -0.539   0.545  24.613  0.00  0.00    -0.190 NA
ATOM      9  N   UNL     1      -0.601  -1.496  23.582  0.00  0.00    -0.056 NA
ATOM     17  C   UNL     1      -1.762   0.078  24.603  0.00  0.00    +0.245 A 
ATOM     20  C   UNL     1       0.137  -0.454  23.976  0.00  0.00    +0.202 A 
ENDROOT
BRANCH  20  21
ATOM     21  C   UNL     1       1.552  -0.380  23.749  0.00  0.00    +0.022 A 
ATOM     22  C   UNL     1       2.113   0.782  23.222  0.00  0.00    +0.012 A 
ATOM     23  C   UNL     1       2.364  -1.472  24.055  0.00  0.00    +0.012 A 
ATOM     24  C   UNL     1       3.489   0.854  23.001  0.00  0.00    +0.013 A 
ATOM     25  C   UNL     1       3.740  -1.400  23.834  0.00  0.00    +0.013 A 
ATOM     26  C   UNL     1       4.302  -0.237  23.307  0.00  0.00    +0.055 A 
BRANCH  26  27
ATOM      1  F   UNL     1       6.118  -0.197  21.751  0.00  0.00    -0.166 F 
ATOM      2  F   UNL     1       6.452  -1.192  23.655  0.00  0.00    -0.166 F 
ATOM      3  F   UNL     1       6.347   0.978  23.559  0.00  0.00    -0.166 F 
ATOM     27  C   UNL     1       5.772  -0.161  23.071  0.00  0.00    +0.417 C 
ENDBRANCH  26  27
ENDBRANCH  20  21
BRANCH  17  11
ATOM      7  N   UNL     1      -3.328   2.012  24.560  0.00  0.00    -0.286 NA
ATOM     11  C   UNL     1      -3.030   0.693  25.154  0.00  0.00    +0.149 C 
ATOM     12  C   UNL     1      -4.782   2.158  24.582  0.00  0.00    +0.116 C 
ATOM     13  C   UNL     1      -4.280  -0.160  24.866  0.00  0.00    +0.061 C 
ATOM     14  C   UNL     1      -5.240   0.779  24.147  0.00  0.00    +0.130 C 
BRANCH   7  10
ATOM      4  O   UNL     1      -1.821   5.871  25.241  0.00  0.00    -0.380 OA
ATOM     10  C   UNL     1      -2.654   3.115  25.241  0.00  0.00    +0.062 C 
ATOM     15  C   UNL     1      -1.473   3.616  24.404  0.00  0.00    +0.047 C 
ATOM     16  C   UNL     1      -3.625   4.267  25.518  0.00  0.00    +0.047 C 
ATOM     18  C   UNL     1      -0.846   4.844  25.054  0.00  0.00    +0.161 C 
ATOM     19  C   UNL     1      -2.879   5.459  26.106  0.00  0.00    +0.161 C 
ENDBRANCH   7  10
BRANCH  14   5
ATOM      5  O   UNL     1      -6.576   0.524  24.534  0.00  0.00    -0.390 OA
ATOM     28  H   UNL     1      -7.059   1.367  24.494  0.00  0.00    +0.210 HD
ENDBRANCH  14   5
ENDBRANCH  17  11
TORSDOF 5
ENDMDL
