MODEL 1
REMARK VINA RESULT:       4.9      0.000      0.000
REMARK  Name = 40778178
REMARK  10 active torsions:
REMARK  status: ('A' for Active; 'I' for Inactive)
REMARK    1  A    between atoms: O_3  and  C_12
REMARK    2  A    between atoms: O_4  and  C_13
REMARK    3  A    between atoms: O_7  and  C_34
REMARK    4  A    between atoms: O_7  and  C_35
REMARK    5  A    between atoms: N_9  and  C_22
REMARK    6  A    between atoms: N_10  and  C_16
REMARK    7  A    between atoms: C_11  and  C_15
REMARK    8  A    between atoms: C_14  and  C_16
REMARK    9  A    between atoms: C_15  and  C_17
REMARK   10  A    between atoms: C_23  and  C_26
REMARK                            x       y       z     vdW  Elec       q    Type
REMARK                         _______ _______ _______ _____ _____    ______ ____
ROOT
ATOM      2  O   UNL     1      -4.450   1.691  23.769  0.00  0.00    -0.366 OA
ATOM     11  C   UNL     1      -5.174   0.784  24.632  0.00  0.00    +0.159 C 
ATOM     12  C   UNL     1      -6.081   1.649  25.501  0.00  0.00    +0.175 C 
ATOM     13  C   UNL     1      -5.305   2.947  25.573  0.00  0.00    +0.176 C 
ATOM     14  C   UNL     1      -4.741   3.043  24.166  0.00  0.00    +0.167 C 
ENDROOT
BRANCH  12   3
ATOM      3  O   UNL     1      -7.308   1.843  24.801  0.00  0.00    -0.387 OA
ATOM     36  H   UNL     1      -7.674   2.699  25.085  0.00  0.00    +0.210 HD
ENDBRANCH  12   3
BRANCH  13   4
ATOM      4  O   UNL     1      -6.108   4.060  25.900  0.00  0.00    -0.387 OA
ATOM     37  H   UNL     1      -5.541   4.849  25.862  0.00  0.00    +0.210 HD
ENDBRANCH  13   4
BRANCH  11  15
ATOM     15  C   UNL     1      -4.151  -0.005  25.439  0.00  0.00    +0.130 C 
BRANCH  15  17
ATOM      5  O   UNL     1      -4.136  -1.906  24.016  0.00  0.00    -0.276 OA
ATOM      8  N   UNL     1      -2.088  -0.880  24.408  0.00  0.00    -0.298 N 
ATOM      9  N   UNL     1       0.737  -0.555  23.860  0.00  0.00    -0.327 N 
ATOM     17  C   UNL     1      -3.468  -1.019  24.555  0.00  0.00    +0.218 C 
ATOM     18  C   UNL     1      -1.296   0.174  25.048  0.00  0.00    +0.126 C 
ATOM     19  C   UNL     1      -1.356  -1.819  23.561  0.00  0.00    +0.126 C 
ATOM     20  C   UNL     1       0.184  -0.188  25.167  0.00  0.00    +0.124 C 
ATOM     21  C   UNL     1      -0.164  -1.158  22.873  0.00  0.00    +0.124 C 
BRANCH   9  22
ATOM      1  F   UNL     1       6.089   0.174  22.718  0.00  0.00    -0.205 F 
ATOM     22  C   UNL     1       2.087  -0.372  23.572  0.00  0.00    +0.030 A 
ATOM     24  C   UNL     1       2.524   0.833  23.022  0.00  0.00    +0.026 A 
ATOM     25  C   UNL     1       3.001  -1.392  23.834  0.00  0.00    +0.026 A 
ATOM     27  C   UNL     1       3.877   1.017  22.733  0.00  0.00    +0.040 A 
ATOM     28  C   UNL     1       4.353  -1.208  23.546  0.00  0.00    +0.040 A 
ATOM     29  C   UNL     1       4.791  -0.004  22.996  0.00  0.00    +0.124 A 
ENDBRANCH   9  22
ENDBRANCH  15  17
ENDBRANCH  11  15
BRANCH  14  16
ATOM     16  C   UNL     1      -3.479   3.883  24.079  0.00  0.00    +0.138 C 
BRANCH  16  10
ATOM      6  O   UNL     1      -0.634   3.530  23.924  0.00  0.00    -0.270 OA
ATOM     10  N   UNL     1      -2.592   3.599  25.167  0.00  0.00    -0.309 N 
ATOM     23  C   UNL     1      -1.218   3.443  25.000  0.00  0.00    +0.244 C 
ATOM     38  H   UNL     1      -3.001   3.567  26.095  0.00  0.00    +0.149 HD
BRANCH  23  26
ATOM     26  C   UNL     1      -0.439   3.125  26.225  0.00  0.00    +0.037 A 
ATOM     30  C   UNL     1      -1.095   2.967  27.446  0.00  0.00    +0.016 A 
ATOM     31  C   UNL     1       0.947   2.987  26.155  0.00  0.00    +0.016 A 
ATOM     32  C   UNL     1      -0.364   2.670  28.596  0.00  0.00    +0.046 A 
ATOM     33  C   UNL     1       1.678   2.691  27.305  0.00  0.00    +0.046 A 
ATOM     34  C   UNL     1       1.023   2.531  28.526  0.00  0.00    +0.120 A 
BRANCH  34   7
ATOM      7  O   UNL     1       1.736   2.241  29.648  0.00  0.00    -0.495 OA
ATOM     35  C   UNL     1       1.040   2.301  30.893  0.00  0.00    +0.277 C 
ENDBRANCH  34   7
ENDBRANCH  23  26
ENDBRANCH  16  10
ENDBRANCH  14  16
TORSDOF 9
ENDMDL
MODEL 2
REMARK VINA RESULT:       7.3      2.680      4.755
REMARK  Name = 40778178
REMARK  10 active torsions:
REMARK  status: ('A' for Active; 'I' for Inactive)
REMARK    1  A    between atoms: O_3  and  C_12
REMARK    2  A    between atoms: O_4  and  C_13
REMARK    3  A    between atoms: O_7  and  C_34
REMARK    4  A    between atoms: O_7  and  C_35
REMARK    5  A    between atoms: N_9  and  C_22
REMARK    6  A    between atoms: N_10  and  C_16
REMARK    7  A    between atoms: C_11  and  C_15
REMARK    8  A    between atoms: C_14  and  C_16
REMARK    9  A    between atoms: C_15  and  C_17
REMARK   10  A    between atoms: C_23  and  C_26
REMARK                            x       y       z     vdW  Elec       q    Type
REMARK                         _______ _______ _______ _____ _____    ______ ____
ROOT
ATOM      2  O   UNL     1      -3.831   2.531  25.469  0.00  0.00    -0.366 OA
ATOM     11  C   UNL     1      -3.147   3.723  25.019  0.00  0.00    +0.159 C 
ATOM     12  C   UNL     1      -4.092   4.889  25.289  0.00  0.00    +0.175 C 
ATOM     13  C   UNL     1      -5.449   4.225  25.194  0.00  0.00    +0.176 C 
ATOM     14  C   UNL     1      -5.176   2.879  25.844  0.00  0.00    +0.167 C 
ENDROOT
BRANCH  12   3
ATOM      3  O   UNL     1      -3.858   5.348  26.620  0.00  0.00    -0.387 OA
ATOM     36  H   UNL     1      -4.079   6.294  26.645  0.00  0.00    +0.210 HD
ENDBRANCH  12   3
BRANCH  13   4
ATOM      4  O   UNL     1      -6.469   4.938  25.859  0.00  0.00    -0.387 OA
ATOM     37  H   UNL     1      -6.433   4.690  26.799  0.00  0.00    +0.210 HD
ENDBRANCH  13   4
BRANCH  11  15
ATOM     15  C   UNL     1      -2.830   3.545  23.540  0.00  0.00    +0.130 C 
BRANCH  15  17
ATOM      5  O   UNL     1      -3.485   1.351  22.912  0.00  0.00    -0.276 OA
ATOM      8  N   UNL     1      -1.232   1.673  23.376  0.00  0.00    -0.298 N 
ATOM      9  N   UNL     1       1.513   0.751  23.407  0.00  0.00    -0.327 N 
ATOM     17  C   UNL     1      -2.555   2.091  23.244  0.00  0.00    +0.218 C 
ATOM     18  C   UNL     1      -0.128   2.553  23.771  0.00  0.00    +0.126 C 
ATOM     19  C   UNL     1      -0.885   0.281  23.100  0.00  0.00    +0.126 C 
ATOM     20  C   UNL     1       1.065   1.787  24.342  0.00  0.00    +0.124 C 
ATOM     21  C   UNL     1       0.520   0.147  22.514  0.00  0.00    +0.124 C 
BRANCH   9  22
ATOM      1  F   UNL     1       6.767  -0.946  23.333  0.00  0.00    -0.205 F 
ATOM     22  C   UNL     1       2.838   0.324  23.388  0.00  0.00    +0.030 A 
ATOM     24  C   UNL     1       3.148  -0.998  23.710  0.00  0.00    +0.026 A 
ATOM     25  C   UNL     1       3.855   1.216  23.048  0.00  0.00    +0.026 A 
ATOM     27  C   UNL     1       4.476  -1.427  23.691  0.00  0.00    +0.040 A 
ATOM     28  C   UNL     1       5.182   0.787  23.029  0.00  0.00    +0.040 A 
ATOM     29  C   UNL     1       5.493  -0.534  23.350  0.00  0.00    +0.124 A 
ENDBRANCH   9  22
ENDBRANCH  15  17
ENDBRANCH  11  15
BRANCH  14  16
ATOM     16  C   UNL     1      -6.130   1.787  25.393  0.00  0.00    +0.138 C 
BRANCH  16  10
ATOM      6  O   UNL     1      -4.411   0.036  26.883  0.00  0.00    -0.270 OA
ATOM     10  N   UNL     1      -5.416   0.654  24.885  0.00  0.00    -0.309 N 
ATOM     23  C   UNL     1      -4.601  -0.144  25.683  0.00  0.00    +0.244 C 
ATOM     38  H   UNL     1      -5.571   0.414  23.911  0.00  0.00    +0.149 HD
BRANCH  23  26
ATOM     26  C   UNL     1      -3.909  -1.268  25.000  0.00  0.00    +0.037 A 
ATOM     30  C   UNL     1      -2.653  -1.685  25.442  0.00  0.00    +0.016 A 
ATOM     31  C   UNL     1      -4.513  -1.904  23.915  0.00  0.00    +0.016 A 
ATOM     32  C   UNL     1      -2.003  -2.739  24.800  0.00  0.00    +0.046 A 
ATOM     33  C   UNL     1      -3.863  -2.957  23.273  0.00  0.00    +0.046 A 
ATOM     34  C   UNL     1      -2.607  -3.376  23.716  0.00  0.00    +0.120 A 
BRANCH  34   7
ATOM      7  O   UNL     1      -1.974  -4.404  23.090  0.00  0.00    -0.495 OA
ATOM     35  C   UNL     1      -0.779  -4.090  22.375  0.00  0.00    +0.277 C 
ENDBRANCH  34   7
ENDBRANCH  23  26
ENDBRANCH  16  10
ENDBRANCH  14  16
TORSDOF 9
ENDMDL
MODEL 3
REMARK VINA RESULT:       8.4      1.472      2.071
REMARK  Name = 40778178
REMARK  10 active torsions:
REMARK  status: ('A' for Active; 'I' for Inactive)
REMARK    1  A    between atoms: O_3  and  C_12
REMARK    2  A    between atoms: O_4  and  C_13
REMARK    3  A    between atoms: O_7  and  C_34
REMARK    4  A    between atoms: O_7  and  C_35
REMARK    5  A    between atoms: N_9  and  C_22
REMARK    6  A    between atoms: N_10  and  C_16
REMARK    7  A    between atoms: C_11  and  C_15
REMARK    8  A    between atoms: C_14  and  C_16
REMARK    9  A    between atoms: C_15  and  C_17
REMARK   10  A    between atoms: C_23  and  C_26
REMARK                            x       y       z     vdW  Elec       q    Type
REMARK                         _______ _______ _______ _____ _____    ______ ____
ROOT
ATOM      2  O   UNL     1      -4.984   2.864  24.157  0.00  0.00    -0.366 OA
ATOM     11  C   UNL     1      -5.084   1.422  24.153  0.00  0.00    +0.159 C 
ATOM     12  C   UNL     1      -6.006   1.052  25.310  0.00  0.00    +0.175 C 
ATOM     13  C   UNL     1      -5.777   2.195  26.275  0.00  0.00    +0.176 C 
ATOM     14  C   UNL     1      -5.651   3.375  25.325  0.00  0.00    +0.167 C 
ENDROOT
BRANCH  12   3
ATOM      3  O   UNL     1      -7.349   1.072  24.828  0.00  0.00    -0.387 OA
ATOM     36  H   UNL     1      -7.615   2.004  24.745  0.00  0.00    +0.210 HD
ENDBRANCH  12   3
BRANCH  13   4
ATOM      4  O   UNL     1      -6.831   2.369  27.197  0.00  0.00    -0.387 OA
ATOM     37  H   UNL     1      -7.034   1.496  27.576  0.00  0.00    +0.210 HD
ENDBRANCH  13   4
BRANCH  11  15
ATOM     15  C   UNL     1      -3.678   0.858  24.309  0.00  0.00    +0.130 C 
BRANCH  15  17
ATOM      5  O   UNL     1      -3.190   2.353  22.530  0.00  0.00    -0.276 OA
ATOM      8  N   UNL     1      -1.433   1.048  23.305  0.00  0.00    -0.298 N 
ATOM      9  N   UNL     1       1.378   0.353  23.376  0.00  0.00    -0.327 N 
ATOM     17  C   UNL     1      -2.753   1.494  23.300  0.00  0.00    +0.218 C 
ATOM     18  C   UNL     1      -0.915   0.026  24.220  0.00  0.00    +0.126 C 
ATOM     19  C   UNL     1      -0.475   1.620  22.362  0.00  0.00    +0.126 C 
ATOM     20  C   UNL     1       0.355  -0.646  23.698  0.00  0.00    +0.124 C 
ATOM     21  C   UNL     1       0.935   1.682  22.947  0.00  0.00    +0.124 C 
BRANCH   9  22
ATOM      1  F   UNL     1       6.753  -0.885  23.629  0.00  0.00    -0.205 F 
ATOM     22  C   UNL     1       2.733   0.041  23.440  0.00  0.00    +0.030 A 
ATOM     24  C   UNL     1       3.136  -1.253  23.768  0.00  0.00    +0.026 A 
ATOM     25  C   UNL     1       3.688   1.023  23.176  0.00  0.00    +0.026 A 
ATOM     27  C   UNL     1       4.494  -1.566  23.832  0.00  0.00    +0.040 A 
ATOM     28  C   UNL     1       5.046   0.710  23.240  0.00  0.00    +0.040 A 
ATOM     29  C   UNL     1       5.449  -0.584  23.567  0.00  0.00    +0.124 A 
ENDBRANCH   9  22
ENDBRANCH  15  17
ENDBRANCH  11  15
BRANCH  14  16
ATOM     16  C   UNL     1      -4.854   4.531  25.903  0.00  0.00    +0.138 C 
BRANCH  16  10
ATOM      6  O   UNL     1      -2.325   4.419  24.548  0.00  0.00    -0.270 OA
ATOM     10  N   UNL     1      -3.610   4.079  26.451  0.00  0.00    -0.309 N 
ATOM     23  C   UNL     1      -2.425   4.059  25.718  0.00  0.00    +0.244 C 
ATOM     38  H   UNL     1      -3.609   3.819  27.431  0.00  0.00    +0.149 HD
BRANCH  23  26
ATOM     26  C   UNL     1      -1.225   3.538  26.423  0.00  0.00    +0.037 A 
ATOM     30  C   UNL     1      -0.039   3.332  25.719  0.00  0.00    +0.016 A 
ATOM     31  C   UNL     1      -1.285   3.254  27.787  0.00  0.00    +0.016 A 
ATOM     32  C   UNL     1       1.088   2.843  26.380  0.00  0.00    +0.046 A 
ATOM     33  C   UNL     1      -0.159   2.764  28.448  0.00  0.00    +0.046 A 
ATOM     34  C   UNL     1       1.028   2.558  27.745  0.00  0.00    +0.120 A 
BRANCH  34   7
ATOM      7  O   UNL     1       2.126   2.081  28.390  0.00  0.00    -0.495 OA
ATOM     35  C   UNL     1       2.106   2.114  29.817  0.00  0.00    +0.277 C 
ENDBRANCH  34   7
ENDBRANCH  23  26
ENDBRANCH  16  10
ENDBRANCH  14  16
TORSDOF 9
ENDMDL
MODEL 4
REMARK VINA RESULT:       8.7      3.094      5.953
REMARK  Name = 40778178
REMARK  10 active torsions:
REMARK  status: ('A' for Active; 'I' for Inactive)
REMARK    1  A    between atoms: O_3  and  C_12
REMARK    2  A    between atoms: O_4  and  C_13
REMARK    3  A    between atoms: O_7  and  C_34
REMARK    4  A    between atoms: O_7  and  C_35
REMARK    5  A    between atoms: N_9  and  C_22
REMARK    6  A    between atoms: N_10  and  C_16
REMARK    7  A    between atoms: C_11  and  C_15
REMARK    8  A    between atoms: C_14  and  C_16
REMARK    9  A    between atoms: C_15  and  C_17
REMARK   10  A    between atoms: C_23  and  C_26
REMARK                            x       y       z     vdW  Elec       q    Type
REMARK                         _______ _______ _______ _____ _____    ______ ____
ROOT
ATOM      2  O   UNL     1      -3.388   4.216  24.130  0.00  0.00    -0.366 OA
ATOM     11  C   UNL     1      -3.337   5.094  25.278  0.00  0.00    +0.159 C 
ATOM     12  C   UNL     1      -1.862   5.397  25.522  0.00  0.00    +0.175 C 
ATOM     13  C   UNL     1      -1.191   4.152  24.985  0.00  0.00    +0.176 C 
ATOM     14  C   UNL     1      -2.046   3.846  23.767  0.00  0.00    +0.167 C 
ENDROOT
BRANCH  12   3
ATOM      3  O   UNL     1      -1.508   6.531  24.732  0.00  0.00    -0.387 OA
ATOM     36  H   UNL     1      -1.930   7.310  25.134  0.00  0.00    +0.210 HD
ENDBRANCH  12   3
BRANCH  13   4
ATOM      4  O   UNL     1       0.164   4.349  24.645  0.00  0.00    -0.387 OA
ATOM     37  H   UNL     1       0.574   3.472  24.554  0.00  0.00    +0.210 HD
ENDBRANCH  13   4
BRANCH  11  15
ATOM     15  C   UNL     1      -3.998   4.372  26.445  0.00  0.00    +0.130 C 
BRANCH  15  17
ATOM      5  O   UNL     1      -6.249   3.924  25.837  0.00  0.00    -0.276 OA
ATOM      8  N   UNL     1      -4.740   2.172  25.615  0.00  0.00    -0.298 N 
ATOM      9  N   UNL     1      -4.056  -0.493  24.710  0.00  0.00    -0.327 N 
ATOM     17  C   UNL     1      -5.103   3.479  25.938  0.00  0.00    +0.218 C 
ATOM     18  C   UNL     1      -3.379   1.643  25.735  0.00  0.00    +0.126 C 
ATOM     19  C   UNL     1      -5.753   1.247  25.110  0.00  0.00    +0.126 C 
ATOM     20  C   UNL     1      -3.342   0.118  25.834  0.00  0.00    +0.124 C 
ATOM     21  C   UNL     1      -5.169   0.250  24.111  0.00  0.00    +0.124 C 
BRANCH   9  22
ATOM      1  F   UNL     1      -2.702  -5.515  22.856  0.00  0.00    -0.205 F 
ATOM     22  C   UNL     1      -3.714  -1.759  24.243  0.00  0.00    +0.030 A 
ATOM     24  C   UNL     1      -4.680  -2.561  23.633  0.00  0.00    +0.026 A 
ATOM     25  C   UNL     1      -2.407  -2.226  24.384  0.00  0.00    +0.026 A 
ATOM     27  C   UNL     1      -4.338  -3.830  23.165  0.00  0.00    +0.040 A 
ATOM     28  C   UNL     1      -2.066  -3.494  23.916  0.00  0.00    +0.040 A 
ATOM     29  C   UNL     1      -3.030  -4.296  23.306  0.00  0.00    +0.124 A 
ENDBRANCH   9  22
ENDBRANCH  15  17
ENDBRANCH  11  15
BRANCH  14  16
ATOM     16  C   UNL     1      -2.013   2.383  23.360  0.00  0.00    +0.138 C 
BRANCH  16  10
ATOM      6  O   UNL     1      -0.524   0.476  24.905  0.00  0.00    -0.270 OA
ATOM     10  N   UNL     1      -0.673   1.943  23.113  0.00  0.00    -0.309 N 
ATOM     23  C   UNL     1      -0.025   1.010  23.918  0.00  0.00    +0.244 C 
ATOM     38  H   UNL     1      -0.218   2.304  22.281  0.00  0.00    +0.149 HD
BRANCH  23  26
ATOM     26  C   UNL     1       1.375   0.678  23.544  0.00  0.00    +0.037 A 
ATOM     30  C   UNL     1       2.262   1.696  23.193  0.00  0.00    +0.016 A 
ATOM     31  C   UNL     1       1.801  -0.650  23.541  0.00  0.00    +0.016 A 
ATOM     32  C   UNL     1       3.575   1.385  22.841  0.00  0.00    +0.046 A 
ATOM     33  C   UNL     1       3.113  -0.962  23.188  0.00  0.00    +0.046 A 
ATOM     34  C   UNL     1       4.002   0.056  22.839  0.00  0.00    +0.120 A 
BRANCH  34   7
ATOM      7  O   UNL     1       5.282  -0.248  22.495  0.00  0.00    -0.495 OA
ATOM     35  C   UNL     1       6.256  -0.226  23.539  0.00  0.00    +0.277 C 
ENDBRANCH  34   7
ENDBRANCH  23  26
ENDBRANCH  16  10
ENDBRANCH  14  16
TORSDOF 9
ENDMDL
