MODEL 1
REMARK VINA RESULT:      -6.6      0.000      0.000
REMARK  Name = 38030138
REMARK  12 active torsions:
REMARK  status: ('A' for Active; 'I' for Inactive)
REMARK    1  A    between atoms: O_1  and  C_13
REMARK    2  A    between atoms: N_3  and  C_18
REMARK    3  A    between atoms: N_3  and  C_19
REMARK    4  A    between atoms: C_5  and  C_9
REMARK    5  A    between atoms: C_7  and  C_13
REMARK    6  A    between atoms: C_8  and  C_12
REMARK    7  A    between atoms: C_9  and  C_14
REMARK    8  A    between atoms: C_9  and  C_15
REMARK    9  A    between atoms: C_10  and  C_16
REMARK   10  A    between atoms: C_12  and  C_17
REMARK   11  A    between atoms: C_18  and  C_20
REMARK   12  A    between atoms: C_20  and  C_21
REMARK                            x       y       z     vdW  Elec       q    Type
REMARK                         _______ _______ _______ _____ _____    ______ ____
ROOT
ATOM      5  C   UNL     1      -0.927   0.583  24.672  0.00  0.00    +0.001 C 
ATOM      6  C   UNL     1      -2.004   0.324  25.737  0.00  0.00    +0.012 C 
ATOM      7  C   UNL     1      -0.222  -0.740  24.283  0.00  0.00    +0.040 C 
ATOM      8  C   UNL     1      -3.073  -0.674  25.253  0.00  0.00    +0.023 C 
ATOM     10  C   UNL     1      -2.450  -1.897  24.608  0.00  0.00    -0.073 C 
ATOM     11  C   UNL     1      -1.171  -1.912  24.193  0.00  0.00    -0.022 C 
ATOM     16  C   UNL     1      -3.320  -3.117  24.493  0.00  0.00    +0.039 C 
ENDROOT
BRANCH   5   9
ATOM      9  C   UNL     1       0.068   1.628  25.185  0.00  0.00    -0.013 C 
ATOM     14  C   UNL     1       0.310   2.699  24.124  0.00  0.00    +0.007 C 
ATOM     15  C   UNL     1      -0.437   2.255  26.480  0.00  0.00    +0.007 C 
ENDBRANCH   5   9
BRANCH   8  12
ATOM     12  C   UNL     1      -4.069  -0.001  24.305  0.00  0.00    +0.103 C 
BRANCH  12  17
ATOM      2  O   UNL     1      -5.308   1.433  25.773  0.00  0.00    -0.276 OA
ATOM      3  N   UNL     1      -4.018   2.464  24.145  0.00  0.00    -0.304 N 
ATOM     17  C   UNL     1      -4.530   1.351  24.819  0.00  0.00    +0.216 C 
ATOM     19  C   UNL     1      -3.099   2.342  23.019  0.00  0.00    +0.132 C 
BRANCH   3  18
ATOM     18  C   UNL     1      -4.364   3.834  24.518  0.00  0.00    +0.122 C 
BRANCH  18  20
ATOM     20  C   UNL     1      -3.592   4.318  25.739  0.00  0.00    +0.137 C 
BRANCH  20  21
ATOM      4  N   UNL     1      -1.308   5.439  25.069  0.00  0.00    -0.197 NA
ATOM     21  C   UNL     1      -2.315   4.945  25.366  0.00  0.00    +0.064 C 
ENDBRANCH  20  21
ENDBRANCH  18  20
ENDBRANCH   3  18
ENDBRANCH  12  17
ENDBRANCH   8  12
BRANCH   7  13
ATOM     13  C   UNL     1       0.536  -0.594  22.958  0.00  0.00    +0.163 C 
BRANCH  13   1
ATOM      1  O   UNL     1       1.897  -0.349  23.250  0.00  0.00    -0.394 OA
ATOM     22  H   UNL     1       2.405  -0.552  22.446  0.00  0.00    +0.209 HD
ENDBRANCH  13   1
ENDBRANCH   7  13
TORSDOF 8
ENDMDL
MODEL 2
REMARK VINA RESULT:      -6.0      2.723      5.589
REMARK  Name = 38030138
REMARK  12 active torsions:
REMARK  status: ('A' for Active; 'I' for Inactive)
REMARK    1  A    between atoms: O_1  and  C_13
REMARK    2  A    between atoms: N_3  and  C_18
REMARK    3  A    between atoms: N_3  and  C_19
REMARK    4  A    between atoms: C_5  and  C_9
REMARK    5  A    between atoms: C_7  and  C_13
REMARK    6  A    between atoms: C_8  and  C_12
REMARK    7  A    between atoms: C_9  and  C_14
REMARK    8  A    between atoms: C_9  and  C_15
REMARK    9  A    between atoms: C_10  and  C_16
REMARK   10  A    between atoms: C_12  and  C_17
REMARK   11  A    between atoms: C_18  and  C_20
REMARK   12  A    between atoms: C_20  and  C_21
REMARK                            x       y       z     vdW  Elec       q    Type
REMARK                         _______ _______ _______ _____ _____    ______ ____
ROOT
ATOM      5  C   UNL     1      -3.502   2.641  24.926  0.00  0.00    +0.001 C 
ATOM      6  C   UNL     1      -2.784   1.997  23.730  0.00  0.00    +0.012 C 
ATOM      7  C   UNL     1      -4.941   2.085  25.056  0.00  0.00    +0.040 C 
ATOM      8  C   UNL     1      -2.705   0.463  23.855  0.00  0.00    +0.023 C 
ATOM     10  C   UNL     1      -4.039  -0.139  24.249  0.00  0.00    -0.073 C 
ATOM     11  C   UNL     1      -5.031   0.604  24.772  0.00  0.00    -0.022 C 
ATOM     16  C   UNL     1      -4.222  -1.607  23.985  0.00  0.00    +0.039 C 
ENDROOT
BRANCH   5   9
ATOM      9  C   UNL     1      -3.492   4.165  24.776  0.00  0.00    -0.013 C 
ATOM     14  C   UNL     1      -2.128   4.730  25.161  0.00  0.00    +0.007 C 
ATOM     15  C   UNL     1      -3.859   4.563  23.350  0.00  0.00    +0.007 C 
ENDBRANCH   5   9
BRANCH   8  12
ATOM     12  C   UNL     1      -1.603   0.045  24.835  0.00  0.00    +0.103 C 
BRANCH  12  17
ATOM      2  O   UNL     1      -0.419  -1.818  23.901  0.00  0.00    -0.276 OA
ATOM      3  N   UNL     1       0.621   0.251  23.780  0.00  0.00    -0.304 N 
ATOM     17  C   UNL     1      -0.426  -0.606  24.133  0.00  0.00    +0.216 C 
ATOM     19  C   UNL     1       0.590   1.681  24.065  0.00  0.00    +0.132 C 
BRANCH   3  18
ATOM     18  C   UNL     1       1.825  -0.221  23.099  0.00  0.00    +0.122 C 
BRANCH  18  20
ATOM     20  C   UNL     1       2.810   0.905  22.810  0.00  0.00    +0.137 C 
BRANCH  20  21
ATOM      4  N   UNL     1       5.300   0.154  23.204  0.00  0.00    -0.197 NA
ATOM     21  C   UNL     1       4.202   0.484  23.030  0.00  0.00    +0.064 C 
ENDBRANCH  20  21
ENDBRANCH  18  20
ENDBRANCH   3  18
ENDBRANCH  12  17
ENDBRANCH   8  12
BRANCH   7  13
ATOM     13  C   UNL     1      -5.522   2.373  26.445  0.00  0.00    +0.163 C 
BRANCH  13   1
ATOM      1  O   UNL     1      -6.746   1.677  26.568  0.00  0.00    -0.394 OA
ATOM     22  H   UNL     1      -6.935   1.273  25.703  0.00  0.00    +0.209 HD
ENDBRANCH  13   1
ENDBRANCH   7  13
TORSDOF 8
ENDMDL
MODEL 3
REMARK VINA RESULT:      -5.6      2.767      6.158
REMARK  Name = 38030138
REMARK  12 active torsions:
REMARK  status: ('A' for Active; 'I' for Inactive)
REMARK    1  A    between atoms: O_1  and  C_13
REMARK    2  A    between atoms: N_3  and  C_18
REMARK    3  A    between atoms: N_3  and  C_19
REMARK    4  A    between atoms: C_5  and  C_9
REMARK    5  A    between atoms: C_7  and  C_13
REMARK    6  A    between atoms: C_8  and  C_12
REMARK    7  A    between atoms: C_9  and  C_14
REMARK    8  A    between atoms: C_9  and  C_15
REMARK    9  A    between atoms: C_10  and  C_16
REMARK   10  A    between atoms: C_12  and  C_17
REMARK   11  A    between atoms: C_18  and  C_20
REMARK   12  A    between atoms: C_20  and  C_21
REMARK                            x       y       z     vdW  Elec       q    Type
REMARK                         _______ _______ _______ _____ _____    ______ ____
ROOT
ATOM      5  C   UNL     1      -3.460   0.634  24.863  0.00  0.00    +0.001 C 
ATOM      6  C   UNL     1      -2.065   0.743  25.496  0.00  0.00    +0.012 C 
ATOM      7  C   UNL     1      -4.360   1.803  25.334  0.00  0.00    +0.040 C 
ATOM      8  C   UNL     1      -1.366   2.070  25.143  0.00  0.00    +0.023 C 
ATOM     10  C   UNL     1      -2.289   3.258  25.329  0.00  0.00    -0.073 C 
ATOM     11  C   UNL     1      -3.623   3.118  25.425  0.00  0.00    -0.022 C 
ATOM     16  C   UNL     1      -1.638   4.608  25.446  0.00  0.00    +0.039 C 
ENDROOT
BRANCH   5   9
ATOM      9  C   UNL     1      -4.076  -0.728  25.196  0.00  0.00    -0.013 C 
ATOM     14  C   UNL     1      -4.247  -1.560  23.928  0.00  0.00    +0.007 C 
ATOM     15  C   UNL     1      -3.214  -1.467  26.215  0.00  0.00    +0.007 C 
ENDBRANCH   5   9
BRANCH   8  12
ATOM     12  C   UNL     1      -0.798   2.034  23.721  0.00  0.00    +0.103 C 
BRANCH  12  17
ATOM      2  O   UNL     1       1.565   2.253  24.062  0.00  0.00    -0.276 OA
ATOM      3  N   UNL     1       0.813   0.232  23.208  0.00  0.00    -0.304 N 
ATOM     17  C   UNL     1       0.634   1.534  23.687  0.00  0.00    +0.216 C 
ATOM     19  C   UNL     1      -0.302  -0.599  22.770  0.00  0.00    +0.132 C 
BRANCH   3  18
ATOM     18  C   UNL     1       2.130  -0.395  23.113  0.00  0.00    +0.122 C 
BRANCH  18  20
ATOM     20  C   UNL     1       3.154   0.502  22.428  0.00  0.00    +0.137 C 
BRANCH  20  21
ATOM      4  N   UNL     1       5.499   0.392  23.615  0.00  0.00    -0.197 NA
ATOM     21  C   UNL     1       4.465   0.442  23.092  0.00  0.00    +0.064 C 
ENDBRANCH  20  21
ENDBRANCH  18  20
ENDBRANCH   3  18
ENDBRANCH  12  17
ENDBRANCH   8  12
BRANCH   7  13
ATOM     13  C   UNL     1      -5.581   1.964  24.421  0.00  0.00    +0.163 C 
BRANCH  13   1
ATOM      1  O   UNL     1      -6.745   1.909  25.221  0.00  0.00    -0.394 OA
ATOM     22  H   UNL     1      -6.904   0.974  25.433  0.00  0.00    +0.209 HD
ENDBRANCH  13   1
ENDBRANCH   7  13
TORSDOF 8
ENDMDL
MODEL 4
REMARK VINA RESULT:      -5.0      2.599      5.016
REMARK  Name = 38030138
REMARK  12 active torsions:
REMARK  status: ('A' for Active; 'I' for Inactive)
REMARK    1  A    between atoms: O_1  and  C_13
REMARK    2  A    between atoms: N_3  and  C_18
REMARK    3  A    between atoms: N_3  and  C_19
REMARK    4  A    between atoms: C_5  and  C_9
REMARK    5  A    between atoms: C_7  and  C_13
REMARK    6  A    between atoms: C_8  and  C_12
REMARK    7  A    between atoms: C_9  and  C_14
REMARK    8  A    between atoms: C_9  and  C_15
REMARK    9  A    between atoms: C_10  and  C_16
REMARK   10  A    between atoms: C_12  and  C_17
REMARK   11  A    between atoms: C_18  and  C_20
REMARK   12  A    between atoms: C_20  and  C_21
REMARK                            x       y       z     vdW  Elec       q    Type
REMARK                         _______ _______ _______ _____ _____    ______ ____
ROOT
ATOM      5  C   UNL     1      -2.890   2.398  24.419  0.00  0.00    +0.001 C 
ATOM      6  C   UNL     1      -3.992   1.546  23.770  0.00  0.00    +0.012 C 
ATOM      7  C   UNL     1      -3.506   3.628  25.130  0.00  0.00    +0.040 C 
ATOM      8  C   UNL     1      -5.024   1.048  24.799  0.00  0.00    +0.023 C 
ATOM     10  C   UNL     1      -5.483   2.160  25.721  0.00  0.00    -0.073 C 
ATOM     11  C   UNL     1      -4.799   3.312  25.846  0.00  0.00    -0.022 C 
ATOM     16  C   UNL     1      -6.772   1.937  26.461  0.00  0.00    +0.039 C 
ENDROOT
BRANCH   5   9
ATOM      9  C   UNL     1      -1.862   2.809  23.360  0.00  0.00    -0.013 C 
ATOM     14  C   UNL     1      -0.445   2.645  23.901  0.00  0.00    +0.007 C 
ATOM     15  C   UNL     1      -2.053   1.992  22.086  0.00  0.00    +0.007 C 
ENDBRANCH   5   9
BRANCH   8  12
ATOM     12  C   UNL     1      -4.478  -0.138  25.601  0.00  0.00    +0.103 C 
BRANCH  12  17
ATOM      2  O   UNL     1      -4.141  -1.730  23.840  0.00  0.00    -0.276 OA
ATOM      3  N   UNL     1      -2.272  -1.115  25.067  0.00  0.00    -0.304 N 
ATOM     17  C   UNL     1      -3.633  -1.068  24.749  0.00  0.00    +0.216 C 
ATOM     19  C   UNL     1      -1.694  -0.323  26.146  0.00  0.00    +0.132 C 
BRANCH   3  18
ATOM     18  C   UNL     1      -1.326  -1.960  24.341  0.00  0.00    +0.122 C 
BRANCH  18  20
ATOM     20  C   UNL     1       0.121  -1.538  24.564  0.00  0.00    +0.137 C 
BRANCH  20  21
ATOM      4  N   UNL     1       1.036  -0.084  22.572  0.00  0.00    -0.197 NA
ATOM     21  C   UNL     1       0.631  -0.724  23.450  0.00  0.00    +0.064 C 
ENDBRANCH  20  21
ENDBRANCH  18  20
ENDBRANCH   3  18
ENDBRANCH  12  17
ENDBRANCH   8  12
BRANCH   7  13
ATOM     13  C   UNL     1      -2.514   4.249  26.120  0.00  0.00    +0.163 C 
BRANCH  13   1
ATOM      1  O   UNL     1      -1.839   5.306  25.468  0.00  0.00    -0.394 OA
ATOM     22  H   UNL     1      -2.246   5.409  24.591  0.00  0.00    +0.209 HD
ENDBRANCH  13   1
ENDBRANCH   7  13
TORSDOF 8
ENDMDL
MODEL 5
REMARK VINA RESULT:      -4.9      1.205      1.447
REMARK  Name = 38030138
REMARK  12 active torsions:
REMARK  status: ('A' for Active; 'I' for Inactive)
REMARK    1  A    between atoms: O_1  and  C_13
REMARK    2  A    between atoms: N_3  and  C_18
REMARK    3  A    between atoms: N_3  and  C_19
REMARK    4  A    between atoms: C_5  and  C_9
REMARK    5  A    between atoms: C_7  and  C_13
REMARK    6  A    between atoms: C_8  and  C_12
REMARK    7  A    between atoms: C_9  and  C_14
REMARK    8  A    between atoms: C_9  and  C_15
REMARK    9  A    between atoms: C_10  and  C_16
REMARK   10  A    between atoms: C_12  and  C_17
REMARK   11  A    between atoms: C_18  and  C_20
REMARK   12  A    between atoms: C_20  and  C_21
REMARK                            x       y       z     vdW  Elec       q    Type
REMARK                         _______ _______ _______ _____ _____    ______ ____
ROOT
ATOM      5  C   UNL     1      -0.741   0.861  24.516  0.00  0.00    +0.001 C 
ATOM      6  C   UNL     1      -1.783   0.472  25.575  0.00  0.00    +0.012 C 
ATOM      7  C   UNL     1       0.187  -0.338  24.203  0.00  0.00    +0.040 C 
ATOM      8  C   UNL     1      -2.656  -0.715  25.124  0.00  0.00    +0.023 C 
ATOM     10  C   UNL     1      -1.820  -1.842  24.550  0.00  0.00    -0.073 C 
ATOM     11  C   UNL     1      -0.547  -1.658  24.156  0.00  0.00    -0.022 C 
ATOM     16  C   UNL     1      -2.467  -3.197  24.481  0.00  0.00    +0.039 C 
ENDROOT
BRANCH   5   9
ATOM      9  C   UNL     1       0.051   2.083  24.992  0.00  0.00    -0.013 C 
ATOM     14  C   UNL     1      -0.302   3.307  24.152  0.00  0.00    +0.007 C 
ATOM     15  C   UNL     1      -0.217   2.348  26.471  0.00  0.00    +0.007 C 
ENDBRANCH   5   9
BRANCH   8  12
ATOM     12  C   UNL     1      -3.729  -0.265  24.129  0.00  0.00    +0.103 C 
BRANCH  12  17
ATOM      2  O   UNL     1      -4.933   1.433  25.317  0.00  0.00    -0.276 OA
ATOM      3  N   UNL     1      -3.694   2.118  23.480  0.00  0.00    -0.304 N 
ATOM     17  C   UNL     1      -4.182   1.162  24.376  0.00  0.00    +0.216 C 
ATOM     19  C   UNL     1      -2.807   1.774  22.376  0.00  0.00    +0.132 C 
BRANCH   3  18
ATOM     18  C   UNL     1      -4.037   3.536  23.583  0.00  0.00    +0.122 C 
BRANCH  18  20
ATOM     20  C   UNL     1      -3.960   4.051  25.015  0.00  0.00    +0.137 C 
BRANCH  20  21
ATOM      4  N   UNL     1      -6.333   4.702  25.947  0.00  0.00    -0.197 NA
ATOM     21  C   UNL     1      -5.286   4.416  25.536  0.00  0.00    +0.064 C 
ENDBRANCH  20  21
ENDBRANCH  18  20
ENDBRANCH   3  18
ENDBRANCH  12  17
ENDBRANCH   8  12
BRANCH   7  13
ATOM     13  C   UNL     1       0.940  -0.126  22.885  0.00  0.00    +0.163 C 
BRANCH  13   1
ATOM      1  O   UNL     1       2.325  -0.089  23.166  0.00  0.00    -0.394 OA
ATOM     22  H   UNL     1       2.793  -0.143  22.315  0.00  0.00    +0.209 HD
ENDBRANCH  13   1
ENDBRANCH   7  13
TORSDOF 8
ENDMDL
MODEL 6
REMARK VINA RESULT:      -4.3      2.189      5.733
REMARK  Name = 38030138
REMARK  12 active torsions:
REMARK  status: ('A' for Active; 'I' for Inactive)
REMARK    1  A    between atoms: O_1  and  C_13
REMARK    2  A    between atoms: N_3  and  C_18
REMARK    3  A    between atoms: N_3  and  C_19
REMARK    4  A    between atoms: C_5  and  C_9
REMARK    5  A    between atoms: C_7  and  C_13
REMARK    6  A    between atoms: C_8  and  C_12
REMARK    7  A    between atoms: C_9  and  C_14
REMARK    8  A    between atoms: C_9  and  C_15
REMARK    9  A    between atoms: C_10  and  C_16
REMARK   10  A    between atoms: C_12  and  C_17
REMARK   11  A    between atoms: C_18  and  C_20
REMARK   12  A    between atoms: C_20  and  C_21
REMARK                            x       y       z     vdW  Elec       q    Type
REMARK                         _______ _______ _______ _____ _____    ______ ____
ROOT
ATOM      5  C   UNL     1      -3.591   2.260  24.797  0.00  0.00    +0.001 C 
ATOM      6  C   UNL     1      -3.209   2.870  26.154  0.00  0.00    +0.012 C 
ATOM      7  C   UNL     1      -3.657   3.359  23.709  0.00  0.00    +0.040 C 
ATOM      8  C   UNL     1      -1.848   3.591  26.106  0.00  0.00    +0.023 C 
ATOM     10  C   UNL     1      -1.735   4.500  24.898  0.00  0.00    -0.073 C 
ATOM     11  C   UNL     1      -2.561   4.391  23.842  0.00  0.00    -0.022 C 
ATOM     16  C   UNL     1      -0.680   5.569  24.953  0.00  0.00    +0.039 C 
ENDROOT
BRANCH   5   9
ATOM      9  C   UNL     1      -4.918   1.505  24.923  0.00  0.00    -0.013 C 
ATOM     14  C   UNL     1      -4.670   0.058  25.342  0.00  0.00    +0.007 C 
ATOM     15  C   UNL     1      -5.837   2.206  25.919  0.00  0.00    +0.007 C 
ENDBRANCH   5   9
BRANCH   8  12
ATOM     12  C   UNL     1      -0.690   2.589  26.149  0.00  0.00    +0.103 C 
BRANCH  12  17
ATOM      2  O   UNL     1      -0.386   2.167  23.809  0.00  0.00    -0.276 OA
ATOM      3  N   UNL     1      -0.938   0.349  25.138  0.00  0.00    -0.304 N 
ATOM     17  C   UNL     1      -0.653   1.700  24.919  0.00  0.00    +0.216 C 
ATOM     19  C   UNL     1      -1.250  -0.181  26.460  0.00  0.00    +0.132 C 
BRANCH   3  18
ATOM     18  C   UNL     1      -0.942  -0.636  24.057  0.00  0.00    +0.122 C 
BRANCH  18  20
ATOM     20  C   UNL     1      -1.117  -2.061  24.569  0.00  0.00    +0.137 C 
BRANCH  20  21
ATOM      4  N   UNL     1      -3.577  -2.927  24.220  0.00  0.00    -0.197 NA
ATOM     21  C   UNL     1      -2.492  -2.546  24.375  0.00  0.00    +0.064 C 
ENDBRANCH  20  21
ENDBRANCH  18  20
ENDBRANCH   3  18
ENDBRANCH  12  17
ENDBRANCH   8  12
BRANCH   7  13
ATOM     13  C   UNL     1      -3.615   2.750  22.303  0.00  0.00    +0.163 C 
BRANCH  13   1
ATOM      1  O   UNL     1      -2.555   1.816  22.255  0.00  0.00    -0.394 OA
ATOM     22  H   UNL     1      -2.871   1.001  22.680  0.00  0.00    +0.209 HD
ENDBRANCH  13   1
ENDBRANCH   7  13
TORSDOF 8
ENDMDL
MODEL 7
REMARK VINA RESULT:      -4.0      2.486      5.653
REMARK  Name = 38030138
REMARK  12 active torsions:
REMARK  status: ('A' for Active; 'I' for Inactive)
REMARK    1  A    between atoms: O_1  and  C_13
REMARK    2  A    between atoms: N_3  and  C_18
REMARK    3  A    between atoms: N_3  and  C_19
REMARK    4  A    between atoms: C_5  and  C_9
REMARK    5  A    between atoms: C_7  and  C_13
REMARK    6  A    between atoms: C_8  and  C_12
REMARK    7  A    between atoms: C_9  and  C_14
REMARK    8  A    between atoms: C_9  and  C_15
REMARK    9  A    between atoms: C_10  and  C_16
REMARK   10  A    between atoms: C_12  and  C_17
REMARK   11  A    between atoms: C_18  and  C_20
REMARK   12  A    between atoms: C_20  and  C_21
REMARK                            x       y       z     vdW  Elec       q    Type
REMARK                         _______ _______ _______ _____ _____    ______ ____
ROOT
ATOM      5  C   UNL     1      -3.613   2.143  24.680  0.00  0.00    +0.001 C 
ATOM      6  C   UNL     1      -3.308   2.711  26.074  0.00  0.00    +0.012 C 
ATOM      7  C   UNL     1      -3.820   3.291  23.661  0.00  0.00    +0.040 C 
ATOM      8  C   UNL     1      -2.050   3.600  26.079  0.00  0.00    +0.023 C 
ATOM     10  C   UNL     1      -2.056   4.590  24.930  0.00  0.00    -0.073 C 
ATOM     11  C   UNL     1      -2.863   4.442  23.865  0.00  0.00    -0.022 C 
ATOM     16  C   UNL     1      -1.144   5.778  25.057  0.00  0.00    +0.039 C 
ENDROOT
BRANCH   5   9
ATOM      9  C   UNL     1      -4.833   1.220  24.752  0.00  0.00    -0.013 C 
ATOM     14  C   UNL     1      -4.408  -0.195  25.136  0.00  0.00    +0.007 C 
ATOM     15  C   UNL     1      -5.856   1.765  25.743  0.00  0.00    +0.007 C 
ENDBRANCH   5   9
BRANCH   8  12
ATOM     12  C   UNL     1      -0.774   2.752  26.066  0.00  0.00    +0.103 C 
BRANCH  12  17
ATOM      2  O   UNL     1      -0.078   3.136  23.804  0.00  0.00    -0.276 OA
ATOM      3  N   UNL     1      -0.420   0.931  24.435  0.00  0.00    -0.304 N 
ATOM     17  C   UNL     1      -0.391   2.310  24.666  0.00  0.00    +0.216 C 
ATOM     19  C   UNL     1      -0.793  -0.027  25.469  0.00  0.00    +0.132 C 
BRANCH   3  18
ATOM     18  C   UNL     1      -0.078   0.345  23.140  0.00  0.00    +0.122 C 
BRANCH  18  20
ATOM     20  C   UNL     1       1.161  -0.540  23.210  0.00  0.00    +0.137 C 
BRANCH  20  21
ATOM      4  N   UNL     1       3.336   0.770  22.523  0.00  0.00    -0.197 NA
ATOM     21  C   UNL     1       2.378   0.192  22.826  0.00  0.00    +0.064 C 
ENDBRANCH  20  21
ENDBRANCH  18  20
ENDBRANCH   3  18
ENDBRANCH  12  17
ENDBRANCH   8  12
BRANCH   7  13
ATOM     13  C   UNL     1      -3.704   2.780  22.221  0.00  0.00    +0.163 C 
BRANCH  13   1
ATOM      1  O   UNL     1      -2.507   2.037  22.108  0.00  0.00    -0.394 OA
ATOM     22  H   UNL     1      -2.511   1.375  22.821  0.00  0.00    +0.209 HD
ENDBRANCH  13   1
ENDBRANCH   7  13
TORSDOF 8
ENDMDL
MODEL 8
REMARK VINA RESULT:      -3.8      1.801      4.324
REMARK  Name = 38030138
REMARK  12 active torsions:
REMARK  status: ('A' for Active; 'I' for Inactive)
REMARK    1  A    between atoms: O_1  and  C_13
REMARK    2  A    between atoms: N_3  and  C_18
REMARK    3  A    between atoms: N_3  and  C_19
REMARK    4  A    between atoms: C_5  and  C_9
REMARK    5  A    between atoms: C_7  and  C_13
REMARK    6  A    between atoms: C_8  and  C_12
REMARK    7  A    between atoms: C_9  and  C_14
REMARK    8  A    between atoms: C_9  and  C_15
REMARK    9  A    between atoms: C_10  and  C_16
REMARK   10  A    between atoms: C_12  and  C_17
REMARK   11  A    between atoms: C_18  and  C_20
REMARK   12  A    between atoms: C_20  and  C_21
REMARK                            x       y       z     vdW  Elec       q    Type
REMARK                         _______ _______ _______ _____ _____    ______ ____
ROOT
ATOM      5  C   UNL     1      -3.901   1.468  24.566  0.00  0.00    +0.001 C 
ATOM      6  C   UNL     1      -2.886   0.793  23.632  0.00  0.00    +0.012 C 
ATOM      7  C   UNL     1      -5.166   0.587  24.719  0.00  0.00    +0.040 C 
ATOM      8  C   UNL     1      -2.455  -0.595  24.145  0.00  0.00    +0.023 C 
ATOM     10  C   UNL     1      -3.645  -1.431  24.572  0.00  0.00    -0.073 C 
ATOM     11  C   UNL     1      -4.851  -0.888  24.811  0.00  0.00    -0.022 C 
ATOM     16  C   UNL     1      -3.426  -2.915  24.673  0.00  0.00    +0.039 C 
ENDROOT
BRANCH   5   9
ATOM      9  C   UNL     1      -4.242   2.865  24.037  0.00  0.00    -0.013 C 
ATOM     14  C   UNL     1      -3.932   3.924  25.092  0.00  0.00    +0.007 C 
ATOM     15  C   UNL     1      -3.479   3.147  22.747  0.00  0.00    +0.007 C 
ENDBRANCH   5   9
BRANCH   8  12
ATOM     12  C   UNL     1      -1.436  -0.470  25.282  0.00  0.00    +0.103 C 
BRANCH  12  17
ATOM      2  O   UNL     1      -1.173   1.710  26.244  0.00  0.00    -0.276 OA
ATOM      3  N   UNL     1       0.123   1.222  24.384  0.00  0.00    -0.304 N 
ATOM     17  C   UNL     1      -0.829   0.918  25.362  0.00  0.00    +0.216 C 
ATOM     19  C   UNL     1       0.514   0.271  23.351  0.00  0.00    +0.132 C 
BRANCH   3  18
ATOM     18  C   UNL     1       0.800   2.517  24.324  0.00  0.00    +0.122 C 
BRANCH  18  20
ATOM     20  C   UNL     1      -0.015   3.565  23.577  0.00  0.00    +0.137 C 
BRANCH  20  21
ATOM      4  N   UNL     1      -1.032   5.358  25.211  0.00  0.00    -0.197 NA
ATOM     21  C   UNL     1      -0.585   4.568  24.490  0.00  0.00    +0.064 C 
ENDBRANCH  20  21
ENDBRANCH  18  20
ENDBRANCH   3  18
ENDBRANCH  12  17
ENDBRANCH   8  12
BRANCH   7  13
ATOM     13  C   UNL     1      -5.991   1.010  25.940  0.00  0.00    +0.163 C 
BRANCH  13   1
ATOM      1  O   UNL     1      -6.759   2.142  25.585  0.00  0.00    -0.394 OA
ATOM     22  H   UNL     1      -7.387   2.303  26.311  0.00  0.00    +0.209 HD
ENDBRANCH  13   1
ENDBRANCH   7  13
TORSDOF 8
ENDMDL
MODEL 9
REMARK VINA RESULT:      -3.7      1.626      3.736
REMARK  Name = 38030138
REMARK  12 active torsions:
REMARK  status: ('A' for Active; 'I' for Inactive)
REMARK    1  A    between atoms: O_1  and  C_13
REMARK    2  A    between atoms: N_3  and  C_18
REMARK    3  A    between atoms: N_3  and  C_19
REMARK    4  A    between atoms: C_5  and  C_9
REMARK    5  A    between atoms: C_7  and  C_13
REMARK    6  A    between atoms: C_8  and  C_12
REMARK    7  A    between atoms: C_9  and  C_14
REMARK    8  A    between atoms: C_9  and  C_15
REMARK    9  A    between atoms: C_10  and  C_16
REMARK   10  A    between atoms: C_12  and  C_17
REMARK   11  A    between atoms: C_18  and  C_20
REMARK   12  A    between atoms: C_20  and  C_21
REMARK                            x       y       z     vdW  Elec       q    Type
REMARK                         _______ _______ _______ _____ _____    ______ ____
ROOT
ATOM      5  C   UNL     1      -1.869  -0.314  24.947  0.00  0.00    +0.001 C 
ATOM      6  C   UNL     1      -1.760   0.897  24.008  0.00  0.00    +0.012 C 
ATOM      7  C   UNL     1      -1.144  -1.539  24.337  0.00  0.00    +0.040 C 
ATOM      8  C   UNL     1      -0.296   1.286  23.727  0.00  0.00    +0.023 C 
ATOM     10  C   UNL     1       0.550   0.079  23.376  0.00  0.00    -0.073 C 
ATOM     11  C   UNL     1       0.149  -1.177  23.644  0.00  0.00    -0.022 C 
ATOM     16  C   UNL     1       1.849   0.346  22.668  0.00  0.00    +0.039 C 
ENDROOT
BRANCH   5   9
ATOM      9  C   UNL     1      -3.342  -0.613  25.239  0.00  0.00    -0.013 C 
ATOM     14  C   UNL     1      -4.144   0.683  25.317  0.00  0.00    +0.007 C 
ATOM     15  C   UNL     1      -3.919  -1.542  24.175  0.00  0.00    +0.007 C 
ENDBRANCH   5   9
BRANCH   8  12
ATOM     12  C   UNL     1       0.307   2.055  24.907  0.00  0.00    +0.103 C 
BRANCH  12  17
ATOM      2  O   UNL     1      -1.256   2.639  26.627  0.00  0.00    -0.276 OA
ATOM      3  N   UNL     1      -0.952   4.181  24.922  0.00  0.00    -0.304 N 
ATOM     17  C   UNL     1      -0.703   2.969  25.575  0.00  0.00    +0.216 C 
ATOM     19  C   UNL     1      -0.286   4.550  23.679  0.00  0.00    +0.132 C 
BRANCH   3  18
ATOM     18  C   UNL     1      -1.897   5.169  25.437  0.00  0.00    +0.122 C 
BRANCH  18  20
ATOM     20  C   UNL     1      -3.298   4.597  25.619  0.00  0.00    +0.137 C 
BRANCH  20  21
ATOM      4  N   UNL     1      -4.184   3.468  23.413  0.00  0.00    -0.197 NA
ATOM     21  C   UNL     1      -3.794   3.966  24.386  0.00  0.00    +0.064 C 
ENDBRANCH  20  21
ENDBRANCH  18  20
ENDBRANCH   3  18
ENDBRANCH  12  17
ENDBRANCH   8  12
BRANCH   7  13
ATOM     13  C   UNL     1      -0.870  -2.607  25.401  0.00  0.00    +0.163 C 
BRANCH  13   1
ATOM      1  O   UNL     1       0.426  -2.392  25.923  0.00  0.00    -0.394 OA
ATOM     22  H   UNL     1       0.770  -1.580  25.513  0.00  0.00    +0.209 HD
ENDBRANCH  13   1
ENDBRANCH   7  13
TORSDOF 8
ENDMDL
MODEL 10
REMARK VINA RESULT:      -3.7      2.090      3.967
REMARK  Name = 38030138
REMARK  12 active torsions:
REMARK  status: ('A' for Active; 'I' for Inactive)
REMARK    1  A    between atoms: O_1  and  C_13
REMARK    2  A    between atoms: N_3  and  C_18
REMARK    3  A    between atoms: N_3  and  C_19
REMARK    4  A    between atoms: C_5  and  C_9
REMARK    5  A    between atoms: C_7  and  C_13
REMARK    6  A    between atoms: C_8  and  C_12
REMARK    7  A    between atoms: C_9  and  C_14
REMARK    8  A    between atoms: C_9  and  C_15
REMARK    9  A    between atoms: C_10  and  C_16
REMARK   10  A    between atoms: C_12  and  C_17
REMARK   11  A    between atoms: C_18  and  C_20
REMARK   12  A    between atoms: C_20  and  C_21
REMARK                            x       y       z     vdW  Elec       q    Type
REMARK                         _______ _______ _______ _____ _____    ______ ____
ROOT
ATOM      5  C   UNL     1      -2.802  -0.234  24.585  0.00  0.00    +0.001 C 
ATOM      6  C   UNL     1      -2.871   1.051  25.424  0.00  0.00    +0.012 C 
ATOM      7  C   UNL     1      -4.093  -1.069  24.768  0.00  0.00    +0.040 C 
ATOM      8  C   UNL     1      -4.078   1.930  25.045  0.00  0.00    +0.023 C 
ATOM     10  C   UNL     1      -5.355   1.119  24.943  0.00  0.00    -0.073 C 
ATOM     11  C   UNL     1      -5.342  -0.222  24.833  0.00  0.00    -0.022 C 
ATOM     16  C   UNL     1      -6.648   1.881  25.015  0.00  0.00    +0.039 C 
ENDROOT
BRANCH   5   9
ATOM      9  C   UNL     1      -1.550  -1.033  24.961  0.00  0.00    -0.013 C 
ATOM     14  C   UNL     1      -0.383  -0.652  24.054  0.00  0.00    +0.007 C 
ATOM     15  C   UNL     1      -1.193  -0.804  26.427  0.00  0.00    +0.007 C 
ENDBRANCH   5   9
BRANCH   8  12
ATOM     12  C   UNL     1      -3.814   2.703  23.749  0.00  0.00    +0.103 C 
BRANCH  12  17
ATOM      2  O   UNL     1      -1.871   2.044  22.509  0.00  0.00    -0.276 OA
ATOM      3  N   UNL     1      -1.569   3.652  24.152  0.00  0.00    -0.304 N 
ATOM     17  C   UNL     1      -2.338   2.757  23.402  0.00  0.00    +0.216 C 
ATOM     19  C   UNL     1      -2.143   4.485  25.202  0.00  0.00    +0.132 C 
BRANCH   3  18
ATOM     18  C   UNL     1      -0.133   3.822  23.940  0.00  0.00    +0.122 C 
BRANCH  18  20
ATOM     20  C   UNL     1       0.681   2.672  24.520  0.00  0.00    +0.137 C 
BRANCH  20  21
ATOM      4  N   UNL     1       0.216   2.344  27.089  0.00  0.00    -0.197 NA
ATOM     21  C   UNL     1       0.421   2.487  25.956  0.00  0.00    +0.064 C 
ENDBRANCH  20  21
ENDBRANCH  18  20
ENDBRANCH   3  18
ENDBRANCH  12  17
ENDBRANCH   8  12
BRANCH   7  13
ATOM     13  C   UNL     1      -4.242  -2.111  23.654  0.00  0.00    +0.163 C 
BRANCH  13   1
ATOM      1  O   UNL     1      -3.818  -3.363  24.157  0.00  0.00    -0.394 OA
ATOM     22  H   UNL     1      -3.014  -3.611  23.670  0.00  0.00    +0.209 HD
ENDBRANCH  13   1
ENDBRANCH   7  13
TORSDOF 8
ENDMDL
