MODEL 1
REMARK VINA RESULT:      -3.5      0.000      0.000
REMARK  Name = 7161541
REMARK  5 active torsions:
REMARK  status: ('A' for Active; 'I' for Inactive)
REMARK    1  A    between atoms: O_3  and  C_19
REMARK    2  A    between atoms: O_3  and  C_24
REMARK    3  A    between atoms: C_8  and  C_14
REMARK    4  A    between atoms: C_15  and  C_19
REMARK    5  A    between atoms: C_20  and  C_21
REMARK                            x       y       z     vdW  Elec       q    Type
REMARK                         _______ _______ _______ _____ _____    ______ ____
ROOT
ATOM      2  O   UNL     1      -1.822   3.468  26.469  0.00  0.00    -0.275 OA
ATOM      5  O   UNL     1       1.137  -1.080  21.783  0.00  0.00    -0.270 OA
ATOM      6  N   UNL     1      -1.303   1.941  24.792  0.00  0.00    -0.285 N 
ATOM      7  N   UNL     1       0.612   0.845  22.999  0.00  0.00    -0.294 N 
ATOM     14  C   UNL     1      -2.176   2.740  25.538  0.00  0.00    +0.219 C 
ATOM     15  C   UNL     1      -1.732   0.947  23.791  0.00  0.00    +0.202 C 
ATOM     16  C   UNL     1       0.129   1.958  25.124  0.00  0.00    +0.127 C 
ATOM     17  C   UNL     1      -0.790   0.865  22.587  0.00  0.00    +0.142 C 
ATOM     18  C   UNL     1       0.996   1.957  23.874  0.00  0.00    +0.127 C 
ATOM     20  C   UNL     1       1.466  -0.148  22.516  0.00  0.00    +0.247 C 
ENDROOT
BRANCH  20  21
ATOM      1  F   UNL     1       5.400  -2.284  24.366  0.00  0.00    -0.205 F 
ATOM     21  C   UNL     1       2.878  -0.105  22.920  0.00  0.00    +0.040 A 
ATOM     22  C   UNL     1       3.478  -1.238  23.461  0.00  0.00    +0.051 A 
ATOM     23  C   UNL     1       3.608   1.070  22.758  0.00  0.00    +0.013 A 
ATOM     25  C   UNL     1       4.819  -1.197  23.844  0.00  0.00    +0.124 A 
ATOM     26  C   UNL     1       4.949   1.111  23.140  0.00  0.00    +0.004 A 
ATOM     27  C   UNL     1       5.554  -0.022  23.683  0.00  0.00    +0.038 A 
ENDBRANCH  20  21
BRANCH  14   8
ATOM      8  C   UNL     1      -3.625   2.696  25.154  0.00  0.00    +0.075 C 
ATOM      9  C   UNL     1      -4.209   1.318  25.474  0.00  0.00    +0.013 C 
ATOM     10  C   UNL     1      -4.389   3.809  25.876  0.00  0.00    +0.013 C 
ATOM     11  C   UNL     1      -5.706   1.259  25.186  0.00  0.00    +0.001 C 
ATOM     12  C   UNL     1      -5.886   3.745  25.586  0.00  0.00    +0.001 C 
ATOM     13  C   UNL     1      -6.463   2.369  25.910  0.00  0.00    +0.000 C 
ENDBRANCH  14   8
BRANCH  15  19
ATOM      4  O   UNL     1      -1.146  -0.662  25.487  0.00  0.00    -0.249 OA
ATOM     19  C   UNL     1      -1.820  -0.369  24.509  0.00  0.00    +0.329 C 
BRANCH  19   3
ATOM      3  O   UNL     1      -2.754  -1.157  23.904  0.00  0.00    -0.467 OA
ATOM     24  C   UNL     1      -3.292  -2.206  24.715  0.00  0.00    +0.280 C 
ENDBRANCH  19   3
ENDBRANCH  15  19
TORSDOF 4
ENDMDL
