MODEL 1
REMARK VINA RESULT:      -3.3      0.000      0.000
REMARK  Name = 45360563
REMARK  6 active torsions:
REMARK  status: ('A' for Active; 'I' for Inactive)
REMARK    1  A    between atoms: O_3  and  C_9
REMARK    2  A    between atoms: N_4  and  C_8
REMARK    3  A    between atoms: N_5  and  C_10
REMARK    4  A    between atoms: N_5  and  C_18
REMARK    5  A    between atoms: N_6  and  C_19
REMARK    6  A    between atoms: C_18  and  C_20
REMARK                            x       y       z     vdW  Elec       q    Type
REMARK                         _______ _______ _______ _____ _____    ______ ____
ROOT
ATOM      1  O   UNL     1      -2.266  -0.374  23.347  0.00  0.00    -0.343 OA
ATOM      2  O   UNL     1      -3.092  -1.625  25.117  0.00  0.00    -0.347 OA
ATOM      8  C   UNL     1      -2.194   0.575  25.567  0.00  0.00    +0.143 C 
ATOM      9  C   UNL     1      -0.786  -0.023  25.792  0.00  0.00    +0.156 C 
ATOM     10  C   UNL     1      -0.194  -0.722  24.543  0.00  0.00    +0.116 C 
ATOM     11  C   UNL     1      -1.281  -1.366  23.653  0.00  0.00    +0.166 C 
ATOM     12  C   UNL     1      -2.996  -0.295  24.580  0.00  0.00    +0.270 C 
ATOM     13  C   UNL     1      -2.140  -2.394  24.367  0.00  0.00    +0.196 C 
ENDROOT
BRANCH   8   4
ATOM      4  N   UNL     1      -2.100   1.943  25.063  0.00  0.00    -0.290 NA
ATOM      6  N   UNL     1      -2.056   4.814  25.403  0.00  0.00    -0.303 NA
ATOM     14  C   UNL     1      -0.928   2.627  25.625  0.00  0.00    +0.100 C 
ATOM     15  C   UNL     1      -3.325   2.694  25.364  0.00  0.00    +0.100 C 
ATOM     16  C   UNL     1      -0.831   4.063  25.101  0.00  0.00    +0.099 C 
ATOM     17  C   UNL     1      -3.227   4.131  24.840  0.00  0.00    +0.099 C 
ATOM     19  C   UNL     1      -1.962   6.183  24.901  0.00  0.00    +0.105 C 
ENDBRANCH   8   4
BRANCH   9   3
ATOM      3  O   UNL     1      -0.889  -0.989  26.848  0.00  0.00    -0.388 OA
ATOM     26  H   UNL     1      -0.259  -1.705  26.655  0.00  0.00    +0.210 HD
ENDBRANCH   9   3
BRANCH  10   5
ATOM      5  N   UNL     1       0.557   0.237  23.725  0.00  0.00    -0.305 NA
ATOM     25  H   UNL     1       1.139   0.818  24.327  0.00  0.00    +0.123 HD
BRANCH   5  18
ATOM     18  C   UNL     1       1.378  -0.459  22.749  0.00  0.00    +0.116 C 
BRANCH  18  20
ATOM      7  N   UNL     1       5.570  -0.106  23.642  0.00  0.00    -0.263 NA
ATOM     20  C   UNL     1       2.845  -0.335  23.061  0.00  0.00    -0.031 A 
ATOM     21  C   UNL     1       3.525  -1.393  23.654  0.00  0.00    +0.024 A 
ATOM     22  C   UNL     1       3.528   0.838  22.759  0.00  0.00    +0.024 A 
ATOM     23  C   UNL     1       4.874  -1.231  23.922  0.00  0.00    +0.111 A 
ATOM     24  C   UNL     1       4.877   0.902  23.067  0.00  0.00    +0.111 A 
ENDBRANCH  18  20
ENDBRANCH   5  18
ENDBRANCH  10   5
TORSDOF 5
ENDMDL
MODEL 2
REMARK VINA RESULT:      -2.1      2.970      5.504
REMARK  Name = 45360563
REMARK  6 active torsions:
REMARK  status: ('A' for Active; 'I' for Inactive)
REMARK    1  A    between atoms: O_3  and  C_9
REMARK    2  A    between atoms: N_4  and  C_8
REMARK    3  A    between atoms: N_5  and  C_10
REMARK    4  A    between atoms: N_5  and  C_18
REMARK    5  A    between atoms: N_6  and  C_19
REMARK    6  A    between atoms: C_18  and  C_20
REMARK                            x       y       z     vdW  Elec       q    Type
REMARK                         _______ _______ _______ _____ _____    ______ ____
ROOT
ATOM      1  O   UNL     1      -4.332   2.926  26.577  0.00  0.00    -0.343 OA
ATOM      2  O   UNL     1      -5.854   4.016  25.209  0.00  0.00    -0.347 OA
ATOM      8  C   UNL     1      -4.463   2.285  24.253  0.00  0.00    +0.143 C 
ATOM      9  C   UNL     1      -3.380   3.327  23.890  0.00  0.00    +0.156 C 
ATOM     10  C   UNL     1      -2.767   4.048  25.116  0.00  0.00    +0.116 C 
ATOM     11  C   UNL     1      -3.777   4.210  26.274  0.00  0.00    +0.166 C 
ATOM     12  C   UNL     1      -5.254   2.742  25.493  0.00  0.00    +0.270 C 
ATOM     13  C   UNL     1      -5.035   4.972  25.899  0.00  0.00    +0.196 C 
ENDROOT
BRANCH   8   4
ATOM      4  N   UNL     1      -3.861   0.977  24.499  0.00  0.00    -0.290 NA
ATOM      6  N   UNL     1      -3.914  -1.913  24.551  0.00  0.00    -0.303 NA
ATOM     14  C   UNL     1      -3.796   0.190  23.261  0.00  0.00    +0.100 C 
ATOM     15  C   UNL     1      -4.604   0.247  25.532  0.00  0.00    +0.100 C 
ATOM     16  C   UNL     1      -3.168  -1.183  23.518  0.00  0.00    +0.099 C 
ATOM     17  C   UNL     1      -3.976  -1.128  25.789  0.00  0.00    +0.099 C 
ATOM     19  C   UNL     1      -3.313  -3.223  24.796  0.00  0.00    +0.105 C 
ENDBRANCH   8   4
BRANCH   9   3
ATOM      3  O   UNL     1      -3.991   4.311  23.042  0.00  0.00    -0.388 OA
ATOM     26  H   UNL     1      -3.290   4.702  22.492  0.00  0.00    +0.210 HD
ENDBRANCH   9   3
BRANCH  10   5
ATOM      5  N   UNL     1      -1.606   3.306  25.622  0.00  0.00    -0.305 NA
ATOM     25  H   UNL     1      -1.924   2.486  26.138  0.00  0.00    +0.123 HD
BRANCH   5  18
ATOM     18  C   UNL     1      -0.739   2.907  24.527  0.00  0.00    +0.116 C 
BRANCH  18  20
ATOM      7  N   UNL     1       0.059  -1.319  24.573  0.00  0.00    -0.263 NA
ATOM     20  C   UNL     1      -0.460   1.428  24.544  0.00  0.00    -0.031 A 
ATOM     21  C   UNL     1       0.200   0.830  23.475  0.00  0.00    +0.024 A 
ATOM     22  C   UNL     1      -0.860   0.653  25.626  0.00  0.00    +0.024 A 
ATOM     23  C   UNL     1       0.433  -0.534  23.537  0.00  0.00    +0.111 A 
ATOM     24  C   UNL     1      -0.580  -0.703  25.593  0.00  0.00    +0.111 A 
ENDBRANCH  18  20
ENDBRANCH   5  18
ENDBRANCH  10   5
TORSDOF 5
ENDMDL
MODEL 3
REMARK VINA RESULT:      -1.8      2.050      4.312
REMARK  Name = 45360563
REMARK  6 active torsions:
REMARK  status: ('A' for Active; 'I' for Inactive)
REMARK    1  A    between atoms: O_3  and  C_9
REMARK    2  A    between atoms: N_4  and  C_8
REMARK    3  A    between atoms: N_5  and  C_10
REMARK    4  A    between atoms: N_5  and  C_18
REMARK    5  A    between atoms: N_6  and  C_19
REMARK    6  A    between atoms: C_18  and  C_20
REMARK                            x       y       z     vdW  Elec       q    Type
REMARK                         _______ _______ _______ _____ _____    ______ ____
ROOT
ATOM      1  O   UNL     1      -0.969   2.615  26.149  0.00  0.00    -0.343 OA
ATOM      2  O   UNL     1      -2.271   4.221  25.099  0.00  0.00    -0.347 OA
ATOM      8  C   UNL     1      -2.526   1.908  24.444  0.00  0.00    +0.143 C 
ATOM      9  C   UNL     1      -1.436   2.072  23.360  0.00  0.00    +0.156 C 
ATOM     10  C   UNL     1      -0.041   2.436  23.924  0.00  0.00    +0.116 C 
ATOM     11  C   UNL     1      -0.124   3.288  25.210  0.00  0.00    +0.166 C 
ATOM     12  C   UNL     1      -2.273   2.879  25.613  0.00  0.00    +0.270 C 
ATOM     13  C   UNL     1      -0.885   4.592  25.043  0.00  0.00    +0.196 C 
ENDROOT
BRANCH   8   4
ATOM      4  N   UNL     1      -2.562   0.533  24.937  0.00  0.00    -0.290 NA
ATOM      6  N   UNL     1      -3.351  -2.244  24.767  0.00  0.00    -0.303 NA
ATOM     14  C   UNL     1      -1.931  -0.383  23.978  0.00  0.00    +0.100 C 
ATOM     15  C   UNL     1      -3.941   0.114  25.215  0.00  0.00    +0.100 C 
ATOM     16  C   UNL     1      -1.971  -1.825  24.491  0.00  0.00    +0.099 C 
ATOM     17  C   UNL     1      -3.981  -1.330  25.728  0.00  0.00    +0.099 C 
ATOM     19  C   UNL     1      -3.388  -3.619  25.259  0.00  0.00    +0.105 C 
ENDBRANCH   8   4
BRANCH   9   3
ATOM      3  O   UNL     1      -1.858   3.122  22.477  0.00  0.00    -0.388 OA
ATOM     26  H   UNL     1      -2.719   3.446  22.794  0.00  0.00    +0.210 HD
ENDBRANCH   9   3
BRANCH  10   5
ATOM      5  N   UNL     1       0.723   1.221  24.230  0.00  0.00    -0.305 NA
ATOM     25  H   UNL     1       0.120   0.549  24.704  0.00  0.00    +0.123 HD
BRANCH   5  18
ATOM     18  C   UNL     1       1.267   0.640  23.014  0.00  0.00    +0.116 C 
BRANCH  18  20
ATOM      7  N   UNL     1       5.379  -0.523  23.497  0.00  0.00    -0.263 NA
ATOM     20  C   UNL     1       2.706   0.233  23.183  0.00  0.00    -0.031 A 
ATOM     21  C   UNL     1       3.023  -1.055  23.600  0.00  0.00    +0.024 A 
ATOM     22  C   UNL     1       3.724   1.143  22.923  0.00  0.00    +0.024 A 
ATOM     23  C   UNL     1       4.362  -1.381  23.740  0.00  0.00    +0.111 A 
ATOM     24  C   UNL     1       5.033   0.720  23.093  0.00  0.00    +0.111 A 
ENDBRANCH  18  20
ENDBRANCH   5  18
ENDBRANCH  10   5
TORSDOF 5
ENDMDL
MODEL 4
REMARK VINA RESULT:      -1.6      2.960      5.554
REMARK  Name = 45360563
REMARK  6 active torsions:
REMARK  status: ('A' for Active; 'I' for Inactive)
REMARK    1  A    between atoms: O_3  and  C_9
REMARK    2  A    between atoms: N_4  and  C_8
REMARK    3  A    between atoms: N_5  and  C_10
REMARK    4  A    between atoms: N_5  and  C_18
REMARK    5  A    between atoms: N_6  and  C_19
REMARK    6  A    between atoms: C_18  and  C_20
REMARK                            x       y       z     vdW  Elec       q    Type
REMARK                         _______ _______ _______ _____ _____    ______ ____
ROOT
ATOM      1  O   UNL     1      -2.372  -0.642  25.942  0.00  0.00    -0.343 OA
ATOM      2  O   UNL     1      -0.357  -1.787  25.879  0.00  0.00    -0.347 OA
ATOM      8  C   UNL     1      -0.512   0.353  24.766  0.00  0.00    +0.143 C 
ATOM      9  C   UNL     1      -0.954  -0.337  23.455  0.00  0.00    +0.156 C 
ATOM     10  C   UNL     1      -2.293  -1.106  23.571  0.00  0.00    +0.116 C 
ATOM     11  C   UNL     1      -2.519  -1.693  24.982  0.00  0.00    +0.166 C 
ATOM     12  C   UNL     1      -0.947  -0.481  25.986  0.00  0.00    +0.270 C 
ATOM     13  C   UNL     1      -1.426  -2.640  25.443  0.00  0.00    +0.196 C 
ENDROOT
BRANCH   8   4
ATOM      4  N   UNL     1      -1.074   1.699  24.857  0.00  0.00    -0.290 NA
ATOM      6  N   UNL     1      -0.850   4.577  25.016  0.00  0.00    -0.303 NA
ATOM     14  C   UNL     1      -0.699   2.501  23.685  0.00  0.00    +0.100 C 
ATOM     15  C   UNL     1      -0.641   2.363  26.092  0.00  0.00    +0.100 C 
ATOM     16  C   UNL     1      -1.285   3.914  23.781  0.00  0.00    +0.099 C 
ATOM     17  C   UNL     1      -1.226   3.776  26.187  0.00  0.00    +0.099 C 
ATOM     19  C   UNL     1      -1.410   5.924  25.106  0.00  0.00    +0.105 C 
ENDBRANCH   8   4
BRANCH   9   3
ATOM      3  O   UNL     1       0.075  -1.267  23.087  0.00  0.00    -0.388 OA
ATOM     26  H   UNL     1       0.345  -1.742  23.892  0.00  0.00    +0.210 HD
ENDBRANCH   9   3
BRANCH  10   5
ATOM      5  N   UNL     1      -3.422  -0.223  23.257  0.00  0.00    -0.305 NA
ATOM     25  H   UNL     1      -3.818  -0.483  22.354  0.00  0.00    +0.123 HD
BRANCH   5  18
ATOM     18  C   UNL     1      -4.435  -0.303  24.294  0.00  0.00    +0.116 C 
BRANCH  18  20
ATOM      7  N   UNL     1      -5.583   3.589  25.719  0.00  0.00    -0.263 NA
ATOM     20  C   UNL     1      -4.837   1.059  24.793  0.00  0.00    -0.031 A 
ATOM     21  C   UNL     1      -5.764   1.181  25.822  0.00  0.00    +0.024 A 
ATOM     22  C   UNL     1      -4.283   2.202  24.226  0.00  0.00    +0.024 A 
ATOM     23  C   UNL     1      -6.101   2.456  26.245  0.00  0.00    +0.111 A 
ATOM     24  C   UNL     1      -4.685   3.432  24.720  0.00  0.00    +0.111 A 
ENDBRANCH  18  20
ENDBRANCH   5  18
ENDBRANCH  10   5
TORSDOF 5
ENDMDL
MODEL 5
REMARK VINA RESULT:      -1.5      2.960      3.903
REMARK  Name = 45360563
REMARK  6 active torsions:
REMARK  status: ('A' for Active; 'I' for Inactive)
REMARK    1  A    between atoms: O_3  and  C_9
REMARK    2  A    between atoms: N_4  and  C_8
REMARK    3  A    between atoms: N_5  and  C_10
REMARK    4  A    between atoms: N_5  and  C_18
REMARK    5  A    between atoms: N_6  and  C_19
REMARK    6  A    between atoms: C_18  and  C_20
REMARK                            x       y       z     vdW  Elec       q    Type
REMARK                         _______ _______ _______ _____ _____    ______ ____
ROOT
ATOM      1  O   UNL     1      -2.716  -1.158  23.339  0.00  0.00    -0.343 OA
ATOM      2  O   UNL     1      -4.174  -2.596  24.426  0.00  0.00    -0.347 OA
ATOM      8  C   UNL     1      -3.870  -0.365  25.307  0.00  0.00    +0.143 C 
ATOM      9  C   UNL     1      -2.709  -0.853  26.203  0.00  0.00    +0.156 C 
ATOM     10  C   UNL     1      -1.498  -1.408  25.413  0.00  0.00    +0.116 C 
ATOM     11  C   UNL     1      -1.914  -2.080  24.085  0.00  0.00    +0.166 C 
ATOM     12  C   UNL     1      -3.968  -1.229  24.035  0.00  0.00    +0.270 C 
ATOM     13  C   UNL     1      -2.896  -3.226  24.249  0.00  0.00    +0.196 C 
ENDROOT
BRANCH   8   4
ATOM      4  N   UNL     1      -3.689   1.039  24.943  0.00  0.00    -0.290 NA
ATOM      6  N   UNL     1      -4.441   3.454  23.544  0.00  0.00    -0.303 NA
ATOM     14  C   UNL     1      -4.839   1.843  25.374  0.00  0.00    +0.100 C 
ATOM     15  C   UNL     1      -3.476   1.180  23.498  0.00  0.00    +0.100 C 
ATOM     16  C   UNL     1      -4.652   3.314  24.990  0.00  0.00    +0.099 C 
ATOM     17  C   UNL     1      -3.289   2.652  23.115  0.00  0.00    +0.099 C 
ATOM     19  C   UNL     1      -4.261   4.858  23.180  0.00  0.00    +0.105 C 
ENDBRANCH   8   4
BRANCH   9   3
ATOM      3  O   UNL     1      -3.221  -1.897  27.045  0.00  0.00    -0.388 OA
ATOM     26  H   UNL     1      -4.082  -1.602  27.388  0.00  0.00    +0.210 HD
ENDBRANCH   9   3
BRANCH  10   5
ATOM      5  N   UNL     1      -0.549  -0.333  25.104  0.00  0.00    -0.305 NA
ATOM     25  H   UNL     1      -0.769   0.065  24.191  0.00  0.00    +0.123 HD
BRANCH   5  18
ATOM     18  C   UNL     1      -0.595   0.697  26.127  0.00  0.00    +0.116 C 
BRANCH  18  20
ATOM      7  N   UNL     1      -0.587   4.647  24.424  0.00  0.00    -0.263 NA
ATOM     20  C   UNL     1      -0.591   2.079  25.531  0.00  0.00    -0.031 A 
ATOM     21  C   UNL     1      -1.328   3.098  26.126  0.00  0.00    +0.024 A 
ATOM     22  C   UNL     1       0.147   2.344  24.383  0.00  0.00    +0.024 A 
ATOM     23  C   UNL     1      -1.293   4.353  25.540  0.00  0.00    +0.111 A 
ATOM     24  C   UNL     1       0.117   3.632  23.874  0.00  0.00    +0.111 A 
ENDBRANCH  18  20
ENDBRANCH   5  18
ENDBRANCH  10   5
TORSDOF 5
ENDMDL
MODEL 6
REMARK VINA RESULT:      -1.1      3.285      7.011
REMARK  Name = 45360563
REMARK  6 active torsions:
REMARK  status: ('A' for Active; 'I' for Inactive)
REMARK    1  A    between atoms: O_3  and  C_9
REMARK    2  A    between atoms: N_4  and  C_8
REMARK    3  A    between atoms: N_5  and  C_10
REMARK    4  A    between atoms: N_5  and  C_18
REMARK    5  A    between atoms: N_6  and  C_19
REMARK    6  A    between atoms: C_18  and  C_20
REMARK                            x       y       z     vdW  Elec       q    Type
REMARK                         _______ _______ _______ _____ _____    ______ ____
ROOT
ATOM      1  O   UNL     1      -0.126   1.450  23.297  0.00  0.00    -0.343 OA
ATOM      2  O   UNL     1       0.798   2.133  25.312  0.00  0.00    -0.347 OA
ATOM      8  C   UNL     1      -1.201   0.774  25.351  0.00  0.00    +0.143 C 
ATOM      9  C   UNL     1      -2.088   2.040  25.320  0.00  0.00    +0.156 C 
ATOM     10  C   UNL     1      -1.913   2.898  24.043  0.00  0.00    +0.116 C 
ATOM     11  C   UNL     1      -0.478   2.827  23.473  0.00  0.00    +0.166 C 
ATOM     12  C   UNL     1       0.142   1.042  24.646  0.00  0.00    +0.270 C 
ATOM     13  C   UNL     1       0.600   3.263  24.449  0.00  0.00    +0.196 C 
ENDROOT
BRANCH   8   4
ATOM      4  N   UNL     1      -1.883  -0.351  24.715  0.00  0.00    -0.290 NA
ATOM      6  N   UNL     1      -3.318  -2.861  24.776  0.00  0.00    -0.303 NA
ATOM     14  C   UNL     1      -3.288  -0.417  25.137  0.00  0.00    +0.100 C 
ATOM     15  C   UNL     1      -1.198  -1.614  25.015  0.00  0.00    +0.100 C 
ATOM     16  C   UNL     1      -4.003  -1.598  24.474  0.00  0.00    +0.099 C 
ATOM     17  C   UNL     1      -1.914  -2.795  24.352  0.00  0.00    +0.099 C 
ATOM     19  C   UNL     1      -4.000  -3.986  24.141  0.00  0.00    +0.105 C 
ENDBRANCH   8   4
BRANCH   9   3
ATOM      3  O   UNL     1      -1.740   2.841  26.459  0.00  0.00    -0.388 OA
ATOM     26  H   UNL     1      -1.396   2.244  27.145  0.00  0.00    +0.210 HD
ENDBRANCH   9   3
BRANCH  10   5
ATOM      5  N   UNL     1      -2.843   2.458  22.997  0.00  0.00    -0.305 NA
ATOM     25  H   UNL     1      -3.034   1.463  23.105  0.00  0.00    +0.123 HD
BRANCH   5  18
ATOM     18  C   UNL     1      -4.079   3.219  23.060  0.00  0.00    +0.116 C 
BRANCH  18  20
ATOM      7  N   UNL     1      -6.272   2.411  26.671  0.00  0.00    -0.263 NA
ATOM     20  C   UNL     1      -4.846   2.936  24.324  0.00  0.00    -0.031 A 
ATOM     21  C   UNL     1      -5.560   1.750  24.457  0.00  0.00    +0.024 A 
ATOM     22  C   UNL     1      -4.845   3.860  25.363  0.00  0.00    +0.024 A 
ATOM     23  C   UNL     1      -6.250   1.537  25.640  0.00  0.00    +0.111 A 
ATOM     24  C   UNL     1      -5.567   3.553  26.505  0.00  0.00    +0.111 A 
ENDBRANCH  18  20
ENDBRANCH   5  18
ENDBRANCH  10   5
TORSDOF 5
ENDMDL
MODEL 7
REMARK VINA RESULT:      -0.8      3.326      7.013
REMARK  Name = 45360563
REMARK  6 active torsions:
REMARK  status: ('A' for Active; 'I' for Inactive)
REMARK    1  A    between atoms: O_3  and  C_9
REMARK    2  A    between atoms: N_4  and  C_8
REMARK    3  A    between atoms: N_5  and  C_10
REMARK    4  A    between atoms: N_5  and  C_18
REMARK    5  A    between atoms: N_6  and  C_19
REMARK    6  A    between atoms: C_18  and  C_20
REMARK                            x       y       z     vdW  Elec       q    Type
REMARK                         _______ _______ _______ _____ _____    ______ ____
ROOT
ATOM      1  O   UNL     1      -1.620   2.834  23.935  0.00  0.00    -0.343 OA
ATOM      2  O   UNL     1       0.688   3.002  23.777  0.00  0.00    -0.347 OA
ATOM      8  C   UNL     1      -0.259   1.249  25.147  0.00  0.00    +0.143 C 
ATOM      9  C   UNL     1      -0.249   2.179  26.382  0.00  0.00    +0.156 C 
ATOM     10  C   UNL     1      -1.142   3.435  26.228  0.00  0.00    +0.116 C 
ATOM     11  C   UNL     1      -1.223   3.930  24.767  0.00  0.00    +0.166 C 
ATOM     12  C   UNL     1      -0.406   2.073  23.854  0.00  0.00    +0.270 C 
ATOM     13  C   UNL     1       0.123   4.268  24.150  0.00  0.00    +0.196 C 
ENDROOT
BRANCH   8   4
ATOM      4  N   UNL     1      -1.342   0.273  25.243  0.00  0.00    -0.290 NA
ATOM      6  N   UNL     1      -2.897  -1.953  24.251  0.00  0.00    -0.303 NA
ATOM     14  C   UNL     1      -0.811  -1.096  25.261  0.00  0.00    +0.100 C 
ATOM     15  C   UNL     1      -2.294   0.440  24.138  0.00  0.00    +0.100 C 
ATOM     16  C   UNL     1      -1.946  -2.120  25.358  0.00  0.00    +0.099 C 
ATOM     17  C   UNL     1      -3.428  -0.585  24.235  0.00  0.00    +0.099 C 
ATOM     19  C   UNL     1      -3.980  -2.930  24.345  0.00  0.00    +0.105 C 
ENDBRANCH   8   4
BRANCH   9   3
ATOM      3  O   UNL     1       1.105   2.607  26.593  0.00  0.00    -0.388 OA
ATOM     26  H   UNL     1       1.561   1.905  27.088  0.00  0.00    +0.210 HD
ENDBRANCH   9   3
BRANCH  10   5
ATOM      5  N   UNL     1      -2.506   3.156  26.692  0.00  0.00    -0.305 NA
ATOM     25  H   UNL     1      -2.593   3.417  27.674  0.00  0.00    +0.123 HD
BRANCH   5  18
ATOM     18  C   UNL     1      -3.476   3.881  25.889  0.00  0.00    +0.116 C 
BRANCH  18  20
ATOM      7  N   UNL     1      -6.943   1.488  25.021  0.00  0.00    -0.263 NA
ATOM     20  C   UNL     1      -4.689   3.044  25.585  0.00  0.00    -0.031 A 
ATOM     21  C   UNL     1      -5.551   2.665  26.609  0.00  0.00    +0.024 A 
ATOM     22  C   UNL     1      -4.953   2.645  24.280  0.00  0.00    +0.024 A 
ATOM     23  C   UNL     1      -6.654   1.894  26.278  0.00  0.00    +0.111 A 
ATOM     24  C   UNL     1      -6.082   1.875  24.052  0.00  0.00    +0.111 A 
ENDBRANCH  18  20
ENDBRANCH   5  18
ENDBRANCH  10   5
TORSDOF 5
ENDMDL
MODEL 8
REMARK VINA RESULT:      -0.7      1.424      6.364
REMARK  Name = 45360563
REMARK  6 active torsions:
REMARK  status: ('A' for Active; 'I' for Inactive)
REMARK    1  A    between atoms: O_3  and  C_9
REMARK    2  A    between atoms: N_4  and  C_8
REMARK    3  A    between atoms: N_5  and  C_10
REMARK    4  A    between atoms: N_5  and  C_18
REMARK    5  A    between atoms: N_6  and  C_19
REMARK    6  A    between atoms: C_18  and  C_20
REMARK                            x       y       z     vdW  Elec       q    Type
REMARK                         _______ _______ _______ _____ _____    ______ ____
ROOT
ATOM      1  O   UNL     1      -0.257  -1.162  25.662  0.00  0.00    -0.343 OA
ATOM      2  O   UNL     1      -1.705  -1.856  23.990  0.00  0.00    -0.347 OA
ATOM      8  C   UNL     1       0.191  -0.482  23.389  0.00  0.00    +0.143 C 
ATOM      9  C   UNL     1      -0.648   0.801  23.592  0.00  0.00    +0.156 C 
ATOM     10  C   UNL     1      -1.155   0.996  25.042  0.00  0.00    +0.116 C 
ATOM     11  C   UNL     1      -1.429  -0.345  25.759  0.00  0.00    +0.166 C 
ATOM     12  C   UNL     1      -0.324  -1.611  24.302  0.00  0.00    +0.270 C 
ATOM     13  C   UNL     1      -2.439  -1.232  25.054  0.00  0.00    +0.196 C 
ENDROOT
BRANCH   8   4
ATOM      4  N   UNL     1       1.603  -0.225  23.660  0.00  0.00    -0.290 NA
ATOM      6  N   UNL     1       4.395  -0.139  22.913  0.00  0.00    -0.303 NA
ATOM     14  C   UNL     1       2.124   0.823  22.773  0.00  0.00    +0.100 C 
ATOM     15  C   UNL     1       2.393  -1.454  23.521  0.00  0.00    +0.100 C 
ATOM     16  C   UNL     1       3.605   1.091  23.055  0.00  0.00    +0.099 C 
ATOM     17  C   UNL     1       3.876  -1.186  23.801  0.00  0.00    +0.099 C 
ATOM     19  C   UNL     1       5.808   0.117  23.183  0.00  0.00    +0.105 C 
ENDBRANCH   8   4
BRANCH   9   3
ATOM      3  O   UNL     1      -1.784   0.719  22.719  0.00  0.00    -0.388 OA
ATOM     26  H   UNL     1      -2.577   0.909  23.250  0.00  0.00    +0.210 HD
ENDBRANCH   9   3
BRANCH  10   5
ATOM      5  N   UNL     1      -0.173   1.746  25.834  0.00  0.00    -0.305 NA
ATOM     25  H   UNL     1       0.766   1.543  25.494  0.00  0.00    +0.123 HD
BRANCH   5  18
ATOM     18  C   UNL     1      -0.440   3.172  25.758  0.00  0.00    +0.116 C 
BRANCH  18  20
ATOM      7  N   UNL     1      -4.614   3.990  25.124  0.00  0.00    -0.263 NA
ATOM     20  C   UNL     1      -1.901   3.458  25.537  0.00  0.00    -0.031 A 
ATOM     21  C   UNL     1      -2.403   3.564  24.244  0.00  0.00    +0.024 A 
ATOM     22  C   UNL     1      -2.754   3.618  26.623  0.00  0.00    +0.024 A 
ATOM     23  C   UNL     1      -3.754   3.829  24.093  0.00  0.00    +0.111 A 
ATOM     24  C   UNL     1      -4.090   3.881  26.365  0.00  0.00    +0.111 A 
ENDBRANCH  18  20
ENDBRANCH   5  18
ENDBRANCH  10   5
TORSDOF 5
ENDMDL
MODEL 9
REMARK VINA RESULT:      -0.6      2.657      3.841
REMARK  Name = 45360563
REMARK  6 active torsions:
REMARK  status: ('A' for Active; 'I' for Inactive)
REMARK    1  A    between atoms: O_3  and  C_9
REMARK    2  A    between atoms: N_4  and  C_8
REMARK    3  A    between atoms: N_5  and  C_10
REMARK    4  A    between atoms: N_5  and  C_18
REMARK    5  A    between atoms: N_6  and  C_19
REMARK    6  A    between atoms: C_18  and  C_20
REMARK                            x       y       z     vdW  Elec       q    Type
REMARK                         _______ _______ _______ _____ _____    ______ ____
ROOT
ATOM      1  O   UNL     1      -3.416  -1.488  23.563  0.00  0.00    -0.343 OA
ATOM      2  O   UNL     1      -3.365  -2.853  25.436  0.00  0.00    -0.347 OA
ATOM      8  C   UNL     1      -3.433  -0.456  25.746  0.00  0.00    +0.143 C 
ATOM      9  C   UNL     1      -1.888  -0.391  25.743  0.00  0.00    +0.156 C 
ATOM     10  C   UNL     1      -1.243  -0.854  24.414  0.00  0.00    +0.116 C 
ATOM     11  C   UNL     1      -2.069  -1.951  23.705  0.00  0.00    +0.166 C 
ATOM     12  C   UNL     1      -3.922  -1.644  24.896  0.00  0.00    +0.270 C 
ATOM     13  C   UNL     1      -2.295  -3.197  24.542  0.00  0.00    +0.196 C 
ENDROOT
BRANCH   8   4
ATOM      4  N   UNL     1      -4.004   0.789  25.240  0.00  0.00    -0.290 NA
ATOM      6  N   UNL     1      -5.281   3.361  25.578  0.00  0.00    -0.303 NA
ATOM     14  C   UNL     1      -3.260   1.949  25.746  0.00  0.00    +0.100 C 
ATOM     15  C   UNL     1      -5.424   0.895  25.597  0.00  0.00    +0.100 C 
ATOM     16  C   UNL     1      -3.861   3.256  25.219  0.00  0.00    +0.099 C 
ATOM     17  C   UNL     1      -6.024   2.203  25.070  0.00  0.00    +0.099 C 
ATOM     19  C   UNL     1      -5.852   4.608  25.073  0.00  0.00    +0.105 C 
ENDBRANCH   8   4
BRANCH   9   3
ATOM      3  O   UNL     1      -1.416  -1.241  26.799  0.00  0.00    -0.388 OA
ATOM     26  H   UNL     1      -1.018  -0.671  27.479  0.00  0.00    +0.210 HD
ENDBRANCH   9   3
BRANCH  10   5
ATOM      5  N   UNL     1      -1.099   0.277  23.490  0.00  0.00    -0.305 NA
ATOM     25  H   UNL     1      -1.908   0.891  23.573  0.00  0.00    +0.123 HD
BRANCH   5  18
ATOM     18  C   UNL     1       0.122   1.011  23.771  0.00  0.00    +0.116 C 
BRANCH  18  20
ATOM      7  N   UNL     1      -0.690   4.933  25.338  0.00  0.00    -0.263 NA
ATOM     20  C   UNL     1      -0.162   2.384  24.319  0.00  0.00    -0.031 A 
ATOM     21  C   UNL     1      -0.520   3.418  23.462  0.00  0.00    +0.024 A 
ATOM     22  C   UNL     1      -0.068   2.623  25.686  0.00  0.00    +0.024 A 
ATOM     23  C   UNL     1      -0.772   4.663  24.015  0.00  0.00    +0.111 A 
ATOM     24  C   UNL     1      -0.339   3.904  26.141  0.00  0.00    +0.111 A 
ENDBRANCH  18  20
ENDBRANCH   5  18
ENDBRANCH  10   5
TORSDOF 5
ENDMDL
MODEL 10
REMARK VINA RESULT:      -0.5      2.763      6.184
REMARK  Name = 45360563
REMARK  6 active torsions:
REMARK  status: ('A' for Active; 'I' for Inactive)
REMARK    1  A    between atoms: O_3  and  C_9
REMARK    2  A    between atoms: N_4  and  C_8
REMARK    3  A    between atoms: N_5  and  C_10
REMARK    4  A    between atoms: N_5  and  C_18
REMARK    5  A    between atoms: N_6  and  C_19
REMARK    6  A    between atoms: C_18  and  C_20
REMARK                            x       y       z     vdW  Elec       q    Type
REMARK                         _______ _______ _______ _____ _____    ______ ____
ROOT
ATOM      1  O   UNL     1      -1.634   4.025  23.692  0.00  0.00    -0.343 OA
ATOM      2  O   UNL     1      -1.706   5.586  25.406  0.00  0.00    -0.347 OA
ATOM      8  C   UNL     1      -1.027   3.323  25.922  0.00  0.00    +0.143 C 
ATOM      9  C   UNL     1      -2.493   2.927  26.212  0.00  0.00    +0.156 C 
ATOM     10  C   UNL     1      -3.432   3.058  24.988  0.00  0.00    +0.116 C 
ATOM     11  C   UNL     1      -3.011   4.202  24.038  0.00  0.00    +0.166 C 
ATOM     12  C   UNL     1      -0.973   4.463  24.888  0.00  0.00    +0.270 C 
ATOM     13  C   UNL     1      -2.954   5.569  24.698  0.00  0.00    +0.196 C 
ENDROOT
BRANCH   8   4
ATOM      4  N   UNL     1      -0.266   2.174  25.438  0.00  0.00    -0.290 NA
ATOM      6  N   UNL     1       0.306   0.088  23.519  0.00  0.00    -0.303 NA
ATOM     14  C   UNL     1       0.374   2.475  24.152  0.00  0.00    +0.100 C 
ATOM     15  C   UNL     1      -1.128   0.991  25.317  0.00  0.00    +0.100 C 
ATOM     16  C   UNL     1       1.169   1.269  23.641  0.00  0.00    +0.099 C 
ATOM     17  C   UNL     1      -0.333  -0.214  24.805  0.00  0.00    +0.099 C 
ATOM     19  C   UNL     1       1.066  -1.062  23.033  0.00  0.00    +0.105 C 
ENDBRANCH   8   4
BRANCH   9   3
ATOM      3  O   UNL     1      -2.978   3.789  27.252  0.00  0.00    -0.388 OA
ATOM     26  H   UNL     1      -2.592   4.670  27.108  0.00  0.00    +0.210 HD
ENDBRANCH   9   3
BRANCH  10   5
ATOM      5  N   UNL     1      -3.451   1.809  24.218  0.00  0.00    -0.305 NA
ATOM     25  H   UNL     1      -2.563   1.322  24.335  0.00  0.00    +0.123 HD
BRANCH   5  18
ATOM     18  C   UNL     1      -4.551   0.963  24.647  0.00  0.00    +0.116 C 
BRANCH  18  20
ATOM      7  N   UNL     1      -3.402  -3.177  24.851  0.00  0.00    -0.263 NA
ATOM     20  C   UNL     1      -4.149  -0.486  24.719  0.00  0.00    -0.031 A 
ATOM     21  C   UNL     1      -4.311  -1.311  23.611  0.00  0.00    +0.024 A 
ATOM     22  C   UNL     1      -3.614  -1.005  25.893  0.00  0.00    +0.024 A 
ATOM     23  C   UNL     1      -3.925  -2.636  23.727  0.00  0.00    +0.111 A 
ATOM     24  C   UNL     1      -3.260  -2.345  25.908  0.00  0.00    +0.111 A 
ENDBRANCH  18  20
ENDBRANCH   5  18
ENDBRANCH  10   5
TORSDOF 5
ENDMDL
