MODEL 1
REMARK VINA RESULT:      -0.9      0.000      0.000
REMARK  Name = 7142707
REMARK  7 active torsions:
REMARK  status: ('A' for Active; 'I' for Inactive)
REMARK    1  A    between atoms: N_7  and  C_20
REMARK    2  A    between atoms: C_15  and  C_18
REMARK    3  A    between atoms: C_18  and  C_19
REMARK    4  A    between atoms: C_19  and  C_22
REMARK    5  A    between atoms: C_19  and  C_23
REMARK    6  A    between atoms: C_19  and  C_24
REMARK    7  A    between atoms: C_25  and  C_26
REMARK                            x       y       z     vdW  Elec       q    Type
REMARK                         _______ _______ _______ _____ _____    ______ ____
ROOT
ATOM      2  O   UNL     1      -4.562  -0.259  26.776  0.00  0.00    -0.276 OA
ATOM      3  O   UNL     1      -0.013   2.465  26.020  0.00  0.00    -0.266 OA
ATOM      5  N   UNL     1      -4.885   1.488  25.279  0.00  0.00    -0.301 N 
ATOM      6  N   UNL     1      -2.018   2.844  24.880  0.00  0.00    -0.310 N 
ATOM      8  C   UNL     1      -4.119   3.742  26.034  0.00  0.00    +0.027 C 
ATOM      9  C   UNL     1      -4.176   3.214  23.633  0.00  0.00    +0.054 C 
ATOM     10  C   UNL     1      -4.462   4.306  24.661  0.00  0.00    +0.018 C 
ATOM     11  C   UNL     1      -4.974   2.498  26.334  0.00  0.00    +0.113 C 
ATOM     12  C   UNL     1      -5.075   1.993  23.911  0.00  0.00    +0.117 C 
ATOM     13  C   UNL     1      -2.618   3.436  26.082  0.00  0.00    +0.130 C 
ATOM     14  C   UNL     1      -2.718   2.797  23.669  0.00  0.00    +0.027 A 
ATOM     15  C   UNL     1      -4.720   0.145  25.622  0.00  0.00    +0.216 C 
ATOM     16  C   UNL     1      -2.110   2.359  22.554  0.00  0.00    +0.024 A 
ATOM     17  C   UNL     1      -0.675   2.426  24.981  0.00  0.00    +0.273 A 
ATOM     20  C   UNL     1      -0.043   1.921  23.721  0.00  0.00    +0.099 A 
ATOM     21  C   UNL     1      -0.746   1.912  22.584  0.00  0.00    +0.030 A 
ENDROOT
BRANCH  20   7
ATOM      4  O   UNL     1       1.046  -0.347  22.376  0.00  0.00    -0.270 OA
ATOM      7  N   UNL     1       1.251   1.494  23.781  0.00  0.00    -0.277 N 
ATOM     25  C   UNL     1       1.720   0.379  23.101  0.00  0.00    +0.248 C 
ATOM     32  H   UNL     1       1.826   1.958  24.476  0.00  0.00    +0.155 HD
BRANCH  25  26
ATOM      1  F   UNL     1       7.155  -0.730  23.741  0.00  0.00    -0.205 F 
ATOM     26  C   UNL     1       3.167   0.084  23.270  0.00  0.00    +0.037 A 
ATOM     27  C   UNL     1       4.084   1.083  23.018  0.00  0.00    +0.016 A 
ATOM     28  C   UNL     1       3.545  -1.179  23.675  0.00  0.00    +0.016 A 
ATOM     29  C   UNL     1       5.442   0.805  23.179  0.00  0.00    +0.039 A 
ATOM     30  C   UNL     1       4.904  -1.456  23.836  0.00  0.00    +0.039 A 
ATOM     31  C   UNL     1       5.852  -0.464  23.587  0.00  0.00    +0.123 A 
ENDBRANCH  25  26
ENDBRANCH  20   7
BRANCH  15  18
ATOM     18  C   UNL     1      -4.733  -0.848  24.488  0.00  0.00    +0.102 C 
BRANCH  18  19
ATOM     19  C   UNL     1      -3.516  -1.791  24.505  0.00  0.00    -0.029 C 
ATOM     22  C   UNL     1      -3.313  -2.411  25.899  0.00  0.00    +0.011 C 
ATOM     23  C   UNL     1      -2.234  -1.053  24.084  0.00  0.00    +0.011 C 
ATOM     24  C   UNL     1      -3.784  -2.926  23.498  0.00  0.00    +0.011 C 
ENDBRANCH  18  19
ENDBRANCH  15  18
TORSDOF 4
ENDMDL
