MODEL 1
REMARK VINA RESULT:      -4.0      0.000      0.000
REMARK  Name = 75537133
REMARK  4 active torsions:
REMARK  status: ('A' for Active; 'I' for Inactive)
REMARK    1  A    between atoms: N_2  and  C_8
REMARK    2  A    between atoms: N_4  and  C_19
REMARK    3  A    between atoms: N_5  and  C_23
REMARK    4  A    between atoms: C_19  and  C_20
REMARK                            x       y       z     vdW  Elec       q    Type
REMARK                         _______ _______ _______ _____ _____    ______ ____
ROOT
ATOM      1  O   UNL     1      17.405  -5.931  22.899  0.00  0.00    -0.252 OA
ATOM      2  N   UNL     1      17.337  -4.535  24.798  0.00  0.00    -0.281 N 
ATOM      3  N   UNL     1      17.198  -6.757  25.088  0.00  0.00    -0.278 N 
ATOM      4  N   UNL     1      16.249  -8.323  27.224  0.00  0.00    -0.295 NA
ATOM      7  C   UNL     1      17.252  -6.220  26.431  0.00  0.00    +0.109 C 
ATOM      9  C   UNL     1      17.114  -4.712  26.224  0.00  0.00    +0.133 C 
ATOM     10  C   UNL     1      16.165  -6.850  27.301  0.00  0.00    +0.109 C 
ATOM     13  C   UNL     1      17.328  -5.763  24.108  0.00  0.00    +0.305 C 
ATOM     14  C   UNL     1      17.125  -8.191  24.902  0.00  0.00    +0.125 C 
ATOM     15  C   UNL     1      16.068  -8.788  25.834  0.00  0.00    +0.104 C 
ENDROOT
BRANCH   2   8
ATOM      8  C   UNL     1      17.401  -3.227  24.192  0.00  0.00    +0.078 C 
ATOM     11  C   UNL     1      17.390  -2.136  25.265  0.00  0.00    +0.022 C 
ATOM     12  C   UNL     1      16.258  -3.036  23.192  0.00  0.00    +0.022 C 
ATOM     16  C   UNL     1      17.405  -0.740  24.649  0.00  0.00    +0.002 C 
ATOM     17  C   UNL     1      16.274  -1.639  22.579  0.00  0.00    +0.002 C 
ATOM     18  C   UNL     1      16.265  -0.553  23.650  0.00  0.00    +0.000 C 
ENDBRANCH   2   8
BRANCH   4  19
ATOM     19  C   UNL     1      15.252  -8.935  28.100  0.00  0.00    +0.122 C 
BRANCH  19  20
ATOM      5  N   UNL     1      15.423  -7.988  31.629  0.00  0.00    -0.274 N 
ATOM      6  N   UNL     1      16.607  -8.620  31.569  0.00  0.00    -0.180 NA
ATOM     20  C   UNL     1      15.534  -8.656  29.553  0.00  0.00    +0.004 A 
ATOM     21  C   UNL     1      14.741  -7.981  30.448  0.00  0.00    +0.112 A 
ATOM     22  C   UNL     1      16.670  -9.026  30.298  0.00  0.00    +0.139 A 
ATOM     23  C   UNL     1      14.988  -7.396  32.871  0.00  0.00    +0.172 C 
ENDBRANCH  19  20
ENDBRANCH   4  19
TORSDOF 3
ENDMDL
MODEL 2
REMARK VINA RESULT:      -2.7      2.211      3.125
REMARK  Name = 75537133
REMARK  4 active torsions:
REMARK  status: ('A' for Active; 'I' for Inactive)
REMARK    1  A    between atoms: N_2  and  C_8
REMARK    2  A    between atoms: N_4  and  C_19
REMARK    3  A    between atoms: N_5  and  C_23
REMARK    4  A    between atoms: C_19  and  C_20
REMARK                            x       y       z     vdW  Elec       q    Type
REMARK                         _______ _______ _______ _____ _____    ______ ____
ROOT
ATOM      1  O   UNL     1      16.152  -6.236  25.492  0.00  0.00    -0.252 OA
ATOM      2  N   UNL     1      17.165  -4.396  26.564  0.00  0.00    -0.281 N 
ATOM      3  N   UNL     1      16.474  -6.126  27.817  0.00  0.00    -0.278 N 
ATOM      4  N   UNL     1      15.897  -6.353  30.561  0.00  0.00    -0.295 NA
ATOM      7  C   UNL     1      17.147  -5.248  28.751  0.00  0.00    +0.109 C 
ATOM      9  C   UNL     1      17.405  -3.981  27.936  0.00  0.00    +0.133 C 
ATOM     10  C   UNL     1      16.292  -5.044  30.001  0.00  0.00    +0.109 C 
ATOM     13  C   UNL     1      16.550  -5.662  26.497  0.00  0.00    +0.305 C 
ATOM     14  C   UNL     1      15.916  -7.374  28.295  0.00  0.00    +0.125 C 
ATOM     15  C   UNL     1      15.118  -7.133  29.578  0.00  0.00    +0.104 C 
ENDROOT
BRANCH   2   8
ATOM      8  C   UNL     1      17.405  -3.515  25.446  0.00  0.00    +0.078 C 
ATOM     11  C   UNL     1      16.917  -2.099  25.765  0.00  0.00    +0.022 C 
ATOM     12  C   UNL     1      16.747  -4.058  24.176  0.00  0.00    +0.022 C 
ATOM     16  C   UNL     1      17.112  -1.157  24.580  0.00  0.00    +0.002 C 
ATOM     17  C   UNL     1      16.942  -3.113  22.993  0.00  0.00    +0.002 C 
ATOM     18  C   UNL     1      16.457  -1.702  23.313  0.00  0.00    +0.000 C 
ENDBRANCH   2   8
BRANCH   4  19
ATOM     19  C   UNL     1      15.129  -6.169  31.791  0.00  0.00    +0.122 C 
BRANCH  19  20
ATOM      5  N   UNL     1      12.005  -8.072  31.757  0.00  0.00    -0.274 N 
ATOM      6  N   UNL     1      11.515  -6.939  31.227  0.00  0.00    -0.180 NA
ATOM     20  C   UNL     1      13.747  -6.755  31.683  0.00  0.00    +0.004 A 
ATOM     21  C   UNL     1      13.337  -8.014  32.048  0.00  0.00    +0.112 A 
ATOM     22  C   UNL     1      12.583  -6.137  31.184  0.00  0.00    +0.139 A 
ATOM     23  C   UNL     1      11.133  -9.203  31.965  0.00  0.00    +0.172 C 
ENDBRANCH  19  20
ENDBRANCH   4  19
TORSDOF 3
ENDMDL
MODEL 3
REMARK VINA RESULT:      -1.9      2.137      3.681
REMARK  Name = 75537133
REMARK  4 active torsions:
REMARK  status: ('A' for Active; 'I' for Inactive)
REMARK    1  A    between atoms: N_2  and  C_8
REMARK    2  A    between atoms: N_4  and  C_19
REMARK    3  A    between atoms: N_5  and  C_23
REMARK    4  A    between atoms: C_19  and  C_20
REMARK                            x       y       z     vdW  Elec       q    Type
REMARK                         _______ _______ _______ _____ _____    ______ ____
ROOT
ATOM      1  O   UNL     1      14.924  -7.371  25.944  0.00  0.00    -0.252 OA
ATOM      2  N   UNL     1      16.748  -6.154  26.812  0.00  0.00    -0.281 N 
ATOM      3  N   UNL     1      15.742  -7.672  28.126  0.00  0.00    -0.278 N 
ATOM      4  N   UNL     1      15.708  -8.020  30.917  0.00  0.00    -0.295 NA
ATOM      7  C   UNL     1      16.871  -7.210  28.905  0.00  0.00    +0.109 C 
ATOM      9  C   UNL     1      17.405  -6.024  28.102  0.00  0.00    +0.133 C 
ATOM     10  C   UNL     1      16.434  -6.876  30.330  0.00  0.00    +0.109 C 
ATOM     13  C   UNL     1      15.708  -7.103  26.845  0.00  0.00    +0.305 C 
ATOM     14  C   UNL     1      14.872  -8.691  28.674  0.00  0.00    +0.125 C 
ATOM     15  C   UNL     1      14.508  -8.347  30.120  0.00  0.00    +0.104 C 
ENDROOT
BRANCH   2   8
ATOM      8  C   UNL     1      17.060  -5.282  25.706  0.00  0.00    +0.078 C 
ATOM     11  C   UNL     1      16.039  -4.144  25.615  0.00  0.00    +0.022 C 
ATOM     12  C   UNL     1      17.131  -6.072  24.396  0.00  0.00    +0.022 C 
ATOM     16  C   UNL     1      16.316  -3.235  24.420  0.00  0.00    +0.002 C 
ATOM     17  C   UNL     1      17.405  -5.159  23.204  0.00  0.00    +0.002 C 
ATOM     18  C   UNL     1      16.389  -4.025  23.116  0.00  0.00    +0.000 C 
ENDBRANCH   2   8
BRANCH   4  19
ATOM     19  C   UNL     1      15.338  -7.733  32.302  0.00  0.00    +0.122 C 
BRANCH  19  20
ATOM      5  N   UNL     1      12.299  -5.700  32.434  0.00  0.00    -0.274 N 
ATOM      6  N   UNL     1      11.716  -6.887  32.674  0.00  0.00    -0.180 NA
ATOM     20  C   UNL     1      13.974  -7.102  32.399  0.00  0.00    +0.004 A 
ATOM     21  C   UNL     1      13.651  -5.775  32.262  0.00  0.00    +0.112 A 
ATOM     22  C   UNL     1      12.744  -7.740  32.652  0.00  0.00    +0.139 A 
ATOM     23  C   UNL     1      11.495  -4.503  32.380  0.00  0.00    +0.172 C 
ENDBRANCH  19  20
ENDBRANCH   4  19
TORSDOF 3
ENDMDL
MODEL 4
REMARK VINA RESULT:      -0.1     17.789     19.487
REMARK  Name = 75537133
REMARK  4 active torsions:
REMARK  status: ('A' for Active; 'I' for Inactive)
REMARK    1  A    between atoms: N_2  and  C_8
REMARK    2  A    between atoms: N_4  and  C_19
REMARK    3  A    between atoms: N_5  and  C_23
REMARK    4  A    between atoms: C_19  and  C_20
REMARK                            x       y       z     vdW  Elec       q    Type
REMARK                         _______ _______ _______ _____ _____    ______ ____
ROOT
ATOM      1  O   UNL     1      -1.872   4.135  24.808  0.00  0.00    -0.252 OA
ATOM      2  N   UNL     1      -2.856   2.004  24.580  0.00  0.00    -0.281 N 
ATOM      3  N   UNL     1      -0.617   2.168  24.536  0.00  0.00    -0.278 N 
ATOM      4  N   UNL     1       1.379   0.441  23.563  0.00  0.00    -0.295 NA
ATOM      7  C   UNL     1      -0.877   0.744  24.499  0.00  0.00    +0.109 C 
ATOM      9  C   UNL     1      -2.389   0.657  24.298  0.00  0.00    +0.133 C 
ATOM     10  C   UNL     1      -0.044   0.079  23.404  0.00  0.00    +0.109 C 
ATOM     13  C   UNL     1      -1.790   2.923  24.664  0.00  0.00    +0.305 C 
ATOM     14  C   UNL     1       0.753   2.637  24.543  0.00  0.00    +0.125 C 
ATOM     15  C   UNL     1       1.564   1.903  23.473  0.00  0.00    +0.104 C 
ENDROOT
BRANCH   2   8
ATOM      8  C   UNL     1      -4.260   2.336  24.610  0.00  0.00    +0.078 C 
ATOM     11  C   UNL     1      -4.535   3.416  25.659  0.00  0.00    +0.022 C 
ATOM     12  C   UNL     1      -5.107   1.086  24.861  0.00  0.00    +0.022 C 
ATOM     16  C   UNL     1      -6.022   3.749  25.748  0.00  0.00    +0.002 C 
ATOM     17  C   UNL     1      -6.593   1.423  24.951  0.00  0.00    +0.002 C 
ATOM     18  C   UNL     1      -6.865   2.501  25.996  0.00  0.00    +0.000 C 
ENDBRANCH   2   8
BRANCH   4  19
ATOM     19  C   UNL     1       2.192  -0.240  22.556  0.00  0.00    +0.122 C 
BRANCH  19  20
ATOM      5  N   UNL     1       5.742  -0.282  23.438  0.00  0.00    -0.274 N 
ATOM      6  N   UNL     1       5.405  -1.429  24.052  0.00  0.00    -0.180 NA
ATOM     20  C   UNL     1       3.603  -0.462  23.032  0.00  0.00    +0.004 A 
ATOM     21  C   UNL     1       4.699   0.336  22.812  0.00  0.00    +0.112 A 
ATOM     22  C   UNL     1       4.097  -1.534  23.801  0.00  0.00    +0.139 A 
ATOM     23  C   UNL     1       7.108   0.182  23.484  0.00  0.00    +0.172 C 
ENDBRANCH  19  20
ENDBRANCH   4  19
TORSDOF 3
ENDMDL
