MODEL 1
REMARK VINA RESULT:      -0.4      0.000      0.000
REMARK  Name = 11886014
REMARK  11 active torsions:
REMARK  status: ('A' for Active; 'I' for Inactive)
REMARK    1  A    between atoms: S_1  and  C_20
REMARK    2  A    between atoms: S_1  and  C_22
REMARK    3  A    between atoms: O_4  and  C_17
REMARK    4  A    between atoms: O_4  and  C_21
REMARK    5  A    between atoms: O_7  and  C_33
REMARK    6  A    between atoms: O_7  and  C_34
REMARK    7  A    between atoms: N_9  and  C_16
REMARK    8  A    between atoms: N_13  and  C_23
REMARK    9  A    between atoms: C_22  and  C_24
REMARK   10  A    between atoms: C_28  and  C_33
REMARK   11  A    between atoms: C_34  and  C_35
REMARK                            x       y       z     vdW  Elec       q    Type
REMARK                         _______ _______ _______ _____ _____    ______ ____
ROOT
ATOM      2  O   UNL     1      -2.435   0.468  25.033  0.00  0.00    -0.368 OA
ATOM      3  O   UNL     1      -4.801  -1.262  24.051  0.00  0.00    -0.368 OA
ATOM     14  C   UNL     1      -4.722  -0.177  25.001  0.00  0.00    +0.177 C 
ATOM     15  C   UNL     1      -3.402  -0.329  25.732  0.00  0.00    +0.192 C 
ATOM     16  C   UNL     1      -4.594   1.140  24.258  0.00  0.00    +0.168 C 
ATOM     17  C   UNL     1      -3.114  -1.805  25.593  0.00  0.00    +0.235 C 
ATOM     18  C   UNL     1      -3.091   1.248  24.022  0.00  0.00    +0.190 C 
ATOM     19  C   UNL     1      -3.651  -2.104  24.212  0.00  0.00    +0.207 C 
ENDROOT
BRANCH  16   9
ATOM      9  N   UNL     1      -5.197   2.256  24.988  0.00  0.00    -0.212 N 
ATOM     10  N   UNL     1      -6.194   2.035  25.851  0.00  0.00    -0.043 NA
ATOM     11  N   UNL     1      -5.703   4.208  25.771  0.00  0.00    -0.101 NA
ATOM     12  N   UNL     1      -6.501   3.235  26.329  0.00  0.00    -0.022 NA
ATOM     20  C   UNL     1      -4.902   3.578  24.944  0.00  0.00    +0.210 A 
BRANCH  20   1
ATOM      1  S   UNL     1      -3.673   4.258  23.951  0.00  0.00    -0.077 S 
BRANCH   1  22
ATOM     22  C   UNL     1      -2.461   4.801  25.193  0.00  0.00    +0.151 C 
BRANCH  22  24
ATOM      6  O   UNL     1      -1.217   3.188  26.468  0.00  0.00    -0.467 OA
ATOM     24  C   UNL     1      -1.316   3.835  25.293  0.00  0.00    +0.115 A 
ATOM     27  C   UNL     1      -0.347   3.482  24.417  0.00  0.00    +0.045 A 
ATOM     31  C   UNL     1       0.439   2.523  25.101  0.00  0.00    +0.041 A 
ATOM     32  C   UNL     1      -0.132   2.380  26.344  0.00  0.00    +0.195 A 
ENDBRANCH  22  24
ENDBRANCH   1  22
ENDBRANCH  20   1
ENDBRANCH  16   9
BRANCH  17   4
ATOM      4  O   UNL     1      -1.747  -2.126  25.713  0.00  0.00    -0.442 OA
BRANCH   4  21
ATOM      5  O   UNL     1      -1.071  -3.110  23.763  0.00  0.00    -0.226 OA
ATOM     13  N   UNL     1      -0.245  -1.026  24.440  0.00  0.00    -0.251 N 
ATOM     21  C   UNL     1      -1.011  -2.170  24.548  0.00  0.00    +0.405 C 
ATOM     36  H   UNL     1      -0.333  -0.355  25.199  0.00  0.00    +0.158 HD
BRANCH  13  23
ATOM     23  C   UNL     1       0.649  -0.671  23.404  0.00  0.00    +0.037 A 
ATOM     25  C   UNL     1       1.819   0.002  23.718  0.00  0.00    +0.038 A 
ATOM     26  C   UNL     1       0.338  -1.003  22.096  0.00  0.00    +0.023 A 
ATOM     28  C   UNL     1       2.701   0.352  22.696  0.00  0.00    +0.061 A 
ATOM     29  C   UNL     1       1.220  -0.653  21.073  0.00  0.00    +0.003 A 
ATOM     30  C   UNL     1       2.401   0.025  21.373  0.00  0.00    +0.015 A 
BRANCH  28  33
ATOM      8  O   UNL     1       4.365   2.028  22.368  0.00  0.00    -0.245 OA
ATOM     33  C   UNL     1       3.933   1.059  23.008  0.00  0.00    +0.339 C 
BRANCH  33   7
ATOM      7  O   UNL     1       4.560   0.521  24.098  0.00  0.00    -0.461 OA
BRANCH   7  34
ATOM     34  C   UNL     1       5.553  -0.479  23.846  0.00  0.00    +0.229 C 
ATOM     35  C   UNL     1       4.917  -1.847  23.966  0.00  0.00    +0.048 C 
ENDBRANCH   7  34
ENDBRANCH  33   7
ENDBRANCH  28  33
ENDBRANCH  13  23
ENDBRANCH   4  21
ENDBRANCH  17   4
TORSDOF 10
ENDMDL
MODEL 2
REMARK VINA RESULT:       0.2      2.549      3.708
REMARK  Name = 11886014
REMARK  11 active torsions:
REMARK  status: ('A' for Active; 'I' for Inactive)
REMARK    1  A    between atoms: S_1  and  C_20
REMARK    2  A    between atoms: S_1  and  C_22
REMARK    3  A    between atoms: O_4  and  C_17
REMARK    4  A    between atoms: O_4  and  C_21
REMARK    5  A    between atoms: O_7  and  C_33
REMARK    6  A    between atoms: O_7  and  C_34
REMARK    7  A    between atoms: N_9  and  C_16
REMARK    8  A    between atoms: N_13  and  C_23
REMARK    9  A    between atoms: C_22  and  C_24
REMARK   10  A    between atoms: C_28  and  C_33
REMARK   11  A    between atoms: C_34  and  C_35
REMARK                            x       y       z     vdW  Elec       q    Type
REMARK                         _______ _______ _______ _____ _____    ______ ____
ROOT
ATOM      2  O   UNL     1      -3.805   1.932  23.491  0.00  0.00    -0.368 OA
ATOM      3  O   UNL     1      -5.618   3.039  25.737  0.00  0.00    -0.368 OA
ATOM     14  C   UNL     1      -4.187   3.069  25.543  0.00  0.00    +0.177 C 
ATOM     15  C   UNL     1      -3.803   1.744  24.915  0.00  0.00    +0.192 C 
ATOM     16  C   UNL     1      -3.839   4.104  24.489  0.00  0.00    +0.168 C 
ATOM     17  C   UNL     1      -4.919   0.830  25.358  0.00  0.00    +0.235 C 
ATOM     18  C   UNL     1      -3.991   3.322  23.188  0.00  0.00    +0.190 C 
ATOM     19  C   UNL     1      -6.114   1.754  25.337  0.00  0.00    +0.207 C 
ENDROOT
BRANCH  16   9
ATOM      9  N   UNL     1      -2.523   4.707  24.709  0.00  0.00    -0.212 N 
ATOM     10  N   UNL     1      -2.259   5.932  24.242  0.00  0.00    -0.043 NA
ATOM     11  N   UNL     1      -0.481   5.103  25.300  0.00  0.00    -0.101 NA
ATOM     12  N   UNL     1      -1.005   6.170  24.607  0.00  0.00    -0.022 NA
ATOM     20  C   UNL     1      -1.440   4.208  25.352  0.00  0.00    +0.210 A 
BRANCH  20   1
ATOM      1  S   UNL     1      -1.389   2.657  26.092  0.00  0.00    -0.077 S 
BRANCH   1  22
ATOM     22  C   UNL     1       0.402   2.373  26.220  0.00  0.00    +0.151 C 
BRANCH  22  24
ATOM      6  O   UNL     1       2.173   2.779  27.793  0.00  0.00    -0.467 OA
ATOM     24  C   UNL     1       0.870   2.484  27.643  0.00  0.00    +0.115 A 
ATOM     27  C   UNL     1       0.225   2.341  28.824  0.00  0.00    +0.045 A 
ATOM     31  C   UNL     1       1.212   2.567  29.814  0.00  0.00    +0.041 A 
ATOM     32  C   UNL     1       2.379   2.830  29.135  0.00  0.00    +0.195 A 
ENDBRANCH  22  24
ENDBRANCH   1  22
ENDBRANCH  20   1
ENDBRANCH  16   9
BRANCH  17   4
ATOM      4  O   UNL     1      -5.098  -0.290  24.521  0.00  0.00    -0.442 OA
BRANCH   4  21
ATOM      5  O   UNL     1      -4.066  -2.202  23.808  0.00  0.00    -0.226 OA
ATOM     13  N   UNL     1      -2.848  -0.389  24.655  0.00  0.00    -0.251 N 
ATOM     21  C   UNL     1      -3.989  -1.074  24.283  0.00  0.00    +0.405 C 
ATOM     36  H   UNL     1      -2.990   0.545  25.031  0.00  0.00    +0.158 HD
BRANCH  13  23
ATOM     23  C   UNL     1      -1.507  -0.827  24.579  0.00  0.00    +0.037 A 
ATOM     25  C   UNL     1      -0.654  -0.248  23.652  0.00  0.00    +0.038 A 
ATOM     26  C   UNL     1      -1.069  -1.826  25.433  0.00  0.00    +0.023 A 
ATOM     28  C   UNL     1       0.670  -0.680  23.578  0.00  0.00    +0.061 A 
ATOM     29  C   UNL     1       0.255  -2.259  25.359  0.00  0.00    +0.003 A 
ATOM     30  C   UNL     1       1.124  -1.686  24.431  0.00  0.00    +0.015 A 
BRANCH  28  33
ATOM      8  O   UNL     1       1.564  -0.326  21.396  0.00  0.00    -0.245 OA
ATOM     33  C   UNL     1       1.577  -0.083  22.610  0.00  0.00    +0.339 C 
BRANCH  33   7
ATOM      7  O   UNL     1       2.451   0.782  23.208  0.00  0.00    -0.461 OA
BRANCH   7  34
ATOM     34  C   UNL     1       3.744   0.913  22.608  0.00  0.00    +0.229 C 
ATOM     35  C   UNL     1       4.745   0.109  23.410  0.00  0.00    +0.048 C 
ENDBRANCH   7  34
ENDBRANCH  33   7
ENDBRANCH  28  33
ENDBRANCH  13  23
ENDBRANCH   4  21
ENDBRANCH  17   4
TORSDOF 10
ENDMDL
MODEL 3
REMARK VINA RESULT:       3.0      1.617      4.347
REMARK  Name = 11886014
REMARK  11 active torsions:
REMARK  status: ('A' for Active; 'I' for Inactive)
REMARK    1  A    between atoms: S_1  and  C_20
REMARK    2  A    between atoms: S_1  and  C_22
REMARK    3  A    between atoms: O_4  and  C_17
REMARK    4  A    between atoms: O_4  and  C_21
REMARK    5  A    between atoms: O_7  and  C_33
REMARK    6  A    between atoms: O_7  and  C_34
REMARK    7  A    between atoms: N_9  and  C_16
REMARK    8  A    between atoms: N_13  and  C_23
REMARK    9  A    between atoms: C_22  and  C_24
REMARK   10  A    between atoms: C_28  and  C_33
REMARK   11  A    between atoms: C_34  and  C_35
REMARK                            x       y       z     vdW  Elec       q    Type
REMARK                         _______ _______ _______ _____ _____    ______ ____
ROOT
ATOM      2  O   UNL     1      -2.427   3.523  26.512  0.00  0.00    -0.368 OA
ATOM      3  O   UNL     1      -3.313   5.856  24.688  0.00  0.00    -0.368 OA
ATOM     14  C   UNL     1      -3.618   4.444  24.674  0.00  0.00    +0.177 C 
ATOM     15  C   UNL     1      -2.354   3.718  25.092  0.00  0.00    +0.192 C 
ATOM     16  C   UNL     1      -4.617   4.130  25.772  0.00  0.00    +0.168 C 
ATOM     17  C   UNL     1      -1.269   4.699  24.718  0.00  0.00    +0.235 C 
ATOM     18  C   UNL     1      -3.722   3.916  26.988  0.00  0.00    +0.190 C 
ATOM     19  C   UNL     1      -1.927   6.028  25.014  0.00  0.00    +0.207 C 
ENDROOT
BRANCH  16   9
ATOM      9  N   UNL     1      -5.491   3.005  25.430  0.00  0.00    -0.212 N 
ATOM     10  N   UNL     1      -6.750   2.973  25.878  0.00  0.00    -0.043 NA
ATOM     11  N   UNL     1      -6.316   1.165  24.647  0.00  0.00    -0.101 NA
ATOM     12  N   UNL     1      -7.252   1.842  25.395  0.00  0.00    -0.022 NA
ATOM     20  C   UNL     1      -5.232   1.905  24.682  0.00  0.00    +0.210 A 
BRANCH  20   1
ATOM      1  S   UNL     1      -3.718   1.587  23.930  0.00  0.00    -0.077 S 
BRANCH   1  22
ATOM     22  C   UNL     1      -2.980   0.396  25.088  0.00  0.00    +0.151 C 
BRANCH  22  24
ATOM      6  O   UNL     1      -2.417  -1.940  25.137  0.00  0.00    -0.467 OA
ATOM     24  C   UNL     1      -3.283  -1.018  24.682  0.00  0.00    +0.115 A 
ATOM     27  C   UNL     1      -4.274  -1.554  23.933  0.00  0.00    +0.045 A 
ATOM     31  C   UNL     1      -4.012  -2.945  23.912  0.00  0.00    +0.041 A 
ATOM     32  C   UNL     1      -2.871  -3.128  24.659  0.00  0.00    +0.195 A 
ENDBRANCH  22  24
ENDBRANCH   1  22
ENDBRANCH  20   1
ENDBRANCH  16   9
BRANCH  17   4
ATOM      4  O   UNL     1      -0.075   4.524  25.446  0.00  0.00    -0.442 OA
BRANCH   4  21
ATOM      5  O   UNL     1       0.966   2.755  26.453  0.00  0.00    -0.226 OA
ATOM     13  N   UNL     1       0.365   2.703  24.190  0.00  0.00    -0.251 N 
ATOM     21  C   UNL     1       0.473   3.259  25.450  0.00  0.00    +0.405 C 
ATOM     36  H   UNL     1      -0.080   3.282  23.482  0.00  0.00    +0.158 HD
BRANCH  13  23
ATOM     23  C   UNL     1       0.798   1.428  23.761  0.00  0.00    +0.037 A 
ATOM     25  C   UNL     1       2.137   1.230  23.460  0.00  0.00    +0.038 A 
ATOM     26  C   UNL     1      -0.123   0.400  23.649  0.00  0.00    +0.023 A 
ATOM     28  C   UNL     1       2.564  -0.027  23.036  0.00  0.00    +0.061 A 
ATOM     29  C   UNL     1       0.303  -0.859  23.225  0.00  0.00    +0.003 A 
ATOM     30  C   UNL     1       1.647  -1.072  22.918  0.00  0.00    +0.015 A 
BRANCH  28  33
ATOM      8  O   UNL     1       4.588   0.360  21.837  0.00  0.00    -0.245 OA
ATOM     33  C   UNL     1       3.965  -0.251  22.715  0.00  0.00    +0.339 C 
BRANCH  33   7
ATOM      7  O   UNL     1       4.513  -1.223  23.506  0.00  0.00    -0.461 OA
BRANCH   7  34
ATOM     34  C   UNL     1       5.713  -0.886  24.209  0.00  0.00    +0.229 C 
ATOM     35  C   UNL     1       5.728   0.605  24.474  0.00  0.00    +0.048 C 
ENDBRANCH   7  34
ENDBRANCH  33   7
ENDBRANCH  28  33
ENDBRANCH  13  23
ENDBRANCH   4  21
ENDBRANCH  17   4
TORSDOF 10
ENDMDL
MODEL 4
REMARK VINA RESULT:       3.1      2.235      6.813
REMARK  Name = 11886014
REMARK  11 active torsions:
REMARK  status: ('A' for Active; 'I' for Inactive)
REMARK    1  A    between atoms: S_1  and  C_20
REMARK    2  A    between atoms: S_1  and  C_22
REMARK    3  A    between atoms: O_4  and  C_17
REMARK    4  A    between atoms: O_4  and  C_21
REMARK    5  A    between atoms: O_7  and  C_33
REMARK    6  A    between atoms: O_7  and  C_34
REMARK    7  A    between atoms: N_9  and  C_16
REMARK    8  A    between atoms: N_13  and  C_23
REMARK    9  A    between atoms: C_22  and  C_24
REMARK   10  A    between atoms: C_28  and  C_33
REMARK   11  A    between atoms: C_34  and  C_35
REMARK                            x       y       z     vdW  Elec       q    Type
REMARK                         _______ _______ _______ _____ _____    ______ ____
ROOT
ATOM      2  O   UNL     1      -2.348  -0.754  23.522  0.00  0.00    -0.368 OA
ATOM      3  O   UNL     1      -0.491  -0.984  25.983  0.00  0.00    -0.368 OA
ATOM     14  C   UNL     1      -0.292  -1.292  24.585  0.00  0.00    +0.177 C 
ATOM     15  C   UNL     1      -1.603  -1.852  24.069  0.00  0.00    +0.192 C 
ATOM     16  C   UNL     1      -0.095  -0.005  23.806  0.00  0.00    +0.168 C 
ATOM     17  C   UNL     1      -2.248  -2.396  25.321  0.00  0.00    +0.235 C 
ATOM     18  C   UNL     1      -1.527   0.423  23.499  0.00  0.00    +0.190 C 
ATOM     19  C   UNL     1      -1.812  -1.392  26.364  0.00  0.00    +0.207 C 
ENDROOT
BRANCH  16   9
ATOM      9  N   UNL     1       0.770  -0.184  22.638  0.00  0.00    -0.212 N 
ATOM     10  N   UNL     1       0.445  -1.069  21.690  0.00  0.00    -0.043 NA
ATOM     11  N   UNL     1       2.357  -0.047  21.176  0.00  0.00    -0.101 NA
ATOM     12  N   UNL     1       1.421  -0.981  20.795  0.00  0.00    -0.022 NA
ATOM     20  C   UNL     1       1.933   0.435  22.321  0.00  0.00    +0.210 A 
BRANCH  20   1
ATOM      1  S   UNL     1       2.678   1.642  23.293  0.00  0.00    -0.077 S 
BRANCH   1  22
ATOM     22  C   UNL     1       4.423   1.470  22.812  0.00  0.00    +0.151 C 
BRANCH  22  24
ATOM      6  O   UNL     1       4.205  -0.827  23.485  0.00  0.00    -0.467 OA
ATOM     24  C   UNL     1       5.031   0.232  23.406  0.00  0.00    +0.115 A 
ATOM     27  C   UNL     1       6.268  -0.032  23.887  0.00  0.00    +0.045 A 
ATOM     31  C   UNL     1       6.221  -1.382  24.309  0.00  0.00    +0.041 A 
ATOM     32  C   UNL     1       4.945  -1.821  24.043  0.00  0.00    +0.195 A 
ENDBRANCH  22  24
ENDBRANCH   1  22
ENDBRANCH  20   1
ENDBRANCH  16   9
BRANCH  17   4
ATOM      4  O   UNL     1      -3.651  -2.497  25.234  0.00  0.00    -0.442 OA
BRANCH   4  21
ATOM      5  O   UNL     1      -5.023  -1.393  23.776  0.00  0.00    -0.226 OA
ATOM     13  N   UNL     1      -4.099  -0.325  25.644  0.00  0.00    -0.251 N 
ATOM     21  C   UNL     1      -4.331  -1.384  24.788  0.00  0.00    +0.405 C 
ATOM     36  H   UNL     1      -3.491  -0.515  26.438  0.00  0.00    +0.158 HD
BRANCH  13  23
ATOM     23  C   UNL     1      -4.602   0.993  25.555  0.00  0.00    +0.037 A 
ATOM     25  C   UNL     1      -3.752   2.021  25.178  0.00  0.00    +0.038 A 
ATOM     26  C   UNL     1      -5.934   1.233  25.848  0.00  0.00    +0.023 A 
ATOM     28  C   UNL     1      -4.248   3.321  25.091  0.00  0.00    +0.061 A 
ATOM     29  C   UNL     1      -6.431   2.533  25.760  0.00  0.00    +0.003 A 
ATOM     30  C   UNL     1      -5.588   3.578  25.382  0.00  0.00    +0.015 A 
BRANCH  28  33
ATOM      8  O   UNL     1      -3.527   5.107  23.685  0.00  0.00    -0.245 OA
ATOM     33  C   UNL     1      -3.369   4.411  24.696  0.00  0.00    +0.339 C 
BRANCH  33   7
ATOM      7  O   UNL     1      -2.340   4.574  25.584  0.00  0.00    -0.461 OA
BRANCH   7  34
ATOM     34  C   UNL     1      -1.013   4.414  25.072  0.00  0.00    +0.229 C 
ATOM     35  C   UNL     1      -0.394   3.174  25.682  0.00  0.00    +0.048 C 
ENDBRANCH   7  34
ENDBRANCH  33   7
ENDBRANCH  28  33
ENDBRANCH  13  23
ENDBRANCH   4  21
ENDBRANCH  17   4
TORSDOF 10
ENDMDL
MODEL 5
REMARK VINA RESULT:       3.3      2.129      7.240
REMARK  Name = 11886014
REMARK  11 active torsions:
REMARK  status: ('A' for Active; 'I' for Inactive)
REMARK    1  A    between atoms: S_1  and  C_20
REMARK    2  A    between atoms: S_1  and  C_22
REMARK    3  A    between atoms: O_4  and  C_17
REMARK    4  A    between atoms: O_4  and  C_21
REMARK    5  A    between atoms: O_7  and  C_33
REMARK    6  A    between atoms: O_7  and  C_34
REMARK    7  A    between atoms: N_9  and  C_16
REMARK    8  A    between atoms: N_13  and  C_23
REMARK    9  A    between atoms: C_22  and  C_24
REMARK   10  A    between atoms: C_28  and  C_33
REMARK   11  A    between atoms: C_34  and  C_35
REMARK                            x       y       z     vdW  Elec       q    Type
REMARK                         _______ _______ _______ _____ _____    ______ ____
ROOT
ATOM      2  O   UNL     1      -2.209   3.036  23.997  0.00  0.00    -0.368 OA
ATOM      3  O   UNL     1       0.636   4.219  24.240  0.00  0.00    -0.368 OA
ATOM     14  C   UNL     1       0.047   3.001  24.745  0.00  0.00    +0.177 C 
ATOM     15  C   UNL     1      -1.381   3.333  25.132  0.00  0.00    +0.192 C 
ATOM     16  C   UNL     1      -0.090   1.998  23.615  0.00  0.00    +0.168 C 
ATOM     17  C   UNL     1      -1.316   4.817  25.401  0.00  0.00    +0.235 C 
ATOM     18  C   UNL     1      -1.429   2.377  22.989  0.00  0.00    +0.190 C 
ATOM     19  C   UNL     1      -0.317   5.284  24.367  0.00  0.00    +0.207 C 
ENDROOT
BRANCH  16   9
ATOM      9  N   UNL     1       0.016   0.613  24.079  0.00  0.00    -0.212 N 
ATOM     10  N   UNL     1      -0.610   0.230  25.197  0.00  0.00    -0.043 NA
ATOM     11  N   UNL     1       0.497  -1.484  24.298  0.00  0.00    -0.101 NA
ATOM     12  N   UNL     1      -0.312  -1.057  25.327  0.00  0.00    -0.022 NA
ATOM     20  C   UNL     1       0.687  -0.432  23.537  0.00  0.00    +0.210 A 
BRANCH  20   1
ATOM      1  S   UNL     1       1.613  -0.336  22.091  0.00  0.00    -0.077 S 
BRANCH   1  22
ATOM     22  C   UNL     1       2.905   0.853  22.565  0.00  0.00    +0.151 C 
BRANCH  22  24
ATOM      6  O   UNL     1       3.893  -1.150  23.450  0.00  0.00    -0.467 OA
ATOM     24  C   UNL     1       4.072   0.160  23.208  0.00  0.00    +0.115 A 
ATOM     27  C   UNL     1       5.288   0.605  23.599  0.00  0.00    +0.045 A 
ATOM     31  C   UNL     1       5.941  -0.529  24.139  0.00  0.00    +0.041 A 
ATOM     32  C   UNL     1       5.050  -1.572  24.025  0.00  0.00    +0.195 A 
ENDBRANCH  22  24
ENDBRANCH   1  22
ENDBRANCH  20   1
ENDBRANCH  16   9
BRANCH  17   4
ATOM      4  O   UNL     1      -2.558   5.469  25.272  0.00  0.00    -0.442 OA
BRANCH   4  21
ATOM      5  O   UNL     1      -4.341   5.136  23.880  0.00  0.00    -0.226 OA
ATOM     13  N   UNL     1      -3.658   3.505  25.415  0.00  0.00    -0.251 N 
ATOM     21  C   UNL     1      -3.605   4.725  24.769  0.00  0.00    +0.405 C 
ATOM     36  H   UNL     1      -2.953   3.346  26.132  0.00  0.00    +0.158 HD
BRANCH  13  23
ATOM     23  C   UNL     1      -4.573   2.449  25.207  0.00  0.00    +0.037 A 
ATOM     25  C   UNL     1      -4.094   1.179  24.926  0.00  0.00    +0.038 A 
ATOM     26  C   UNL     1      -5.933   2.703  25.287  0.00  0.00    +0.023 A 
ATOM     28  C   UNL     1      -4.998   0.137  24.720  0.00  0.00    +0.061 A 
ATOM     29  C   UNL     1      -6.837   1.661  25.082  0.00  0.00    +0.003 A 
ATOM     30  C   UNL     1      -6.369   0.378  24.797  0.00  0.00    +0.015 A 
BRANCH  28  33
ATOM      8  O   UNL     1      -4.807  -1.844  23.407  0.00  0.00    -0.245 OA
ATOM     33  C   UNL     1      -4.511  -1.201  24.423  0.00  0.00    +0.339 C 
BRANCH  33   7
ATOM      7  O   UNL     1      -3.683  -1.665  25.408  0.00  0.00    -0.461 OA
BRANCH   7  34
ATOM     34  C   UNL     1      -3.259  -3.028  25.308  0.00  0.00    +0.229 C 
ATOM     35  C   UNL     1      -2.304  -3.165  24.141  0.00  0.00    +0.048 C 
ENDBRANCH   7  34
ENDBRANCH  33   7
ENDBRANCH  28  33
ENDBRANCH  13  23
ENDBRANCH   4  21
ENDBRANCH  17   4
TORSDOF 10
ENDMDL
MODEL 6
REMARK VINA RESULT:       3.6      2.207      6.648
REMARK  Name = 11886014
REMARK  11 active torsions:
REMARK  status: ('A' for Active; 'I' for Inactive)
REMARK    1  A    between atoms: S_1  and  C_20
REMARK    2  A    between atoms: S_1  and  C_22
REMARK    3  A    between atoms: O_4  and  C_17
REMARK    4  A    between atoms: O_4  and  C_21
REMARK    5  A    between atoms: O_7  and  C_33
REMARK    6  A    between atoms: O_7  and  C_34
REMARK    7  A    between atoms: N_9  and  C_16
REMARK    8  A    between atoms: N_13  and  C_23
REMARK    9  A    between atoms: C_22  and  C_24
REMARK   10  A    between atoms: C_28  and  C_33
REMARK   11  A    between atoms: C_34  and  C_35
REMARK                            x       y       z     vdW  Elec       q    Type
REMARK                         _______ _______ _______ _____ _____    ______ ____
ROOT
ATOM      2  O   UNL     1      -2.658  -0.622  25.500  0.00  0.00    -0.368 OA
ATOM      3  O   UNL     1      -1.118  -2.834  23.987  0.00  0.00    -0.368 OA
ATOM     14  C   UNL     1      -1.121  -1.395  23.860  0.00  0.00    +0.177 C 
ATOM     15  C   UNL     1      -2.546  -0.937  24.104  0.00  0.00    +0.192 C 
ATOM     16  C   UNL     1      -0.326  -0.784  24.999  0.00  0.00    +0.168 C 
ATOM     17  C   UNL     1      -3.354  -2.160  23.741  0.00  0.00    +0.235 C 
ATOM     18  C   UNL     1      -1.363  -0.680  26.114  0.00  0.00    +0.190 C 
ATOM     19  C   UNL     1      -2.461  -3.283  24.216  0.00  0.00    +0.207 C 
ENDROOT
BRANCH  16   9
ATOM      9  N   UNL     1       0.316   0.476  24.621  0.00  0.00    -0.212 N 
ATOM     10  N   UNL     1       0.165   1.563  25.385  0.00  0.00    -0.043 NA
ATOM     11  N   UNL     1       1.451   2.024  23.623  0.00  0.00    -0.101 NA
ATOM     12  N   UNL     1       0.863   2.510  24.768  0.00  0.00    -0.022 NA
ATOM     20  C   UNL     1       1.099   0.761  23.552  0.00  0.00    +0.210 A 
BRANCH  20   1
ATOM      1  S   UNL     1       1.525  -0.381  22.339  0.00  0.00    -0.077 S 
BRANCH   1  22
ATOM     22  C   UNL     1       3.175   0.206  21.851  0.00  0.00    +0.151 C 
BRANCH  22  24
ATOM      6  O   UNL     1       4.891   1.000  23.333  0.00  0.00    -0.467 OA
ATOM     24  C   UNL     1       4.190  -0.071  22.922  0.00  0.00    +0.115 A 
ATOM     27  C   UNL     1       4.543  -1.207  23.566  0.00  0.00    +0.045 A 
ATOM     31  C   UNL     1       5.563  -0.820  24.468  0.00  0.00    +0.041 A 
ATOM     32  C   UNL     1       5.738   0.533  24.288  0.00  0.00    +0.195 A 
ENDBRANCH  22  24
ENDBRANCH   1  22
ENDBRANCH  20   1
ENDBRANCH  16   9
BRANCH  17   4
ATOM      4  O   UNL     1      -4.624  -2.197  24.351  0.00  0.00    -0.442 OA
BRANCH   4  21
ATOM      5  O   UNL     1      -6.464  -0.928  23.866  0.00  0.00    -0.226 OA
ATOM     13  N   UNL     1      -4.618  -0.036  24.998  0.00  0.00    -0.251 N 
ATOM     21  C   UNL     1      -5.347  -1.023  24.361  0.00  0.00    +0.405 C 
ATOM     36  H   UNL     1      -3.702  -0.310  25.346  0.00  0.00    +0.158 HD
BRANCH  13  23
ATOM     23  C   UNL     1      -4.987   1.309  25.224  0.00  0.00    +0.037 A 
ATOM     25  C   UNL     1      -4.181   2.326  24.736  0.00  0.00    +0.038 A 
ATOM     26  C   UNL     1      -6.146   1.586  25.931  0.00  0.00    +0.023 A 
ATOM     28  C   UNL     1      -4.545   3.653  24.960  0.00  0.00    +0.061 A 
ATOM     29  C   UNL     1      -6.510   2.913  26.155  0.00  0.00    +0.003 A 
ATOM     30  C   UNL     1      -5.709   3.947  25.670  0.00  0.00    +0.015 A 
BRANCH  28  33
ATOM      8  O   UNL     1      -3.782   5.194  23.308  0.00  0.00    -0.245 OA
ATOM     33  C   UNL     1      -3.711   4.732  24.455  0.00  0.00    +0.339 C 
BRANCH  33   7
ATOM      7  O   UNL     1      -2.833   5.178  25.406  0.00  0.00    -0.461 OA
BRANCH   7  34
ATOM     34  C   UNL     1      -1.539   4.567  25.428  0.00  0.00    +0.229 C 
ATOM     35  C   UNL     1      -0.577   5.419  24.628  0.00  0.00    +0.048 C 
ENDBRANCH   7  34
ENDBRANCH  33   7
ENDBRANCH  28  33
ENDBRANCH  13  23
ENDBRANCH   4  21
ENDBRANCH  17   4
TORSDOF 10
ENDMDL
