MODEL 1
REMARK VINA RESULT:       0.8      0.000      0.000
REMARK  Name = 11941477
REMARK  3 active torsions:
REMARK  status: ('A' for Active; 'I' for Inactive)
REMARK    1  A    between atoms: N_7  and  C_10
REMARK    2  A    between atoms: C_19  and  C_21
REMARK    3  A    between atoms: C_24  and  C_27
REMARK                            x       y       z     vdW  Elec       q    Type
REMARK                         _______ _______ _______ _____ _____    ______ ____
ROOT
ATOM      4  O   UNL     1      -5.311   0.355  25.957  0.00  0.00    -0.273 OA
ATOM      5  O   UNL     1      -2.383   2.452  22.115  0.00  0.00    -0.270 OA
ATOM      6  N   UNL     1      -3.556   2.427  24.094  0.00  0.00    -0.284 N 
ATOM      8  N   UNL     1      -3.311  -0.324  25.105  0.00  0.00    -0.283 N 
ATOM      9  C   UNL     1      -3.687   2.078  25.497  0.00  0.00    +0.179 C 
ATOM     10  C   UNL     1      -4.684   3.103  26.067  0.00  0.00    +0.082 C 
ATOM     11  C   UNL     1      -5.525   3.478  24.842  0.00  0.00    +0.040 C 
ATOM     12  C   UNL     1      -4.531   3.431  23.692  0.00  0.00    +0.110 C 
ATOM     13  C   UNL     1      -4.200   0.649  25.512  0.00  0.00    +0.239 C 
ATOM     14  C   UNL     1      -2.549   2.007  23.251  0.00  0.00    +0.249 C 
ATOM     15  C   UNL     1      -1.635   0.939  23.733  0.00  0.00    +0.059 A 
ATOM     16  C   UNL     1      -2.041  -0.161  24.509  0.00  0.00    +0.046 A 
ATOM     17  C   UNL     1      -0.325   0.977  23.220  0.00  0.00    +0.023 A 
ATOM     18  C   UNL     1      -1.144  -1.227  24.695  0.00  0.00    +0.024 A 
ATOM     19  C   UNL     1       0.565  -0.069  23.455  0.00  0.00    -0.017 A 
ATOM     20  C   UNL     1       0.152  -1.177  24.182  0.00  0.00    +0.010 A 
ATOM     30  H   UNL     1      -3.571  -1.278  25.341  0.00  0.00    +0.155 HD
ENDROOT
BRANCH  19  21
ATOM     21  C   UNL     1       1.910  -0.010  22.925  0.00  0.00    -0.017 A 
ATOM     22  C   UNL     1       3.003  -0.044  23.790  0.00  0.00    +0.021 A 
ATOM     23  C   UNL     1       2.113   0.083  21.548  0.00  0.00    +0.008 A 
ATOM     24  C   UNL     1       4.300   0.014  23.279  0.00  0.00    +0.055 A 
ATOM     25  C   UNL     1       3.410   0.141  21.036  0.00  0.00    +0.001 A 
ATOM     26  C   UNL     1       4.503   0.106  21.901  0.00  0.00    +0.012 A 
BRANCH  24  27
ATOM      1  F   UNL     1       5.437   0.945  25.167  0.00  0.00    -0.166 F 
ATOM      2  F   UNL     1       5.592  -1.199  24.885  0.00  0.00    -0.166 F 
ATOM      3  F   UNL     1       6.658   0.151  23.553  0.00  0.00    -0.166 F 
ATOM     27  C   UNL     1       5.470  -0.022  24.203  0.00  0.00    +0.417 C 
ENDBRANCH  24  27
ENDBRANCH  19  21
BRANCH  10   7
ATOM      7  N   UNL     1      -3.979   4.281  26.582  0.00  0.00    -0.325 NA
ATOM     28  H   UNL     1      -4.628   4.857  27.116  0.00  0.00    +0.119 HD
ATOM     29  H   UNL     1      -3.660   4.854  25.802  0.00  0.00    +0.119 HD
ENDBRANCH  10   7
TORSDOF 3
ENDMDL
MODEL 2
REMARK VINA RESULT:       1.9      1.783      2.744
REMARK  Name = 11941477
REMARK  3 active torsions:
REMARK  status: ('A' for Active; 'I' for Inactive)
REMARK    1  A    between atoms: N_7  and  C_10
REMARK    2  A    between atoms: C_19  and  C_21
REMARK    3  A    between atoms: C_24  and  C_27
REMARK                            x       y       z     vdW  Elec       q    Type
REMARK                         _______ _______ _______ _____ _____    ______ ____
ROOT
ATOM      4  O   UNL     1      -4.836   4.289  26.505  0.00  0.00    -0.273 OA
ATOM      5  O   UNL     1      -2.643  -0.461  25.907  0.00  0.00    -0.270 OA
ATOM      6  N   UNL     1      -4.222   1.183  25.599  0.00  0.00    -0.284 N 
ATOM      8  N   UNL     1      -2.747   3.720  25.797  0.00  0.00    -0.283 N 
ATOM      9  C   UNL     1      -4.676   2.420  24.989  0.00  0.00    +0.179 C 
ATOM     10  C   UNL     1      -6.213   2.331  25.013  0.00  0.00    +0.082 C 
ATOM     11  C   UNL     1      -6.482   1.418  26.214  0.00  0.00    +0.040 C 
ATOM     12  C   UNL     1      -5.323   0.434  26.188  0.00  0.00    +0.110 C 
ATOM     13  C   UNL     1      -4.112   3.530  25.858  0.00  0.00    +0.239 C 
ATOM     14  C   UNL     1      -2.947   0.666  25.515  0.00  0.00    +0.249 C 
ATOM     15  C   UNL     1      -1.879   1.528  24.945  0.00  0.00    +0.059 A 
ATOM     16  C   UNL     1      -1.774   2.911  25.170  0.00  0.00    +0.046 A 
ATOM     17  C   UNL     1      -0.836   0.853  24.284  0.00  0.00    +0.023 A 
ATOM     18  C   UNL     1      -0.594   3.572  24.787  0.00  0.00    +0.024 A 
ATOM     19  C   UNL     1       0.306   1.536  23.869  0.00  0.00    -0.017 A 
ATOM     20  C   UNL     1       0.433   2.893  24.132  0.00  0.00    +0.010 A 
ATOM     30  H   UNL     1      -2.412   4.598  26.185  0.00  0.00    +0.155 HD
ENDROOT
BRANCH  19  21
ATOM     21  C   UNL     1       1.367   0.828  23.186  0.00  0.00    -0.017 A 
ATOM     22  C   UNL     1       2.676   0.905  23.660  0.00  0.00    +0.021 A 
ATOM     23  C   UNL     1       1.080   0.071  22.050  0.00  0.00    +0.008 A 
ATOM     24  C   UNL     1       3.699   0.224  23.000  0.00  0.00    +0.055 A 
ATOM     25  C   UNL     1       2.103  -0.611  21.389  0.00  0.00    +0.001 A 
ATOM     26  C   UNL     1       3.412  -0.535  21.864  0.00  0.00    +0.012 A 
BRANCH  24  27
ATOM      1  F   UNL     1       5.329  -0.466  24.610  0.00  0.00    -0.166 F 
ATOM      2  F   UNL     1       6.034  -0.092  22.593  0.00  0.00    -0.166 F 
ATOM      3  F   UNL     1       5.454   1.573  23.867  0.00  0.00    -0.166 F 
ATOM     27  C   UNL     1       5.099   0.305  23.506  0.00  0.00    +0.417 C 
ENDBRANCH  24  27
ENDBRANCH  19  21
BRANCH  10   7
ATOM      7  N   UNL     1      -6.715   1.716  23.781  0.00  0.00    -0.325 NA
ATOM     28  H   UNL     1      -6.962   2.446  23.114  0.00  0.00    +0.119 HD
ATOM     29  H   UNL     1      -7.574   1.206  23.982  0.00  0.00    +0.119 HD
ENDBRANCH  10   7
TORSDOF 3
ENDMDL
MODEL 3
REMARK VINA RESULT:       3.1      4.792      8.078
REMARK  Name = 11941477
REMARK  3 active torsions:
REMARK  status: ('A' for Active; 'I' for Inactive)
REMARK    1  A    between atoms: N_7  and  C_10
REMARK    2  A    between atoms: C_19  and  C_21
REMARK    3  A    between atoms: C_24  and  C_27
REMARK                            x       y       z     vdW  Elec       q    Type
REMARK                         _______ _______ _______ _____ _____    ______ ____
ROOT
ATOM      4  O   UNL     1       3.458  -2.031  23.875  0.00  0.00    -0.273 OA
ATOM      5  O   UNL     1       0.944   2.537  24.616  0.00  0.00    -0.270 OA
ATOM      6  N   UNL     1       2.173   0.973  23.461  0.00  0.00    -0.284 N 
ATOM      8  N   UNL     1       1.312  -1.630  24.525  0.00  0.00    -0.283 N 
ATOM      9  C   UNL     1       2.284  -0.269  22.718  0.00  0.00    +0.179 C 
ATOM     10  C   UNL     1       3.530  -0.089  21.831  0.00  0.00    +0.082 C 
ATOM     11  C   UNL     1       4.375   0.910  22.630  0.00  0.00    +0.040 C 
ATOM     12  C   UNL     1       3.343   1.820  23.278  0.00  0.00    +0.110 C 
ATOM     13  C   UNL     1       2.432  -1.357  23.768  0.00  0.00    +0.239 C 
ATOM     14  C   UNL     1       1.053   1.408  24.136  0.00  0.00    +0.249 C 
ATOM     15  C   UNL     1      -0.070   0.452  24.317  0.00  0.00    +0.059 A 
ATOM     16  C   UNL     1       0.092  -0.919  24.580  0.00  0.00    +0.046 A 
ATOM     17  C   UNL     1      -1.354   1.022  24.388  0.00  0.00    +0.023 A 
ATOM     18  C   UNL     1      -1.028  -1.671  24.975  0.00  0.00    +0.024 A 
ATOM     19  C   UNL     1      -2.461   0.250  24.734  0.00  0.00    -0.017 A 
ATOM     20  C   UNL     1      -2.296  -1.095  25.040  0.00  0.00    +0.010 A 
ATOM     30  H   UNL     1       1.342  -2.501  25.048  0.00  0.00    +0.155 HD
ENDROOT
BRANCH  19  21
ATOM     21  C   UNL     1      -3.776   0.851  24.797  0.00  0.00    -0.017 A 
ATOM     22  C   UNL     1      -3.907   2.218  25.040  0.00  0.00    +0.021 A 
ATOM     23  C   UNL     1      -4.912   0.062  24.615  0.00  0.00    +0.008 A 
ATOM     24  C   UNL     1      -5.174   2.797  25.102  0.00  0.00    +0.055 A 
ATOM     25  C   UNL     1      -6.180   0.641  24.677  0.00  0.00    +0.001 A 
ATOM     26  C   UNL     1      -6.312   2.008  24.920  0.00  0.00    +0.012 A 
BRANCH  24  27
ATOM      1  F   UNL     1      -5.020   5.039  24.283  0.00  0.00    -0.166 F 
ATOM      2  F   UNL     1      -6.579   4.627  25.733  0.00  0.00    -0.166 F 
ATOM      3  F   UNL     1      -4.498   4.695  26.365  0.00  0.00    -0.166 F 
ATOM     27  C   UNL     1      -5.316   4.258  25.363  0.00  0.00    +0.417 C 
ENDBRANCH  24  27
ENDBRANCH  19  21
BRANCH  10   7
ATOM      7  N   UNL     1       3.162   0.480  20.531  0.00  0.00    -0.325 NA
ATOM     28  H   UNL     1       3.903   0.290  19.857  0.00  0.00    +0.119 HD
ATOM     29  H   UNL     1       3.096   1.493  20.609  0.00  0.00    +0.119 HD
ENDBRANCH  10   7
TORSDOF 3
ENDMDL
