MODEL 1
REMARK VINA RESULT:      -5.6      0.000      0.000
REMARK  Name = 26742973
REMARK  10 active torsions:
REMARK  status: ('A' for Active; 'I' for Inactive)
REMARK    1  A    between atoms: N_5  and  C_19
REMARK    2  A    between atoms: C_7  and  C_13
REMARK    3  A    between atoms: C_8  and  C_11
REMARK    4  A    between atoms: C_11  and  C_14
REMARK    5  A    between atoms: C_13  and  C_15
REMARK    6  A    between atoms: C_17  and  C_18
REMARK    7  A    between atoms: C_18  and  C_20
REMARK    8  A    between atoms: C_19  and  C_21
REMARK    9  A    between atoms: C_20  and  C_22
REMARK   10  A    between atoms: C_22  and  C_23
REMARK                            x       y       z     vdW  Elec       q    Type
REMARK                         _______ _______ _______ _____ _____    ______ ____
ROOT
ATOM      4  N   UNL     1      -2.179  -3.163  25.159  0.00  0.00    -0.316 NA
ATOM      7  C   UNL     1      -3.698  -1.035  23.789  0.00  0.00    +0.004 C 
ATOM      8  C   UNL     1      -2.185  -0.919  24.095  0.00  0.00    +0.012 C 
ATOM      9  C   UNL     1      -4.083  -2.522  23.721  0.00  0.00    +0.019 C 
ATOM     10  C   UNL     1      -1.786  -1.763  25.318  0.00  0.00    +0.085 C 
ATOM     12  C   UNL     1      -3.619  -3.303  24.950  0.00  0.00    +0.081 C 
ATOM     29  H   UNL     1      -1.906  -3.686  25.990  0.00  0.00    +0.122 HD
ENDROOT
BRANCH   8  11
ATOM     11  C   UNL     1      -1.717   0.527  24.265  0.00  0.00    +0.064 C 
BRANCH  11  14
ATOM      2  O   UNL     1       1.682   1.593  23.742  0.00  0.00    -0.359 OA
ATOM      6  N   UNL     1       0.405   1.766  24.262  0.00  0.00    -0.083 NA
ATOM     14  C   UNL     1      -0.275   0.683  23.874  0.00  0.00    +0.084 A 
ATOM     16  C   UNL     1       0.513  -0.198  23.114  0.00  0.00    +0.071 A 
ATOM     17  C   UNL     1       1.734   0.421  23.061  0.00  0.00    +0.138 A 
BRANCH  17  18
ATOM     18  C   UNL     1       3.020   0.078  22.442  0.00  0.00    +0.077 C 
BRANCH  18  20
ATOM     20  C   UNL     1       4.144   1.083  22.786  0.00  0.00    +0.007 C 
BRANCH  20  22
ATOM     22  C   UNL     1       5.277   0.443  23.587  0.00  0.00    -0.003 C 
ATOM     23  C   UNL     1       4.962  -1.000  23.946  0.00  0.00    +0.004 C 
ENDBRANCH  20  22
ENDBRANCH  18  20
ENDBRANCH  17  18
ENDBRANCH  11  14
ENDBRANCH   8  11
BRANCH   7  13
ATOM     13  C   UNL     1      -4.593  -0.284  24.782  0.00  0.00    +0.099 C 
BRANCH  13  15
ATOM      3  O   UNL     1      -4.180   1.741  23.526  0.00  0.00    -0.276 OA
ATOM      5  N   UNL     1      -4.990   1.891  25.700  0.00  0.00    -0.311 N 
ATOM     15  C   UNL     1      -4.555   1.214  24.570  0.00  0.00    +0.214 C 
ATOM     30  H   UNL     1      -5.263   1.362  26.523  0.00  0.00    +0.149 HD
BRANCH   5  19
ATOM     19  C   UNL     1      -5.055   3.333  25.779  0.00  0.00    +0.139 C 
BRANCH  19  21
ATOM      1  F   UNL     1      -0.069   5.729  24.731  0.00  0.00    -0.205 F 
ATOM     21  C   UNL     1      -3.726   3.971  25.500  0.00  0.00    -0.030 A 
ATOM     24  C   UNL     1      -3.633   5.014  24.578  0.00  0.00    +0.008 A 
ATOM     25  C   UNL     1      -2.583   3.522  26.161  0.00  0.00    +0.008 A 
ATOM     26  C   UNL     1      -2.398   5.608  24.318  0.00  0.00    +0.038 A 
ATOM     27  C   UNL     1      -1.348   4.116  25.901  0.00  0.00    +0.038 A 
ATOM     28  C   UNL     1      -1.255   5.159  24.979  0.00  0.00    +0.123 A 
ENDBRANCH  19  21
ENDBRANCH   5  19
ENDBRANCH  13  15
ENDBRANCH   7  13
TORSDOF 9
ENDMDL
MODEL 2
REMARK VINA RESULT:      -5.3      2.351      6.886
REMARK  Name = 26742973
REMARK  10 active torsions:
REMARK  status: ('A' for Active; 'I' for Inactive)
REMARK    1  A    between atoms: N_5  and  C_19
REMARK    2  A    between atoms: C_7  and  C_13
REMARK    3  A    between atoms: C_8  and  C_11
REMARK    4  A    between atoms: C_11  and  C_14
REMARK    5  A    between atoms: C_13  and  C_15
REMARK    6  A    between atoms: C_17  and  C_18
REMARK    7  A    between atoms: C_18  and  C_20
REMARK    8  A    between atoms: C_19  and  C_21
REMARK    9  A    between atoms: C_20  and  C_22
REMARK   10  A    between atoms: C_22  and  C_23
REMARK                            x       y       z     vdW  Elec       q    Type
REMARK                         _______ _______ _______ _____ _____    ______ ____
ROOT
ATOM      4  N   UNL     1      -1.709   5.734  25.183  0.00  0.00    -0.316 NA
ATOM      7  C   UNL     1      -1.552   2.888  24.418  0.00  0.00    +0.004 C 
ATOM      8  C   UNL     1      -2.882   3.579  24.803  0.00  0.00    +0.012 C 
ATOM      9  C   UNL     1      -0.561   3.952  23.914  0.00  0.00    +0.019 C 
ATOM     10  C   UNL     1      -2.652   4.770  25.749  0.00  0.00    +0.085 C 
ATOM     12  C   UNL     1      -0.415   5.121  24.887  0.00  0.00    +0.081 C 
ATOM     29  H   UNL     1      -1.576   6.502  25.841  0.00  0.00    +0.122 HD
ENDROOT
BRANCH   8  11
ATOM     11  C   UNL     1      -3.910   2.614  25.395  0.00  0.00    +0.064 C 
BRANCH  11  14
ATOM      2  O   UNL     1      -3.682  -0.059  22.993  0.00  0.00    -0.359 OA
ATOM      6  N   UNL     1      -3.546   1.272  23.369  0.00  0.00    -0.083 NA
ATOM     14  C   UNL     1      -3.930   1.311  24.648  0.00  0.00    +0.084 A 
ATOM     16  C   UNL     1      -4.316   0.048  25.128  0.00  0.00    +0.071 A 
ATOM     17  C   UNL     1      -4.142  -0.778  24.049  0.00  0.00    +0.138 A 
BRANCH  17  18
ATOM     18  C   UNL     1      -4.345  -2.214  23.825  0.00  0.00    +0.077 C 
BRANCH  18  20
ATOM     20  C   UNL     1      -3.571  -3.099  24.829  0.00  0.00    +0.007 C 
BRANCH  20  22
ATOM     22  C   UNL     1      -2.102  -2.698  24.953  0.00  0.00    -0.003 C 
ATOM     23  C   UNL     1      -1.348  -2.933  23.653  0.00  0.00    +0.004 C 
ENDBRANCH  20  22
ENDBRANCH  18  20
ENDBRANCH  17  18
ENDBRANCH  11  14
ENDBRANCH   8  11
BRANCH   7  13
ATOM     13  C   UNL     1      -0.932   2.057  25.548  0.00  0.00    +0.099 C 
BRANCH  13  15
ATOM      3  O   UNL     1      -0.556  -0.329  25.657  0.00  0.00    -0.276 OA
ATOM      5  N   UNL     1       0.287   0.878  23.858  0.00  0.00    -0.311 N 
ATOM     15  C   UNL     1      -0.396   0.729  25.056  0.00  0.00    +0.214 C 
ATOM     30  H   UNL     1       0.380   1.803  23.449  0.00  0.00    +0.149 HD
BRANCH   5  19
ATOM     19  C   UNL     1       0.906  -0.227  23.162  0.00  0.00    +0.139 C 
BRANCH  19  21
ATOM      1  F   UNL     1       6.526   0.051  23.336  0.00  0.00    -0.205 F 
ATOM     21  C   UNL     1       2.404  -0.152  23.208  0.00  0.00    -0.030 A 
ATOM     24  C   UNL     1       3.143  -1.247  23.657  0.00  0.00    +0.008 A 
ATOM     25  C   UNL     1       3.058   1.011  22.803  0.00  0.00    +0.008 A 
ATOM     26  C   UNL     1       4.535  -1.178  23.700  0.00  0.00    +0.038 A 
ATOM     27  C   UNL     1       4.450   1.080  22.847  0.00  0.00    +0.038 A 
ATOM     28  C   UNL     1       5.189  -0.015  23.296  0.00  0.00    +0.123 A 
ENDBRANCH  19  21
ENDBRANCH   5  19
ENDBRANCH  13  15
ENDBRANCH   7  13
TORSDOF 9
ENDMDL
MODEL 3
REMARK VINA RESULT:      -4.7      2.244      4.980
REMARK  Name = 26742973
REMARK  10 active torsions:
REMARK  status: ('A' for Active; 'I' for Inactive)
REMARK    1  A    between atoms: N_5  and  C_19
REMARK    2  A    between atoms: C_7  and  C_13
REMARK    3  A    between atoms: C_8  and  C_11
REMARK    4  A    between atoms: C_11  and  C_14
REMARK    5  A    between atoms: C_13  and  C_15
REMARK    6  A    between atoms: C_17  and  C_18
REMARK    7  A    between atoms: C_18  and  C_20
REMARK    8  A    between atoms: C_19  and  C_21
REMARK    9  A    between atoms: C_20  and  C_22
REMARK   10  A    between atoms: C_22  and  C_23
REMARK                            x       y       z     vdW  Elec       q    Type
REMARK                         _______ _______ _______ _____ _____    ______ ____
ROOT
ATOM      4  N   UNL     1      -0.614   5.472  24.996  0.00  0.00    -0.316 NA
ATOM      7  C   UNL     1      -2.951   3.742  25.503  0.00  0.00    +0.004 C 
ATOM      8  C   UNL     1      -1.511   3.188  25.381  0.00  0.00    +0.012 C 
ATOM      9  C   UNL     1      -2.886   5.217  25.932  0.00  0.00    +0.019 C 
ATOM     10  C   UNL     1      -0.626   4.093  24.506  0.00  0.00    +0.085 C 
ATOM     12  C   UNL     1      -1.959   6.044  25.043  0.00  0.00    +0.081 C 
ATOM     29  H   UNL     1      -0.026   6.041  24.387  0.00  0.00    +0.122 HD
ENDROOT
BRANCH   8  11
ATOM     11  C   UNL     1      -1.463   1.745  24.878  0.00  0.00    +0.064 C 
BRANCH  11  14
ATOM      2  O   UNL     1       1.981   1.636  23.834  0.00  0.00    -0.359 OA
ATOM      6  N   UNL     1       0.918   2.225  24.507  0.00  0.00    -0.083 NA
ATOM     14  C   UNL     1      -0.122   1.415  24.288  0.00  0.00    +0.084 A 
ATOM     16  C   UNL     1       0.221   0.311  23.490  0.00  0.00    +0.071 A 
ATOM     17  C   UNL     1       1.554   0.497  23.232  0.00  0.00    +0.138 A 
BRANCH  17  18
ATOM     18  C   UNL     1       2.556  -0.257  22.470  0.00  0.00    +0.077 C 
BRANCH  18  20
ATOM     20  C   UNL     1       3.849   0.549  22.208  0.00  0.00    +0.007 C 
BRANCH  20  22
ATOM     22  C   UNL     1       4.953   0.231  23.216  0.00  0.00    -0.003 C 
ATOM     23  C   UNL     1       4.731  -1.119  23.879  0.00  0.00    +0.004 C 
ENDBRANCH  20  22
ENDBRANCH  18  20
ENDBRANCH  17  18
ENDBRANCH  11  14
ENDBRANCH   8  11
BRANCH   7  13
ATOM     13  C   UNL     1      -3.791   3.580  24.231  0.00  0.00    +0.099 C 
BRANCH  13  15
ATOM      3  O   UNL     1      -3.612   1.540  22.943  0.00  0.00    -0.276 OA
ATOM      5  N   UNL     1      -4.929   1.569  24.857  0.00  0.00    -0.311 N 
ATOM     15  C   UNL     1      -4.079   2.127  23.914  0.00  0.00    +0.214 C 
ATOM     30  H   UNL     1      -5.277   2.146  25.618  0.00  0.00    +0.149 HD
BRANCH   5  19
ATOM     19  C   UNL     1      -5.375   0.195  24.802  0.00  0.00    +0.139 C 
BRANCH  19  21
ATOM      1  F   UNL     1      -1.065  -3.425  24.941  0.00  0.00    -0.205 F 
ATOM     21  C   UNL     1      -4.226  -0.770  24.838  0.00  0.00    -0.030 A 
ATOM     24  C   UNL     1      -3.225  -0.626  25.799  0.00  0.00    +0.008 A 
ATOM     25  C   UNL     1      -4.159  -1.811  23.912  0.00  0.00    +0.008 A 
ATOM     26  C   UNL     1      -2.157  -1.522  25.833  0.00  0.00    +0.038 A 
ATOM     27  C   UNL     1      -3.091  -2.707  23.947  0.00  0.00    +0.038 A 
ATOM     28  C   UNL     1      -2.089  -2.563  24.907  0.00  0.00    +0.123 A 
ENDBRANCH  19  21
ENDBRANCH   5  19
ENDBRANCH  13  15
ENDBRANCH   7  13
TORSDOF 9
ENDMDL
MODEL 4
REMARK VINA RESULT:      -3.3      2.210      6.449
REMARK  Name = 26742973
REMARK  10 active torsions:
REMARK  status: ('A' for Active; 'I' for Inactive)
REMARK    1  A    between atoms: N_5  and  C_19
REMARK    2  A    between atoms: C_7  and  C_13
REMARK    3  A    between atoms: C_8  and  C_11
REMARK    4  A    between atoms: C_11  and  C_14
REMARK    5  A    between atoms: C_13  and  C_15
REMARK    6  A    between atoms: C_17  and  C_18
REMARK    7  A    between atoms: C_18  and  C_20
REMARK    8  A    between atoms: C_19  and  C_21
REMARK    9  A    between atoms: C_20  and  C_22
REMARK   10  A    between atoms: C_22  and  C_23
REMARK                            x       y       z     vdW  Elec       q    Type
REMARK                         _______ _______ _______ _____ _____    ______ ____
ROOT
ATOM      4  N   UNL     1      -3.212  -3.207  24.903  0.00  0.00    -0.316 NA
ATOM      7  C   UNL     1      -2.173  -0.446  24.989  0.00  0.00    +0.004 C 
ATOM      8  C   UNL     1      -3.673  -0.770  24.789  0.00  0.00    +0.012 C 
ATOM      9  C   UNL     1      -1.499  -1.623  25.715  0.00  0.00    +0.019 C 
ATOM     10  C   UNL     1      -3.875  -2.150  24.140  0.00  0.00    +0.085 C 
ATOM     12  C   UNL     1      -1.777  -2.964  25.036  0.00  0.00    +0.081 C 
ATOM     29  H   UNL     1      -3.362  -4.103  24.438  0.00  0.00    +0.122 HD
ENDROOT
BRANCH   8  11
ATOM     11  C   UNL     1      -4.419   0.308  24.000  0.00  0.00    +0.064 C 
BRANCH  11  14
ATOM      2  O   UNL     1      -5.099   3.374  25.761  0.00  0.00    -0.359 OA
ATOM      6  N   UNL     1      -5.495   2.178  25.176  0.00  0.00    -0.083 NA
ATOM     14  C   UNL     1      -4.370   1.633  24.706  0.00  0.00    +0.084 A 
ATOM     16  C   UNL     1      -3.243   2.433  24.961  0.00  0.00    +0.071 A 
ATOM     17  C   UNL     1      -3.756   3.515  25.626  0.00  0.00    +0.138 A 
BRANCH  17  18
ATOM     18  C   UNL     1      -3.165   4.734  26.191  0.00  0.00    +0.077 C 
BRANCH  18  20
ATOM     20  C   UNL     1      -2.117   5.387  25.261  0.00  0.00    +0.007 C 
BRANCH  20  22
ATOM     22  C   UNL     1      -0.828   4.572  25.166  0.00  0.00    -0.003 C 
ATOM     23  C   UNL     1      -0.303   4.522  23.740  0.00  0.00    +0.004 C 
ENDBRANCH  20  22
ENDBRANCH  18  20
ENDBRANCH  17  18
ENDBRANCH  11  14
ENDBRANCH   8  11
BRANCH   7  13
ATOM     13  C   UNL     1      -1.429  -0.107  23.692  0.00  0.00    +0.099 C 
BRANCH  13  15
ATOM      3  O   UNL     1       0.038   1.302  25.001  0.00  0.00    -0.276 OA
ATOM      5  N   UNL     1       0.644   0.725  22.832  0.00  0.00    -0.311 N 
ATOM     15  C   UNL     1      -0.185   0.719  23.944  0.00  0.00    +0.214 C 
ATOM     30  H   UNL     1       0.360   0.224  21.996  0.00  0.00    +0.149 HD
BRANCH   5  19
ATOM     19  C   UNL     1       1.902   1.437  22.791  0.00  0.00    +0.139 C 
BRANCH  19  21
ATOM      1  F   UNL     1       6.252  -1.890  24.094  0.00  0.00    -0.205 F 
ATOM     21  C   UNL     1       3.061   0.551  23.138  0.00  0.00    -0.030 A 
ATOM     24  C   UNL     1       2.844  -0.790  23.454  0.00  0.00    +0.008 A 
ATOM     25  C   UNL     1       4.357   1.067  23.147  0.00  0.00    +0.008 A 
ATOM     26  C   UNL     1       3.921  -1.615  23.777  0.00  0.00    +0.038 A 
ATOM     27  C   UNL     1       5.435   0.242  23.470  0.00  0.00    +0.038 A 
ATOM     28  C   UNL     1       5.217  -1.099  23.785  0.00  0.00    +0.123 A 
ENDBRANCH  19  21
ENDBRANCH   5  19
ENDBRANCH  13  15
ENDBRANCH   7  13
TORSDOF 9
ENDMDL
MODEL 5
REMARK VINA RESULT:      -3.2      2.367      7.013
REMARK  Name = 26742973
REMARK  10 active torsions:
REMARK  status: ('A' for Active; 'I' for Inactive)
REMARK    1  A    between atoms: N_5  and  C_19
REMARK    2  A    between atoms: C_7  and  C_13
REMARK    3  A    between atoms: C_8  and  C_11
REMARK    4  A    between atoms: C_11  and  C_14
REMARK    5  A    between atoms: C_13  and  C_15
REMARK    6  A    between atoms: C_17  and  C_18
REMARK    7  A    between atoms: C_18  and  C_20
REMARK    8  A    between atoms: C_19  and  C_21
REMARK    9  A    between atoms: C_20  and  C_22
REMARK   10  A    between atoms: C_22  and  C_23
REMARK                            x       y       z     vdW  Elec       q    Type
REMARK                         _______ _______ _______ _____ _____    ______ ____
ROOT
ATOM      4  N   UNL     1      -0.711   3.410  26.891  0.00  0.00    -0.316 NA
ATOM      7  C   UNL     1      -0.604   2.409  24.117  0.00  0.00    +0.004 C 
ATOM      8  C   UNL     1      -1.596   3.505  24.573  0.00  0.00    +0.012 C 
ATOM      9  C   UNL     1       0.612   2.409  25.060  0.00  0.00    +0.019 C 
ATOM     10  C   UNL     1      -1.923   3.388  26.072  0.00  0.00    +0.085 C 
ATOM     12  C   UNL     1       0.208   2.332  26.532  0.00  0.00    +0.081 C 
ATOM     29  H   UNL     1      -0.967   3.322  27.875  0.00  0.00    +0.122 HD
ENDROOT
BRANCH   8  11
ATOM     11  C   UNL     1      -2.882   3.532  23.745  0.00  0.00    +0.064 C 
BRANCH  11  14
ATOM      2  O   UNL     1      -5.447   1.304  24.937  0.00  0.00    -0.359 OA
ATOM      6  N   UNL     1      -4.866   2.561  24.822  0.00  0.00    -0.083 NA
ATOM     14  C   UNL     1      -3.772   2.369  24.080  0.00  0.00    +0.084 A 
ATOM     16  C   UNL     1      -3.612   1.025  23.702  0.00  0.00    +0.071 A 
ATOM     17  C   UNL     1      -4.692   0.398  24.266  0.00  0.00    +0.138 A 
BRANCH  17  18
ATOM     18  C   UNL     1      -5.165  -0.992  24.285  0.00  0.00    +0.077 C 
BRANCH  18  20
ATOM     20  C   UNL     1      -4.071  -2.008  23.885  0.00  0.00    +0.007 C 
BRANCH  20  22
ATOM     22  C   UNL     1      -3.339  -2.589  25.094  0.00  0.00    -0.003 C 
ATOM     23  C   UNL     1      -3.137  -1.543  26.179  0.00  0.00    +0.004 C 
ENDBRANCH  20  22
ENDBRANCH  18  20
ENDBRANCH  17  18
ENDBRANCH  11  14
ENDBRANCH   8  11
BRANCH   7  13
ATOM     13  C   UNL     1      -1.221   1.009  24.023  0.00  0.00    +0.099 C 
BRANCH  13  15
ATOM      3  O   UNL     1      -0.006  -1.059  24.338  0.00  0.00    -0.276 OA
ATOM      5  N   UNL     1       0.486   0.286  22.508  0.00  0.00    -0.311 N 
ATOM     15  C   UNL     1      -0.195  -0.048  23.669  0.00  0.00    +0.214 C 
ATOM     30  H   UNL     1       0.268   1.158  22.035  0.00  0.00    +0.149 HD
BRANCH   5  19
ATOM     19  C   UNL     1       1.525  -0.543  21.938  0.00  0.00    +0.139 C 
BRANCH  19  21
ATOM      1  F   UNL     1       6.504   0.312  24.423  0.00  0.00    -0.205 F 
ATOM     21  C   UNL     1       2.852  -0.314  22.600  0.00  0.00    -0.030 A 
ATOM     24  C   UNL     1       3.449  -1.338  23.336  0.00  0.00    +0.008 A 
ATOM     25  C   UNL     1       3.489   0.921  22.481  0.00  0.00    +0.008 A 
ATOM     26  C   UNL     1       4.683  -1.126  23.952  0.00  0.00    +0.038 A 
ATOM     27  C   UNL     1       4.722   1.133  23.097  0.00  0.00    +0.038 A 
ATOM     28  C   UNL     1       5.320   0.109  23.833  0.00  0.00    +0.123 A 
ENDBRANCH  19  21
ENDBRANCH   5  19
ENDBRANCH  13  15
ENDBRANCH   7  13
TORSDOF 9
ENDMDL
MODEL 6
REMARK VINA RESULT:      -3.2      2.499      6.919
REMARK  Name = 26742973
REMARK  10 active torsions:
REMARK  status: ('A' for Active; 'I' for Inactive)
REMARK    1  A    between atoms: N_5  and  C_19
REMARK    2  A    between atoms: C_7  and  C_13
REMARK    3  A    between atoms: C_8  and  C_11
REMARK    4  A    between atoms: C_11  and  C_14
REMARK    5  A    between atoms: C_13  and  C_15
REMARK    6  A    between atoms: C_17  and  C_18
REMARK    7  A    between atoms: C_18  and  C_20
REMARK    8  A    between atoms: C_19  and  C_21
REMARK    9  A    between atoms: C_20  and  C_22
REMARK   10  A    between atoms: C_22  and  C_23
REMARK                            x       y       z     vdW  Elec       q    Type
REMARK                         _______ _______ _______ _____ _____    ______ ____
ROOT
ATOM      4  N   UNL     1      -3.548  -1.640  25.690  0.00  0.00    -0.316 NA
ATOM      7  C   UNL     1      -0.834  -1.271  24.589  0.00  0.00    +0.004 C 
ATOM      8  C   UNL     1      -1.321  -0.555  25.872  0.00  0.00    +0.012 C 
ATOM      9  C   UNL     1      -1.657  -2.555  24.388  0.00  0.00    +0.019 C 
ATOM     10  C   UNL     1      -2.848  -0.368  25.873  0.00  0.00    +0.085 C 
ATOM     12  C   UNL     1      -3.162  -2.297  24.442  0.00  0.00    +0.081 C 
ATOM     29  H   UNL     1      -4.554  -1.474  25.688  0.00  0.00    +0.122 HD
ENDROOT
BRANCH   8  11
ATOM     11  C   UNL     1      -0.617   0.781  26.117  0.00  0.00    +0.064 C 
BRANCH  11  14
ATOM      2  O   UNL     1      -2.218   3.981  25.723  0.00  0.00    -0.359 OA
ATOM      6  N   UNL     1      -1.209   3.163  26.217  0.00  0.00    -0.083 NA
ATOM     14  C   UNL     1      -1.508   1.940  25.772  0.00  0.00    +0.084 A 
ATOM     16  C   UNL     1      -2.683   1.924  25.001  0.00  0.00    +0.071 A 
ATOM     17  C   UNL     1      -3.090   3.232  25.001  0.00  0.00    +0.138 A 
BRANCH  17  18
ATOM     18  C   UNL     1      -4.226   3.943  24.403  0.00  0.00    +0.077 C 
BRANCH  18  20
ATOM     20  C   UNL     1      -5.449   4.029  25.344  0.00  0.00    +0.007 C 
BRANCH  20  22
ATOM     22  C   UNL     1      -5.800   2.682  25.975  0.00  0.00    -0.003 C 
ATOM     23  C   UNL     1      -6.239   1.672  24.927  0.00  0.00    +0.004 C 
ENDBRANCH  20  22
ENDBRANCH  18  20
ENDBRANCH  17  18
ENDBRANCH  11  14
ENDBRANCH   8  11
BRANCH   7  13
ATOM     13  C   UNL     1      -0.874  -0.394  23.332  0.00  0.00    +0.099 C 
BRANCH  13  15
ATOM      3  O   UNL     1       0.869   1.236  23.724  0.00  0.00    -0.276 OA
ATOM      5  N   UNL     1       1.110  -0.298  21.995  0.00  0.00    -0.311 N 
ATOM     15  C   UNL     1       0.452   0.288  23.066  0.00  0.00    +0.214 C 
ATOM     30  H   UNL     1       0.670  -1.070  21.502  0.00  0.00    +0.149 HD
BRANCH   5  19
ATOM     19  C   UNL     1       2.397   0.154  21.518  0.00  0.00    +0.139 C 
BRANCH  19  21
ATOM      1  F   UNL     1       6.500  -0.870  25.234  0.00  0.00    -0.205 F 
ATOM     21  C   UNL     1       3.491  -0.119  22.509  0.00  0.00    -0.030 A 
ATOM     24  C   UNL     1       4.421   0.875  22.812  0.00  0.00    +0.008 A 
ATOM     25  C   UNL     1       3.579  -1.367  23.125  0.00  0.00    +0.008 A 
ATOM     26  C   UNL     1       5.438   0.621  23.733  0.00  0.00    +0.038 A 
ATOM     27  C   UNL     1       4.595  -1.621  24.046  0.00  0.00    +0.038 A 
ATOM     28  C   UNL     1       5.525  -0.626  24.350  0.00  0.00    +0.123 A 
ENDBRANCH  19  21
ENDBRANCH   5  19
ENDBRANCH  13  15
ENDBRANCH   7  13
TORSDOF 9
ENDMDL
MODEL 7
REMARK VINA RESULT:      -3.1      2.260      5.526
REMARK  Name = 26742973
REMARK  10 active torsions:
REMARK  status: ('A' for Active; 'I' for Inactive)
REMARK    1  A    between atoms: N_5  and  C_19
REMARK    2  A    between atoms: C_7  and  C_13
REMARK    3  A    between atoms: C_8  and  C_11
REMARK    4  A    between atoms: C_11  and  C_14
REMARK    5  A    between atoms: C_13  and  C_15
REMARK    6  A    between atoms: C_17  and  C_18
REMARK    7  A    between atoms: C_18  and  C_20
REMARK    8  A    between atoms: C_19  and  C_21
REMARK    9  A    between atoms: C_20  and  C_22
REMARK   10  A    between atoms: C_22  and  C_23
REMARK                            x       y       z     vdW  Elec       q    Type
REMARK                         _______ _______ _______ _____ _____    ______ ____
ROOT
ATOM      4  N   UNL     1      -4.556  -2.822  24.000  0.00  0.00    -0.316 NA
ATOM      7  C   UNL     1      -2.210  -1.315  24.967  0.00  0.00    +0.004 C 
ATOM      8  C   UNL     1      -3.252  -0.708  23.998  0.00  0.00    +0.012 C 
ATOM      9  C   UNL     1      -2.871  -2.450  25.768  0.00  0.00    +0.019 C 
ATOM     10  C   UNL     1      -3.946  -1.794  23.157  0.00  0.00    +0.085 C 
ATOM     12  C   UNL     1      -3.573  -3.466  24.869  0.00  0.00    +0.081 C 
ATOM     29  H   UNL     1      -4.997  -3.525  23.408  0.00  0.00    +0.122 HD
ENDROOT
BRANCH   8  11
ATOM     11  C   UNL     1      -2.669   0.379  23.094  0.00  0.00    +0.064 C 
BRANCH  11  14
ATOM      2  O   UNL     1      -3.834   3.786  23.066  0.00  0.00    -0.359 OA
ATOM      6  N   UNL     1      -3.155   2.714  22.500  0.00  0.00    -0.083 NA
ATOM     14  C   UNL     1      -3.288   1.718  23.381  0.00  0.00    +0.084 A 
ATOM     16  C   UNL     1      -4.033   2.099  24.510  0.00  0.00    +0.071 A 
ATOM     17  C   UNL     1      -4.352   3.408  24.262  0.00  0.00    +0.138 A 
BRANCH  17  18
ATOM     18  C   UNL     1      -5.107   4.427  25.001  0.00  0.00    +0.077 C 
BRANCH  18  20
ATOM     20  C   UNL     1      -6.220   3.828  25.892  0.00  0.00    +0.007 C 
BRANCH  20  22
ATOM     22  C   UNL     1      -6.422   2.332  25.652  0.00  0.00    -0.003 C 
ATOM     23  C   UNL     1      -6.528   1.568  26.962  0.00  0.00    +0.004 C 
ENDBRANCH  20  22
ENDBRANCH  18  20
ENDBRANCH  17  18
ENDBRANCH  11  14
ENDBRANCH   8  11
BRANCH   7  13
ATOM     13  C   UNL     1      -0.931  -1.805  24.280  0.00  0.00    +0.099 C 
BRANCH  13  15
ATOM      3  O   UNL     1       0.637  -0.646  22.848  0.00  0.00    -0.276 OA
ATOM      5  N   UNL     1      -0.021   0.334  24.850  0.00  0.00    -0.311 N 
ATOM     15  C   UNL     1      -0.016  -0.664  23.887  0.00  0.00    +0.214 C 
ATOM     30  H   UNL     1      -0.584   0.216  25.687  0.00  0.00    +0.149 HD
BRANCH   5  19
ATOM     19  C   UNL     1       0.765   1.543  24.736  0.00  0.00    +0.139 C 
BRANCH  19  21
ATOM      1  F   UNL     1      -2.339   6.163  25.578  0.00  0.00    -0.205 F 
ATOM     21  C   UNL     1      -0.062   2.774  24.961  0.00  0.00    -0.030 A 
ATOM     24  C   UNL     1       0.041   3.853  24.083  0.00  0.00    +0.008 A 
ATOM     25  C   UNL     1      -0.934   2.841  26.048  0.00  0.00    +0.008 A 
ATOM     26  C   UNL     1      -0.728   4.998  24.292  0.00  0.00    +0.038 A 
ATOM     27  C   UNL     1      -1.703   3.986  26.256  0.00  0.00    +0.038 A 
ATOM     28  C   UNL     1      -1.600   5.065  25.378  0.00  0.00    +0.123 A 
ENDBRANCH  19  21
ENDBRANCH   5  19
ENDBRANCH  13  15
ENDBRANCH   7  13
TORSDOF 9
ENDMDL
MODEL 8
REMARK VINA RESULT:      -2.1      2.532      6.226
REMARK  Name = 26742973
REMARK  10 active torsions:
REMARK  status: ('A' for Active; 'I' for Inactive)
REMARK    1  A    between atoms: N_5  and  C_19
REMARK    2  A    between atoms: C_7  and  C_13
REMARK    3  A    between atoms: C_8  and  C_11
REMARK    4  A    between atoms: C_11  and  C_14
REMARK    5  A    between atoms: C_13  and  C_15
REMARK    6  A    between atoms: C_17  and  C_18
REMARK    7  A    between atoms: C_18  and  C_20
REMARK    8  A    between atoms: C_19  and  C_21
REMARK    9  A    between atoms: C_20  and  C_22
REMARK   10  A    between atoms: C_22  and  C_23
REMARK                            x       y       z     vdW  Elec       q    Type
REMARK                         _______ _______ _______ _____ _____    ______ ____
ROOT
ATOM      4  N   UNL     1       3.223   0.911  22.088  0.00  0.00    -0.316 NA
ATOM      7  C   UNL     1       0.612  -0.006  23.114  0.00  0.00    +0.004 C 
ATOM      8  C   UNL     1       1.314   1.271  23.635  0.00  0.00    +0.012 C 
ATOM      9  C   UNL     1       1.111  -0.307  21.690  0.00  0.00    +0.019 C 
ATOM     10  C   UNL     1       2.841   1.187  23.474  0.00  0.00    +0.085 C 
ATOM     12  C   UNL     1       2.636  -0.335  21.600  0.00  0.00    +0.081 C 
ATOM     29  H   UNL     1       4.239   0.854  22.024  0.00  0.00    +0.122 HD
ENDROOT
BRANCH   8  11
ATOM     11  C   UNL     1       0.945   1.611  25.080  0.00  0.00    +0.064 C 
BRANCH  11  14
ATOM      2  O   UNL     1      -1.160   4.505  24.682  0.00  0.00    -0.359 OA
ATOM      6  N   UNL     1      -0.018   3.767  24.398  0.00  0.00    -0.083 NA
ATOM     14  C   UNL     1      -0.130   2.659  25.137  0.00  0.00    +0.084 A 
ATOM     16  C   UNL     1      -1.309   2.644  25.901  0.00  0.00    +0.071 A 
ATOM     17  C   UNL     1      -1.921   3.827  25.579  0.00  0.00    +0.138 A 
BRANCH  17  18
ATOM     18  C   UNL     1      -3.174   4.468  25.993  0.00  0.00    +0.077 C 
BRANCH  18  20
ATOM     20  C   UNL     1      -4.413   3.907  25.259  0.00  0.00    +0.007 C 
BRANCH  20  22
ATOM     22  C   UNL     1      -4.282   3.990  23.739  0.00  0.00    -0.003 C 
ATOM     23  C   UNL     1      -3.686   2.717  23.160  0.00  0.00    +0.004 C 
ENDBRANCH  20  22
ENDBRANCH  18  20
ENDBRANCH  17  18
ENDBRANCH  11  14
ENDBRANCH   8  11
BRANCH   7  13
ATOM     13  C   UNL     1       0.786  -1.228  24.023  0.00  0.00    +0.099 C 
BRANCH  13  15
ATOM      3  O   UNL     1      -0.608  -1.064  25.993  0.00  0.00    -0.276 OA
ATOM      5  N   UNL     1      -1.347  -2.305  24.172  0.00  0.00    -0.311 N 
ATOM     15  C   UNL     1      -0.447  -1.502  24.857  0.00  0.00    +0.214 C 
ATOM     30  H   UNL     1      -1.112  -2.633  23.240  0.00  0.00    +0.149 HD
BRANCH   5  19
ATOM     19  C   UNL     1      -2.611  -2.728  24.731  0.00  0.00    +0.139 C 
BRANCH  19  21
ATOM      1  F   UNL     1      -6.215   1.563  25.275  0.00  0.00    -0.205 F 
ATOM     21  C   UNL     1      -3.572  -1.584  24.876  0.00  0.00    -0.030 A 
ATOM     24  C   UNL     1      -3.594  -0.837  26.053  0.00  0.00    +0.008 A 
ATOM     25  C   UNL     1      -4.443  -1.268  23.834  0.00  0.00    +0.008 A 
ATOM     26  C   UNL     1      -4.487   0.226  26.189  0.00  0.00    +0.038 A 
ATOM     27  C   UNL     1      -5.336  -0.205  23.969  0.00  0.00    +0.038 A 
ATOM     28  C   UNL     1      -5.359   0.542  25.147  0.00  0.00    +0.123 A 
ENDBRANCH  19  21
ENDBRANCH   5  19
ENDBRANCH  13  15
ENDBRANCH   7  13
TORSDOF 9
ENDMDL
