MODEL 1
REMARK VINA RESULT:      -2.6      0.000      0.000
REMARK  Name = 11913153
REMARK  7 active torsions:
REMARK  status: ('A' for Active; 'I' for Inactive)
REMARK    1  A    between atoms: O_3  and  C_13
REMARK    2  A    between atoms: O_3  and  C_17
REMARK    3  A    between atoms: O_5  and  C_27
REMARK    4  A    between atoms: O_5  and  C_28
REMARK    5  A    between atoms: N_6  and  C_12
REMARK    6  A    between atoms: C_17  and  C_18
REMARK    7  A    between atoms: C_19  and  C_22
REMARK                            x       y       z     vdW  Elec       q    Type
REMARK                         _______ _______ _______ _____ _____    ______ ____
ROOT
ATOM      6  N   UNL     1      -3.670   4.524  24.771  0.00  0.00    -0.306 N 
ATOM      7  N   UNL     1      -4.063   2.214  24.892  0.00  0.00    -0.214 NA
ATOM      8  N   UNL     1      -5.724   3.794  25.637  0.00  0.00    -0.223 NA
ATOM     16  C   UNL     1      -4.511   3.480  25.110  0.00  0.00    +0.216 A 
ATOM     19  C   UNL     1      -4.909   1.220  25.234  0.00  0.00    +0.076 A 
ATOM     20  C   UNL     1      -6.518   2.751  25.957  0.00  0.00    +0.116 A 
ATOM     21  C   UNL     1      -6.161   1.430  25.777  0.00  0.00    +0.048 A 
ATOM     29  H   UNL     1      -3.992   5.461  24.986  0.00  0.00    +0.149 HD
ENDROOT
BRANCH   6  12
ATOM      1  O   UNL     1      -0.817   4.569  26.008  0.00  0.00    -0.369 OA
ATOM      2  O   UNL     1      -0.756   2.603  23.652  0.00  0.00    -0.369 OA
ATOM     10  C   UNL     1      -1.813   2.973  24.563  0.00  0.00    +0.172 C 
ATOM     11  C   UNL     1      -1.171   3.179  25.921  0.00  0.00    +0.180 C 
ATOM     12  C   UNL     1      -2.351   4.339  24.203  0.00  0.00    +0.130 C 
ATOM     13  C   UNL     1       0.051   2.295  25.841  0.00  0.00    +0.176 C 
ATOM     14  C   UNL     1      -1.353   5.267  24.873  0.00  0.00    +0.185 C 
ATOM     15  C   UNL     1       0.462   2.449  24.394  0.00  0.00    +0.194 C 
BRANCH  13   3
ATOM      3  O   UNL     1       1.079   2.675  26.729  0.00  0.00    -0.362 OA
BRANCH   3  17
ATOM     17  C   UNL     1       0.748   2.382  28.084  0.00  0.00    +0.255 C 
BRANCH  17  18
ATOM      4  O   UNL     1       2.964   3.177  28.633  0.00  0.00    -0.274 OA
ATOM      9  N   UNL     1       1.890   1.772  30.106  0.00  0.00    -0.327 N 
ATOM     18  C   UNL     1       1.985   2.503  28.942  0.00  0.00    +0.236 C 
ATOM     30  H   UNL     1       1.067   1.223  30.336  0.00  0.00    +0.145 HD
ATOM     31  H   UNL     1       2.649   1.761  30.780  0.00  0.00    +0.145 HD
ENDBRANCH  17  18
ENDBRANCH   3  17
ENDBRANCH  13   3
ENDBRANCH   6  12
BRANCH  19  22
ATOM     22  C   UNL     1      -4.415  -0.115  24.996  0.00  0.00    +0.001 A 
ATOM     23  C   UNL     1      -3.614  -0.745  25.949  0.00  0.00    +0.013 A 
ATOM     24  C   UNL     1      -4.738  -0.780  23.812  0.00  0.00    +0.013 A 
ATOM     25  C   UNL     1      -3.137  -2.036  25.720  0.00  0.00    +0.046 A 
ATOM     26  C   UNL     1      -4.262  -2.071  23.581  0.00  0.00    +0.046 A 
ATOM     27  C   UNL     1      -3.461  -2.699  24.536  0.00  0.00    +0.120 A 
BRANCH  27   5
ATOM      5  O   UNL     1      -2.997  -3.959  24.312  0.00  0.00    -0.495 OA
ATOM     28  C   UNL     1      -2.033  -4.120  23.273  0.00  0.00    +0.277 C 
ENDBRANCH  27   5
ENDBRANCH  19  22
TORSDOF 6
ENDMDL
MODEL 2
REMARK VINA RESULT:      -0.7      3.011      5.236
REMARK  Name = 11913153
REMARK  7 active torsions:
REMARK  status: ('A' for Active; 'I' for Inactive)
REMARK    1  A    between atoms: O_3  and  C_13
REMARK    2  A    between atoms: O_3  and  C_17
REMARK    3  A    between atoms: O_5  and  C_27
REMARK    4  A    between atoms: O_5  and  C_28
REMARK    5  A    between atoms: N_6  and  C_12
REMARK    6  A    between atoms: C_17  and  C_18
REMARK    7  A    between atoms: C_19  and  C_22
REMARK                            x       y       z     vdW  Elec       q    Type
REMARK                         _______ _______ _______ _____ _____    ______ ____
ROOT
ATOM      6  N   UNL     1      -5.103  -0.387  24.551  0.00  0.00    -0.306 N 
ATOM      7  N   UNL     1      -2.769  -0.401  24.315  0.00  0.00    -0.214 NA
ATOM      8  N   UNL     1      -3.932  -2.302  25.230  0.00  0.00    -0.223 NA
ATOM     16  C   UNL     1      -3.899  -1.049  24.703  0.00  0.00    +0.216 A 
ATOM     19  C   UNL     1      -1.612  -1.077  24.477  0.00  0.00    +0.076 A 
ATOM     20  C   UNL     1      -2.740  -2.920  25.365  0.00  0.00    +0.116 A 
ATOM     21  C   UNL     1      -1.536  -2.351  25.003  0.00  0.00    +0.048 A 
ATOM     29  H   UNL     1      -5.933  -0.859  24.891  0.00  0.00    +0.149 HD
ENDROOT
BRANCH   6  12
ATOM      1  O   UNL     1      -4.814   2.439  25.819  0.00  0.00    -0.369 OA
ATOM      2  O   UNL     1      -3.913   2.658  22.894  0.00  0.00    -0.369 OA
ATOM     10  C   UNL     1      -3.849   1.566  23.836  0.00  0.00    +0.172 C 
ATOM     11  C   UNL     1      -3.549   2.173  25.192  0.00  0.00    +0.180 C 
ATOM     12  C   UNL     1      -5.218   0.950  24.006  0.00  0.00    +0.130 C 
ATOM     13  C   UNL     1      -2.827   3.448  24.827  0.00  0.00    +0.176 C 
ATOM     14  C   UNL     1      -5.867   1.878  25.019  0.00  0.00    +0.185 C 
ATOM     15  C   UNL     1      -3.547   3.872  23.566  0.00  0.00    +0.194 C 
BRANCH  13   3
ATOM      3  O   UNL     1      -2.888   4.436  25.830  0.00  0.00    -0.362 OA
BRANCH   3  17
ATOM     17  C   UNL     1      -1.961   5.492  25.595  0.00  0.00    +0.255 C 
BRANCH  17  18
ATOM      4  O   UNL     1      -0.192   5.316  23.958  0.00  0.00    -0.274 OA
ATOM      9  N   UNL     1      -0.151   3.927  25.792  0.00  0.00    -0.327 N 
ATOM     18  C   UNL     1      -0.689   4.926  25.011  0.00  0.00    +0.236 C 
ATOM     30  H   UNL     1      -0.584   3.624  26.659  0.00  0.00    +0.145 HD
ATOM     31  H   UNL     1       0.706   3.456  25.520  0.00  0.00    +0.145 HD
ENDBRANCH  17  18
ENDBRANCH   3  17
ENDBRANCH  13   3
ENDBRANCH   6  12
BRANCH  19  22
ATOM     22  C   UNL     1      -0.425  -0.370  24.061  0.00  0.00    +0.001 A 
ATOM     23  C   UNL     1      -0.177   0.921  24.531  0.00  0.00    +0.013 A 
ATOM     24  C   UNL     1       0.480  -0.976  23.188  0.00  0.00    +0.013 A 
ATOM     25  C   UNL     1       0.971   1.604  24.129  0.00  0.00    +0.046 A 
ATOM     26  C   UNL     1       1.629  -0.294  22.786  0.00  0.00    +0.046 A 
ATOM     27  C   UNL     1       1.874   0.996  23.257  0.00  0.00    +0.120 A 
BRANCH  27   5
ATOM      5  O   UNL     1       2.995   1.662  22.865  0.00  0.00    -0.495 OA
ATOM     28  C   UNL     1       4.203   0.908  22.785  0.00  0.00    +0.277 C 
ENDBRANCH  27   5
ENDBRANCH  19  22
TORSDOF 6
ENDMDL
MODEL 3
REMARK VINA RESULT:      -0.5      2.160      2.985
REMARK  Name = 11913153
REMARK  7 active torsions:
REMARK  status: ('A' for Active; 'I' for Inactive)
REMARK    1  A    between atoms: O_3  and  C_13
REMARK    2  A    between atoms: O_3  and  C_17
REMARK    3  A    between atoms: O_5  and  C_27
REMARK    4  A    between atoms: O_5  and  C_28
REMARK    5  A    between atoms: N_6  and  C_12
REMARK    6  A    between atoms: C_17  and  C_18
REMARK    7  A    between atoms: C_19  and  C_22
REMARK                            x       y       z     vdW  Elec       q    Type
REMARK                         _______ _______ _______ _____ _____    ______ ____
ROOT
ATOM      6  N   UNL     1      -3.100   4.685  25.675  0.00  0.00    -0.306 N 
ATOM      7  N   UNL     1      -3.689   2.438  25.341  0.00  0.00    -0.214 NA
ATOM      8  N   UNL     1      -5.375   4.115  25.729  0.00  0.00    -0.223 NA
ATOM     16  C   UNL     1      -4.084   3.717  25.579  0.00  0.00    +0.216 A 
ATOM     19  C   UNL     1      -4.674   1.520  25.254  0.00  0.00    +0.076 A 
ATOM     20  C   UNL     1      -6.309   3.146  25.630  0.00  0.00    +0.116 A 
ATOM     21  C   UNL     1      -6.015   1.818  25.391  0.00  0.00    +0.048 A 
ATOM     29  H   UNL     1      -3.402   5.625  25.904  0.00  0.00    +0.149 HD
ENDROOT
BRANCH   6  12
ATOM      1  O   UNL     1      -1.423   2.086  26.004  0.00  0.00    -0.369 OA
ATOM      2  O   UNL     1      -0.028   3.806  23.880  0.00  0.00    -0.369 OA
ATOM     10  C   UNL     1      -1.419   3.675  24.243  0.00  0.00    +0.172 C 
ATOM     11  C   UNL     1      -1.647   2.217  24.591  0.00  0.00    +0.180 C 
ATOM     12  C   UNL     1      -1.686   4.405  25.539  0.00  0.00    +0.130 C 
ATOM     13  C   UNL     1      -0.575   1.519  23.789  0.00  0.00    +0.176 C 
ATOM     14  C   UNL     1      -1.247   3.390  26.580  0.00  0.00    +0.185 C 
ATOM     15  C   UNL     1       0.571   2.502  23.864  0.00  0.00    +0.194 C 
BRANCH  13   3
ATOM      3  O   UNL     1      -0.223   0.253  24.301  0.00  0.00    -0.362 OA
BRANCH   3  17
ATOM     17  C   UNL     1       0.036  -0.689  23.264  0.00  0.00    +0.255 C 
BRANCH  17  18
ATOM      4  O   UNL     1       2.415  -0.265  23.246  0.00  0.00    -0.274 OA
ATOM      9  N   UNL     1       1.266  -0.232  21.253  0.00  0.00    -0.327 N 
ATOM     18  C   UNL     1       1.365  -0.377  22.620  0.00  0.00    +0.236 C 
ATOM     30  H   UNL     1       0.383  -0.330  20.760  0.00  0.00    +0.145 HD
ATOM     31  H   UNL     1       2.083  -0.021  20.689  0.00  0.00    +0.145 HD
ENDBRANCH  17  18
ENDBRANCH   3  17
ENDBRANCH  13   3
ENDBRANCH   6  12
BRANCH  19  22
ATOM     22  C   UNL     1      -4.234   0.169  25.003  0.00  0.00    +0.001 A 
ATOM     23  C   UNL     1      -3.633  -0.572  26.022  0.00  0.00    +0.013 A 
ATOM     24  C   UNL     1      -4.408  -0.401  23.740  0.00  0.00    +0.013 A 
ATOM     25  C   UNL     1      -3.208  -1.879  25.780  0.00  0.00    +0.046 A 
ATOM     26  C   UNL     1      -3.983  -1.708  23.497  0.00  0.00    +0.046 A 
ATOM     27  C   UNL     1      -3.383  -2.446  24.518  0.00  0.00    +0.120 A 
BRANCH  27   5
ATOM      5  O   UNL     1      -2.969  -3.722  24.281  0.00  0.00    -0.495 OA
ATOM     28  C   UNL     1      -1.854  -3.891  23.408  0.00  0.00    +0.277 C 
ENDBRANCH  27   5
ENDBRANCH  19  22
TORSDOF 6
ENDMDL
MODEL 4
REMARK VINA RESULT:      -0.4      2.606      5.413
REMARK  Name = 11913153
REMARK  7 active torsions:
REMARK  status: ('A' for Active; 'I' for Inactive)
REMARK    1  A    between atoms: O_3  and  C_13
REMARK    2  A    between atoms: O_3  and  C_17
REMARK    3  A    between atoms: O_5  and  C_27
REMARK    4  A    between atoms: O_5  and  C_28
REMARK    5  A    between atoms: N_6  and  C_12
REMARK    6  A    between atoms: C_17  and  C_18
REMARK    7  A    between atoms: C_19  and  C_22
REMARK                            x       y       z     vdW  Elec       q    Type
REMARK                         _______ _______ _______ _____ _____    ______ ____
ROOT
ATOM      6  N   UNL     1      -1.054  -2.065  24.531  0.00  0.00    -0.306 N 
ATOM      7  N   UNL     1      -2.915  -0.647  24.706  0.00  0.00    -0.214 NA
ATOM      8  N   UNL     1      -3.135  -2.872  23.807  0.00  0.00    -0.223 NA
ATOM     16  C   UNL     1      -2.408  -1.855  24.343  0.00  0.00    +0.216 A 
ATOM     19  C   UNL     1      -4.239  -0.476  24.508  0.00  0.00    +0.076 A 
ATOM     20  C   UNL     1      -4.452  -2.633  23.636  0.00  0.00    +0.116 A 
ATOM     21  C   UNL     1      -5.065  -1.442  23.971  0.00  0.00    +0.048 A 
ATOM     29  H   UNL     1      -0.678  -2.950  24.209  0.00  0.00    +0.149 HD
ENDROOT
BRANCH   6  12
ATOM      1  O   UNL     1      -0.015   0.668  23.473  0.00  0.00    -0.369 OA
ATOM      2  O   UNL     1      -0.155   0.871  26.532  0.00  0.00    -0.369 OA
ATOM     10  C   UNL     1      -0.944   0.119  25.585  0.00  0.00    +0.172 C 
ATOM     11  C   UNL     1      -1.102   0.991  24.355  0.00  0.00    +0.180 C 
ATOM     12  C   UNL     1      -0.160  -1.073  25.089  0.00  0.00    +0.130 C 
ATOM     13  C   UNL     1      -0.967   2.384  24.923  0.00  0.00    +0.176 C 
ATOM     14  C   UNL     1       0.699  -0.463  23.995  0.00  0.00    +0.185 C 
ATOM     15  C   UNL     1       0.069   2.187  26.007  0.00  0.00    +0.194 C 
BRANCH  13   3
ATOM      3  O   UNL     1      -0.563   3.343  23.971  0.00  0.00    -0.362 OA
BRANCH   3  17
ATOM     17  C   UNL     1      -0.336   4.619  24.562  0.00  0.00    +0.255 C 
BRANCH  17  18
ATOM      4  O   UNL     1      -2.242   4.559  26.046  0.00  0.00    -0.274 OA
ATOM      9  N   UNL     1      -2.024   6.326  24.588  0.00  0.00    -0.327 N 
ATOM     18  C   UNL     1      -1.624   5.136  25.156  0.00  0.00    +0.236 C 
ATOM     30  H   UNL     1      -1.493   6.781  23.852  0.00  0.00    +0.145 HD
ATOM     31  H   UNL     1      -2.874   6.789  24.891  0.00  0.00    +0.145 HD
ENDBRANCH  17  18
ENDBRANCH   3  17
ENDBRANCH  13   3
ENDBRANCH   6  12
BRANCH  19  22
ATOM     22  C   UNL     1      -4.756   0.813  24.899  0.00  0.00    +0.001 A 
ATOM     23  C   UNL     1      -4.309   1.971  24.261  0.00  0.00    +0.013 A 
ATOM     24  C   UNL     1      -5.708   0.906  25.917  0.00  0.00    +0.013 A 
ATOM     25  C   UNL     1      -4.809   3.217  24.637  0.00  0.00    +0.046 A 
ATOM     26  C   UNL     1      -6.210   2.152  26.294  0.00  0.00    +0.046 A 
ATOM     27  C   UNL     1      -5.760   3.307  25.654  0.00  0.00    +0.120 A 
BRANCH  27   5
ATOM      5  O   UNL     1      -6.250   4.523  26.022  0.00  0.00    -0.495 OA
ATOM     28  C   UNL     1      -6.237   5.554  25.037  0.00  0.00    +0.277 C 
ENDBRANCH  27   5
ENDBRANCH  19  22
TORSDOF 6
ENDMDL
MODEL 5
REMARK VINA RESULT:      -0.2      3.688      5.871
REMARK  Name = 11913153
REMARK  7 active torsions:
REMARK  status: ('A' for Active; 'I' for Inactive)
REMARK    1  A    between atoms: O_3  and  C_13
REMARK    2  A    between atoms: O_3  and  C_17
REMARK    3  A    between atoms: O_5  and  C_27
REMARK    4  A    between atoms: O_5  and  C_28
REMARK    5  A    between atoms: N_6  and  C_12
REMARK    6  A    between atoms: C_17  and  C_18
REMARK    7  A    between atoms: C_19  and  C_22
REMARK                            x       y       z     vdW  Elec       q    Type
REMARK                         _______ _______ _______ _____ _____    ______ ____
ROOT
ATOM      6  N   UNL     1      -0.978  -1.940  24.262  0.00  0.00    -0.306 N 
ATOM      7  N   UNL     1      -2.823  -0.525  24.581  0.00  0.00    -0.214 NA
ATOM      8  N   UNL     1      -3.116  -2.784  23.795  0.00  0.00    -0.223 NA
ATOM     16  C   UNL     1      -2.347  -1.744  24.211  0.00  0.00    +0.216 A 
ATOM     19  C   UNL     1      -4.162  -0.369  24.518  0.00  0.00    +0.076 A 
ATOM     20  C   UNL     1      -4.446  -2.559  23.756  0.00  0.00    +0.116 A 
ATOM     21  C   UNL     1      -5.032  -1.360  24.109  0.00  0.00    +0.048 A 
ATOM     29  H   UNL     1      -0.630  -2.834  23.936  0.00  0.00    +0.149 HD
ENDROOT
BRANCH   6  12
ATOM      1  O   UNL     1       2.032  -1.462  23.644  0.00  0.00    -0.369 OA
ATOM      2  O   UNL     1       0.748   1.289  24.089  0.00  0.00    -0.369 OA
ATOM     10  C   UNL     1       0.212   0.056  23.560  0.00  0.00    +0.172 C 
ATOM     11  C   UNL     1       1.318  -0.592  22.751  0.00  0.00    +0.180 C 
ATOM     12  C   UNL     1      -0.039  -0.922  24.684  0.00  0.00    +0.130 C 
ATOM     13  C   UNL     1       2.158   0.594  22.337  0.00  0.00    +0.176 C 
ATOM     14  C   UNL     1       1.336  -1.530  24.898  0.00  0.00    +0.185 C 
ATOM     15  C   UNL     1       2.063   1.491  23.551  0.00  0.00    +0.194 C 
BRANCH  13   3
ATOM      3  O   UNL     1       3.492   0.258  22.028  0.00  0.00    -0.362 OA
BRANCH   3  17
ATOM     17  C   UNL     1       4.414   0.838  22.947  0.00  0.00    +0.255 C 
BRANCH  17  18
ATOM      4  O   UNL     1       6.601  -0.178  23.109  0.00  0.00    -0.274 OA
ATOM      9  N   UNL     1       4.821  -1.197  24.155  0.00  0.00    -0.327 N 
ATOM     18  C   UNL     1       5.407  -0.208  23.394  0.00  0.00    +0.236 C 
ATOM     30  H   UNL     1       3.830  -1.196  24.375  0.00  0.00    +0.145 HD
ATOM     31  H   UNL     1       5.371  -1.966  24.524  0.00  0.00    +0.145 HD
ENDBRANCH  17  18
ENDBRANCH   3  17
ENDBRANCH  13   3
ENDBRANCH   6  12
BRANCH  19  22
ATOM     22  C   UNL     1      -4.647   0.932  24.913  0.00  0.00    +0.001 A 
ATOM     23  C   UNL     1      -5.819   1.044  25.663  0.00  0.00    +0.013 A 
ATOM     24  C   UNL     1      -3.945   2.082  24.546  0.00  0.00    +0.013 A 
ATOM     25  C   UNL     1      -6.287   2.301  26.046  0.00  0.00    +0.046 A 
ATOM     26  C   UNL     1      -4.412   3.339  24.928  0.00  0.00    +0.046 A 
ATOM     27  C   UNL     1      -5.584   3.449  25.678  0.00  0.00    +0.120 A 
BRANCH  27   5
ATOM      5  O   UNL     1      -6.040   4.676  26.052  0.00  0.00    -0.495 OA
ATOM     28  C   UNL     1      -6.303   5.615  25.011  0.00  0.00    +0.277 C 
ENDBRANCH  27   5
ENDBRANCH  19  22
TORSDOF 6
ENDMDL
MODEL 6
REMARK VINA RESULT:       0.4      2.250      3.615
REMARK  Name = 11913153
REMARK  7 active torsions:
REMARK  status: ('A' for Active; 'I' for Inactive)
REMARK    1  A    between atoms: O_3  and  C_13
REMARK    2  A    between atoms: O_3  and  C_17
REMARK    3  A    between atoms: O_5  and  C_27
REMARK    4  A    between atoms: O_5  and  C_28
REMARK    5  A    between atoms: N_6  and  C_12
REMARK    6  A    between atoms: C_17  and  C_18
REMARK    7  A    between atoms: C_19  and  C_22
REMARK                            x       y       z     vdW  Elec       q    Type
REMARK                         _______ _______ _______ _____ _____    ______ ____
ROOT
ATOM      6  N   UNL     1      -4.746   2.531  25.026  0.00  0.00    -0.306 N 
ATOM      7  N   UNL     1      -2.944   1.133  24.475  0.00  0.00    -0.214 NA
ATOM      8  N   UNL     1      -5.161   0.237  24.772  0.00  0.00    -0.223 NA
ATOM     16  C   UNL     1      -4.269   1.262  24.750  0.00  0.00    +0.216 A 
ATOM     19  C   UNL     1      -2.513  -0.118  24.210  0.00  0.00    +0.076 A 
ATOM     20  C   UNL     1      -4.663  -0.987  24.498  0.00  0.00    +0.116 A 
ATOM     21  C   UNL     1      -3.335  -1.228  24.208  0.00  0.00    +0.048 A 
ATOM     29  H   UNL     1      -5.724   2.609  25.280  0.00  0.00    +0.149 HD
ENDROOT
BRANCH   6  12
ATOM      1  O   UNL     1      -2.464   3.481  26.914  0.00  0.00    -0.369 OA
ATOM      2  O   UNL     1      -1.850   4.585  24.118  0.00  0.00    -0.369 OA
ATOM     10  C   UNL     1      -2.523   3.382  24.545  0.00  0.00    +0.172 C 
ATOM     11  C   UNL     1      -1.801   2.892  25.784  0.00  0.00    +0.180 C 
ATOM     12  C   UNL     1      -3.911   3.715  25.039  0.00  0.00    +0.130 C 
ATOM     13  C   UNL     1      -0.412   3.452  25.596  0.00  0.00    +0.176 C 
ATOM     14  C   UNL     1      -3.650   4.159  26.468  0.00  0.00    +0.185 C 
ATOM     15  C   UNL     1      -0.692   4.787  24.942  0.00  0.00    +0.194 C 
BRANCH  13   3
ATOM      3  O   UNL     1       0.306   3.593  26.802  0.00  0.00    -0.362 OA
BRANCH   3  17
ATOM     17  C   UNL     1       0.593   2.333  27.402  0.00  0.00    +0.255 C 
BRANCH  17  18
ATOM      4  O   UNL     1       0.850   2.568  29.793  0.00  0.00    -0.274 OA
ATOM      9  N   UNL     1       2.717   2.717  28.455  0.00  0.00    -0.327 N 
ATOM     18  C   UNL     1       1.368   2.548  28.680  0.00  0.00    +0.236 C 
ATOM     30  H   UNL     1       3.118   2.695  27.522  0.00  0.00    +0.145 HD
ATOM     31  H   UNL     1       3.360   2.869  29.225  0.00  0.00    +0.145 HD
ENDBRANCH  17  18
ENDBRANCH   3  17
ENDBRANCH  13   3
ENDBRANCH   6  12
BRANCH  19  22
ATOM     22  C   UNL     1      -1.104  -0.234  23.923  0.00  0.00    +0.001 A 
ATOM     23  C   UNL     1      -0.487   0.676  23.063  0.00  0.00    +0.013 A 
ATOM     24  C   UNL     1      -0.353  -1.257  24.505  0.00  0.00    +0.013 A 
ATOM     25  C   UNL     1       0.876   0.566  22.787  0.00  0.00    +0.046 A 
ATOM     26  C   UNL     1       1.010  -1.369  24.229  0.00  0.00    +0.046 A 
ATOM     27  C   UNL     1       1.624  -0.457  23.369  0.00  0.00    +0.120 A 
BRANCH  27   5
ATOM      5  O   UNL     1       2.955  -0.566  23.100  0.00  0.00    -0.495 OA
ATOM     28  C   UNL     1       3.652   0.634  22.774  0.00  0.00    +0.277 C 
ENDBRANCH  27   5
ENDBRANCH  19  22
TORSDOF 6
ENDMDL
