MODEL 1
REMARK VINA RESULT:      -1.1      0.000      0.000
REMARK  Name = 11865718
REMARK  7 active torsions:
REMARK  status: ('A' for Active; 'I' for Inactive)
REMARK    1  A    between atoms: O_2  and  C_11
REMARK    2  A    between atoms: O_3  and  C_13
REMARK    3  A    between atoms: N_7  and  C_12
REMARK    4  A    between atoms: N_8  and  C_19
REMARK    5  A    between atoms: N_9  and  C_20
REMARK    6  A    between atoms: C_15  and  C_17
REMARK    7  A    between atoms: C_19  and  C_21
REMARK                            x       y       z     vdW  Elec       q    Type
REMARK                         _______ _______ _______ _____ _____    ______ ____
ROOT
ATOM     11  C   UNL     1      15.859  -5.660  30.558  0.00  0.00    +0.167 C 
ATOM     12  C   UNL     1      14.631  -6.466  30.091  0.00  0.00    +0.129 C 
ATOM     13  C   UNL     1      16.978  -5.684  29.510  0.00  0.00    +0.149 C 
ATOM     14  C   UNL     1      17.392  -7.118  29.138  0.00  0.00    +0.074 C 
ATOM     15  C   UNL     1      16.233  -8.070  29.052  0.00  0.00    +0.015 C 
ATOM     16  C   UNL     1      14.989  -7.788  29.468  0.00  0.00    +0.006 C 
ENDROOT
BRANCH  12   7
ATOM      5  O   UNL     1      11.891  -7.267  29.853  0.00  0.00    -0.252 OA
ATOM      7  N   UNL     1      13.703  -6.696  31.171  0.00  0.00    -0.290 N 
ATOM      9  N   UNL     1      11.718  -7.234  32.193  0.00  0.00    -0.268 N 
ATOM     18  C   UNL     1      12.374  -7.087  30.968  0.00  0.00    +0.304 C 
ATOM     27  H   UNL     1      14.009  -6.515  32.122  0.00  0.00    +0.151 HD
ATOM     31  H   UNL     1      12.263  -7.046  33.031  0.00  0.00    +0.156 HD
BRANCH   9  20
ATOM      1 BR   UNL     1      11.240 -10.352  32.105  0.00  0.00    -0.048 Br
ATOM     20  C   UNL     1      10.374  -7.615  32.419  0.00  0.00    +0.049 A 
ATOM     22  C   UNL     1       9.999  -8.949  32.413  0.00  0.00    +0.039 A 
ATOM     23  C   UNL     1       9.447  -6.608  32.647  0.00  0.00    +0.024 A 
ATOM     24  C   UNL     1       8.664  -9.287  32.639  0.00  0.00    +0.017 A 
ATOM     25  C   UNL     1       8.112  -6.945  32.872  0.00  0.00    +0.002 A 
ATOM     26  C   UNL     1       7.721  -8.284  32.869  0.00  0.00    +0.001 A 
ENDBRANCH   9  20
ENDBRANCH  12   7
BRANCH  15  17
ATOM      4  O   UNL     1      17.150 -10.233  29.031  0.00  0.00    -0.271 OA
ATOM      8  N   UNL     1      15.842  -9.544  27.230  0.00  0.00    -0.303 N 
ATOM     17  C   UNL     1      16.464  -9.389  28.457  0.00  0.00    +0.240 C 
ATOM     30  H   UNL     1      15.335  -8.778  26.801  0.00  0.00    +0.150 HD
BRANCH   8  19
ATOM     19  C   UNL     1      15.927 -10.757  26.448  0.00  0.00    +0.200 C 
BRANCH  19  21
ATOM      6  O   UNL     1      15.896 -10.729  24.027  0.00  0.00    -0.274 OA
ATOM     10  N   UNL     1      14.030 -10.024  25.171  0.00  0.00    -0.328 N 
ATOM     21  C   UNL     1      15.309 -10.531  25.087  0.00  0.00    +0.228 C 
ATOM     32  H   UNL     1      13.570  -9.847  26.058  0.00  0.00    +0.145 HD
ATOM     33  H   UNL     1      13.500  -9.811  24.332  0.00  0.00    +0.145 HD
ENDBRANCH  19  21
ENDBRANCH   8  19
ENDBRANCH  15  17
BRANCH  11   2
ATOM      2  O   UNL     1      16.358  -6.212  31.777  0.00  0.00    -0.387 OA
ATOM     28  H   UNL     1      15.961  -5.711  32.510  0.00  0.00    +0.210 HD
ENDBRANCH  11   2
BRANCH  13   3
ATOM      3  O   UNL     1      16.573  -4.973  28.342  0.00  0.00    -0.389 OA
ATOM     29  H   UNL     1      15.866  -4.359  28.604  0.00  0.00    +0.210 HD
ENDBRANCH  13   3
TORSDOF 7
ENDMDL
MODEL 2
REMARK VINA RESULT:      -0.1      2.425      3.196
REMARK  Name = 11865718
REMARK  7 active torsions:
REMARK  status: ('A' for Active; 'I' for Inactive)
REMARK    1  A    between atoms: O_2  and  C_11
REMARK    2  A    between atoms: O_3  and  C_13
REMARK    3  A    between atoms: N_7  and  C_12
REMARK    4  A    between atoms: N_8  and  C_19
REMARK    5  A    between atoms: N_9  and  C_20
REMARK    6  A    between atoms: C_15  and  C_17
REMARK    7  A    between atoms: C_19  and  C_21
REMARK                            x       y       z     vdW  Elec       q    Type
REMARK                         _______ _______ _______ _____ _____    ______ ____
ROOT
ATOM     11  C   UNL     1      15.400  -7.432  31.712  0.00  0.00    +0.167 C 
ATOM     12  C   UNL     1      14.590  -6.246  31.154  0.00  0.00    +0.129 C 
ATOM     13  C   UNL     1      16.906  -7.144  31.692  0.00  0.00    +0.149 C 
ATOM     14  C   UNL     1      17.405  -6.772  30.285  0.00  0.00    +0.074 C 
ATOM     15  C   UNL     1      16.443  -5.910  29.519  0.00  0.00    +0.015 C 
ATOM     16  C   UNL     1      15.182  -5.658  29.901  0.00  0.00    +0.006 C 
ENDROOT
BRANCH  12   7
ATOM      5  O   UNL     1      13.021  -8.149  32.611  0.00  0.00    -0.252 OA
ATOM      7  N   UNL     1      13.220  -6.612  30.895  0.00  0.00    -0.290 N 
ATOM      9  N   UNL     1      11.218  -7.704  31.175  0.00  0.00    -0.268 N 
ATOM     18  C   UNL     1      12.521  -7.556  31.658  0.00  0.00    +0.304 C 
ATOM     27  H   UNL     1      12.752  -6.207  30.089  0.00  0.00    +0.151 HD
ATOM     31  H   UNL     1      10.959  -7.136  30.373  0.00  0.00    +0.156 HD
BRANCH   9  20
ATOM      1 BR   UNL     1       8.970  -6.202  32.802  0.00  0.00    -0.048 Br
ATOM     20  C   UNL     1      10.201  -8.555  31.668  0.00  0.00    +0.049 A 
ATOM     22  C   UNL     1       9.140  -8.050  32.403  0.00  0.00    +0.039 A 
ATOM     23  C   UNL     1      10.302  -9.911  31.390  0.00  0.00    +0.024 A 
ATOM     24  C   UNL     1       8.155  -8.919  32.872  0.00  0.00    +0.017 A 
ATOM     25  C   UNL     1       9.318 -10.780  31.859  0.00  0.00    +0.002 A 
ATOM     26  C   UNL     1       8.245 -10.285  32.600  0.00  0.00    +0.001 A 
ENDBRANCH   9  20
ENDBRANCH  12   7
BRANCH  15  17
ATOM      4  O   UNL     1      17.206  -4.086  28.249  0.00  0.00    -0.271 OA
ATOM      8  N   UNL     1      16.975  -6.162  27.217  0.00  0.00    -0.303 N 
ATOM     17  C   UNL     1      16.913  -5.280  28.282  0.00  0.00    +0.240 C 
ATOM     30  H   UNL     1      16.666  -7.122  27.316  0.00  0.00    +0.150 HD
BRANCH   8  19
ATOM     19  C   UNL     1      17.405  -5.774  25.893  0.00  0.00    +0.200 C 
BRANCH  19  21
ATOM      6  O   UNL     1      16.997  -6.622  23.662  0.00  0.00    -0.274 OA
ATOM     10  N   UNL     1      15.749  -7.442  25.409  0.00  0.00    -0.328 N 
ATOM     21  C   UNL     1      16.732  -6.649  24.861  0.00  0.00    +0.228 C 
ATOM     32  H   UNL     1      15.529  -7.435  26.400  0.00  0.00    +0.145 HD
ATOM     33  H   UNL     1      15.203  -8.071  24.828  0.00  0.00    +0.145 HD
ENDBRANCH  19  21
ENDBRANCH   8  19
ENDBRANCH  15  17
BRANCH  11   2
ATOM      2  O   UNL     1      15.145  -8.598  30.926  0.00  0.00    -0.387 OA
ATOM     28  H   UNL     1      14.452  -8.370  30.282  0.00  0.00    +0.210 HD
ENDBRANCH  11   2
BRANCH  13   3
ATOM      3  O   UNL     1      17.219  -6.101  32.613  0.00  0.00    -0.389 OA
ATOM     29  H   UNL     1      16.776  -5.293  32.303  0.00  0.00    +0.210 HD
ENDBRANCH  13   3
TORSDOF 7
ENDMDL
MODEL 3
REMARK VINA RESULT:       0.5     16.365     19.551
REMARK  Name = 11865718
REMARK  7 active torsions:
REMARK  status: ('A' for Active; 'I' for Inactive)
REMARK    1  A    between atoms: O_2  and  C_11
REMARK    2  A    between atoms: O_3  and  C_13
REMARK    3  A    between atoms: N_7  and  C_12
REMARK    4  A    between atoms: N_8  and  C_19
REMARK    5  A    between atoms: N_9  and  C_20
REMARK    6  A    between atoms: C_15  and  C_17
REMARK    7  A    between atoms: C_19  and  C_21
REMARK                            x       y       z     vdW  Elec       q    Type
REMARK                         _______ _______ _______ _____ _____    ______ ____
ROOT
ATOM     11  C   UNL     1      -2.142   4.583  25.303  0.00  0.00    +0.167 C 
ATOM     12  C   UNL     1      -1.496   3.189  25.423  0.00  0.00    +0.129 C 
ATOM     13  C   UNL     1      -3.538   4.612  25.935  0.00  0.00    +0.149 C 
ATOM     14  C   UNL     1      -4.467   3.541  25.337  0.00  0.00    +0.074 C 
ATOM     15  C   UNL     1      -3.773   2.239  25.056  0.00  0.00    +0.015 C 
ATOM     16  C   UNL     1      -2.444   2.065  25.099  0.00  0.00    +0.006 C 
ENDROOT
BRANCH  12   7
ATOM      5  O   UNL     1       0.212   0.901  25.184  0.00  0.00    -0.252 OA
ATOM      7  N   UNL     1      -0.328   3.069  24.586  0.00  0.00    -0.290 N 
ATOM      9  N   UNL     1       1.517   2.086  23.635  0.00  0.00    -0.268 N 
ATOM     18  C   UNL     1       0.456   1.910  24.527  0.00  0.00    +0.304 C 
ATOM     27  H   UNL     1      -0.026   3.879  24.053  0.00  0.00    +0.151 HD
ATOM     31  H   UNL     1       1.579   2.987  23.168  0.00  0.00    +0.156 HD
BRANCH   9  20
ATOM      1 BR   UNL     1       0.425  -0.588  22.364  0.00  0.00    -0.048 Br
ATOM     20  C   UNL     1       2.529   1.157  23.294  0.00  0.00    +0.049 A 
ATOM     22  C   UNL     1       2.214  -0.066  22.726  0.00  0.00    +0.039 A 
ATOM     23  C   UNL     1       3.845   1.514  23.549  0.00  0.00    +0.024 A 
ATOM     24  C   UNL     1       3.238  -0.957  22.403  0.00  0.00    +0.017 A 
ATOM     25  C   UNL     1       4.870   0.624  23.227  0.00  0.00    +0.002 A 
ATOM     26  C   UNL     1       4.567  -0.611  22.654  0.00  0.00    +0.001 A 
ENDBRANCH   9  20
ENDBRANCH  12   7
BRANCH  15  17
ATOM      4  O   UNL     1      -5.824   1.118  24.816  0.00  0.00    -0.271 OA
ATOM      8  N   UNL     1      -3.849  -0.027  24.347  0.00  0.00    -0.303 N 
ATOM     17  C   UNL     1      -4.598   1.071  24.733  0.00  0.00    +0.240 C 
ATOM     30  H   UNL     1      -2.836   0.003  24.353  0.00  0.00    +0.150 HD
BRANCH   8  19
ATOM     19  C   UNL     1      -4.438  -1.296  23.982  0.00  0.00    +0.200 C 
BRANCH  19  21
ATOM      6  O   UNL     1      -3.798  -3.604  24.336  0.00  0.00    -0.274 OA
ATOM     10  N   UNL     1      -2.230  -1.954  24.656  0.00  0.00    -0.328 N 
ATOM     21  C   UNL     1      -3.483  -2.417  24.318  0.00  0.00    +0.228 C 
ATOM     32  H   UNL     1      -1.995  -0.966  24.656  0.00  0.00    +0.145 HD
ATOM     33  H   UNL     1      -1.490  -2.597  24.919  0.00  0.00    +0.145 HD
ENDBRANCH  19  21
ENDBRANCH   8  19
ENDBRANCH  15  17
BRANCH  11   2
ATOM      2  O   UNL     1      -2.253   4.941  23.925  0.00  0.00    -0.387 OA
ATOM     28  H   UNL     1      -2.384   4.120  23.419  0.00  0.00    +0.210 HD
ENDBRANCH  11   2
BRANCH  13   3
ATOM      3  O   UNL     1      -3.442   4.441  27.348  0.00  0.00    -0.389 OA
ATOM     29  H   UNL     1      -2.585   4.806  27.629  0.00  0.00    +0.210 HD
ENDBRANCH  13   3
TORSDOF 7
ENDMDL
MODEL 4
REMARK VINA RESULT:       1.2      1.738      2.168
REMARK  Name = 11865718
REMARK  7 active torsions:
REMARK  status: ('A' for Active; 'I' for Inactive)
REMARK    1  A    between atoms: O_2  and  C_11
REMARK    2  A    between atoms: O_3  and  C_13
REMARK    3  A    between atoms: N_7  and  C_12
REMARK    4  A    between atoms: N_8  and  C_19
REMARK    5  A    between atoms: N_9  and  C_20
REMARK    6  A    between atoms: C_15  and  C_17
REMARK    7  A    between atoms: C_19  and  C_21
REMARK                            x       y       z     vdW  Elec       q    Type
REMARK                         _______ _______ _______ _____ _____    ______ ____
ROOT
ATOM     11  C   UNL     1      14.584  -6.701  31.761  0.00  0.00    +0.167 C 
ATOM     12  C   UNL     1      13.703  -7.567  30.840  0.00  0.00    +0.129 C 
ATOM     13  C   UNL     1      15.813  -6.163  31.018  0.00  0.00    +0.149 C 
ATOM     14  C   UNL     1      16.648  -7.291  30.387  0.00  0.00    +0.074 C 
ATOM     15  C   UNL     1      15.814  -8.394  29.802  0.00  0.00    +0.015 C 
ATOM     16  C   UNL     1      14.492  -8.525  29.989  0.00  0.00    +0.006 C 
ENDROOT
BRANCH  12   7
ATOM      5  O   UNL     1      10.864  -7.522  30.454  0.00  0.00    -0.252 OA
ATOM      7  N   UNL     1      12.719  -8.310  31.589  0.00  0.00    -0.290 N 
ATOM      9  N   UNL     1      10.640  -9.058  32.215  0.00  0.00    -0.268 N 
ATOM     18  C   UNL     1      11.344  -8.231  31.336  0.00  0.00    +0.304 C 
ATOM     27  H   UNL     1      13.030  -8.877  32.372  0.00  0.00    +0.151 HD
ATOM     31  H   UNL     1      11.190  -9.583  32.891  0.00  0.00    +0.156 HD
BRANCH   9  20
ATOM      1 BR   UNL     1       9.000  -6.443  32.873  0.00  0.00    -0.048 Br
ATOM     20  C   UNL     1       9.241  -9.260  32.286  0.00  0.00    +0.049 A 
ATOM     22  C   UNL     1       8.381  -8.211  32.566  0.00  0.00    +0.039 A 
ATOM     23  C   UNL     1       8.762 -10.543  32.064  0.00  0.00    +0.024 A 
ATOM     24  C   UNL     1       7.007  -8.448  32.627  0.00  0.00    +0.017 A 
ATOM     25  C   UNL     1       7.389 -10.781  32.126  0.00  0.00    +0.002 A 
ATOM     26  C   UNL     1       6.512  -9.734  32.407  0.00  0.00    +0.001 A 
ENDBRANCH   9  20
ENDBRANCH  12   7
BRANCH  15  17
ATOM      4  O   UNL     1      16.860 -10.461  29.409  0.00  0.00    -0.271 OA
ATOM      8  N   UNL     1      16.609  -8.967  27.637  0.00  0.00    -0.303 N 
ATOM     17  C   UNL     1      16.478  -9.385  28.951  0.00  0.00    +0.240 C 
ATOM     30  H   UNL     1      16.311  -8.042  27.352  0.00  0.00    +0.150 HD
BRANCH   8  19
ATOM     19  C   UNL     1      17.234  -9.771  26.611  0.00  0.00    +0.200 C 
BRANCH  19  21
ATOM      6  O   UNL     1      15.922 -10.304  24.647  0.00  0.00    -0.274 OA
ATOM     10  N   UNL     1      16.873  -8.218  24.816  0.00  0.00    -0.328 N 
ATOM     21  C   UNL     1      16.587  -9.485  25.276  0.00  0.00    +0.228 C 
ATOM     32  H   UNL     1      17.443  -7.563  25.341  0.00  0.00    +0.145 HD
ATOM     33  H   UNL     1      16.515  -7.895  23.923  0.00  0.00    +0.145 HD
ENDBRANCH  19  21
ENDBRANCH   8  19
ENDBRANCH  15  17
BRANCH  11   2
ATOM      2  O   UNL     1      15.024  -7.481  32.874  0.00  0.00    -0.387 OA
ATOM     28  H   UNL     1      14.873  -8.417  32.653  0.00  0.00    +0.210 HD
ENDBRANCH  11   2
BRANCH  13   3
ATOM      3  O   UNL     1      15.413  -5.231  30.016  0.00  0.00    -0.389 OA
ATOM     29  H   UNL     1      15.757  -5.551  29.164  0.00  0.00    +0.210 HD
ENDBRANCH  13   3
TORSDOF 7
ENDMDL
MODEL 5
REMARK VINA RESULT:       1.4     15.724     19.235
REMARK  Name = 11865718
REMARK  7 active torsions:
REMARK  status: ('A' for Active; 'I' for Inactive)
REMARK    1  A    between atoms: O_2  and  C_11
REMARK    2  A    between atoms: O_3  and  C_13
REMARK    3  A    between atoms: N_7  and  C_12
REMARK    4  A    between atoms: N_8  and  C_19
REMARK    5  A    between atoms: N_9  and  C_20
REMARK    6  A    between atoms: C_15  and  C_17
REMARK    7  A    between atoms: C_19  and  C_21
REMARK                            x       y       z     vdW  Elec       q    Type
REMARK                         _______ _______ _______ _____ _____    ______ ____
ROOT
ATOM     11  C   UNL     1      -2.698  -2.331  24.643  0.00  0.00    +0.167 C 
ATOM     12  C   UNL     1      -1.829  -1.295  23.904  0.00  0.00    +0.129 C 
ATOM     13  C   UNL     1      -4.192  -2.067  24.426  0.00  0.00    +0.149 C 
ATOM     14  C   UNL     1      -4.595  -0.642  24.842  0.00  0.00    +0.074 C 
ATOM     15  C   UNL     1      -3.568   0.395  24.486  0.00  0.00    +0.015 C 
ATOM     16  C   UNL     1      -2.328   0.117  24.057  0.00  0.00    +0.006 C 
ENDROOT
BRANCH  12   7
ATOM      5  O   UNL     1       0.448  -0.283  22.490  0.00  0.00    -0.252 OA
ATOM      7  N   UNL     1      -0.453  -1.351  24.333  0.00  0.00    -0.290 N 
ATOM      9  N   UNL     1       1.819  -1.029  24.243  0.00  0.00    -0.268 N 
ATOM     18  C   UNL     1       0.606  -0.830  23.579  0.00  0.00    +0.304 C 
ATOM     27  H   UNL     1      -0.232  -1.837  25.197  0.00  0.00    +0.151 HD
ATOM     31  H   UNL     1       1.778  -1.502  25.142  0.00  0.00    +0.156 HD
BRANCH   9  20
ATOM      1 BR   UNL     1       1.995   1.926  23.149  0.00  0.00    -0.048 Br
ATOM     20  C   UNL     1       3.114  -0.651  23.817  0.00  0.00    +0.049 A 
ATOM     22  C   UNL     1       3.359   0.616  23.310  0.00  0.00    +0.039 A 
ATOM     23  C   UNL     1       4.130  -1.590  23.924  0.00  0.00    +0.024 A 
ATOM     24  C   UNL     1       4.649   0.954  22.901  0.00  0.00    +0.017 A 
ATOM     25  C   UNL     1       5.420  -1.253  23.514  0.00  0.00    +0.002 A 
ATOM     26  C   UNL     1       5.679   0.018  23.002  0.00  0.00    +0.001 A 
ENDBRANCH   9  20
ENDBRANCH  12   7
BRANCH  15  17
ATOM      4  O   UNL     1      -5.111   2.166  24.431  0.00  0.00    -0.271 OA
ATOM      8  N   UNL     1      -2.872   2.633  24.880  0.00  0.00    -0.303 N 
ATOM     17  C   UNL     1      -3.946   1.807  24.592  0.00  0.00    +0.240 C 
ATOM     30  H   UNL     1      -1.932   2.261  24.948  0.00  0.00    +0.150 HD
BRANCH   8  19
ATOM     19  C   UNL     1      -2.995   4.065  25.030  0.00  0.00    +0.200 C 
BRANCH  19  21
ATOM      6  O   UNL     1      -1.394   5.880  25.081  0.00  0.00    -0.274 OA
ATOM     10  N   UNL     1      -0.652   3.734  25.436  0.00  0.00    -0.328 N 
ATOM     21  C   UNL     1      -1.625   4.680  25.196  0.00  0.00    +0.228 C 
ATOM     32  H   UNL     1      -0.860   2.742  25.506  0.00  0.00    +0.145 HD
ATOM     33  H   UNL     1       0.319   4.003  25.554  0.00  0.00    +0.145 HD
ENDBRANCH  19  21
ENDBRANCH   8  19
ENDBRANCH  15  17
BRANCH  11   2
ATOM      2  O   UNL     1      -2.419  -2.278  26.043  0.00  0.00    -0.387 OA
ATOM     28  H   UNL     1      -2.164  -3.174  26.324  0.00  0.00    +0.210 HD
ENDBRANCH  11   2
BRANCH  13   3
ATOM      3  O   UNL     1      -4.540  -2.296  23.062  0.00  0.00    -0.389 OA
ATOM     29  H   UNL     1      -3.750  -2.644  22.613  0.00  0.00    +0.210 HD
ENDBRANCH  13   3
TORSDOF 7
ENDMDL
MODEL 6
REMARK VINA RESULT:       2.0     16.099     19.646
REMARK  Name = 11865718
REMARK  7 active torsions:
REMARK  status: ('A' for Active; 'I' for Inactive)
REMARK    1  A    between atoms: O_2  and  C_11
REMARK    2  A    between atoms: O_3  and  C_13
REMARK    3  A    between atoms: N_7  and  C_12
REMARK    4  A    between atoms: N_8  and  C_19
REMARK    5  A    between atoms: N_9  and  C_20
REMARK    6  A    between atoms: C_15  and  C_17
REMARK    7  A    between atoms: C_19  and  C_21
REMARK                            x       y       z     vdW  Elec       q    Type
REMARK                         _______ _______ _______ _____ _____    ______ ____
ROOT
ATOM     11  C   UNL     1      -2.558  -2.250  24.756  0.00  0.00    +0.167 C 
ATOM     12  C   UNL     1      -1.644  -1.401  23.851  0.00  0.00    +0.129 C 
ATOM     13  C   UNL     1      -4.039  -1.954  24.494  0.00  0.00    +0.149 C 
ATOM     14  C   UNL     1      -4.368  -0.460  24.657  0.00  0.00    +0.074 C 
ATOM     15  C   UNL     1      -3.294   0.448  24.129  0.00  0.00    +0.015 C 
ATOM     16  C   UNL     1      -2.072   0.039  23.757  0.00  0.00    +0.006 C 
ENDROOT
BRANCH  12   7
ATOM      5  O   UNL     1       0.630  -0.350  22.462  0.00  0.00    -0.252 OA
ATOM      7  N   UNL     1      -0.269  -1.450  24.286  0.00  0.00    -0.290 N 
ATOM      9  N   UNL     1       2.000  -1.107  24.211  0.00  0.00    -0.268 N 
ATOM     18  C   UNL     1       0.788  -0.910  23.544  0.00  0.00    +0.304 C 
ATOM     27  H   UNL     1      -0.048  -1.946  25.144  0.00  0.00    +0.151 HD
ATOM     31  H   UNL     1       1.959  -1.592  25.104  0.00  0.00    +0.156 HD
BRANCH   9  20
ATOM      1 BR   UNL     1       2.151   1.859  23.144  0.00  0.00    -0.048 Br
ATOM     20  C   UNL     1       3.294  -0.711  23.797  0.00  0.00    +0.049 A 
ATOM     22  C   UNL     1       3.528   0.563  23.303  0.00  0.00    +0.039 A 
ATOM     23  C   UNL     1       4.319  -1.640  23.903  0.00  0.00    +0.024 A 
ATOM     24  C   UNL     1       4.817   0.918  22.904  0.00  0.00    +0.017 A 
ATOM     25  C   UNL     1       5.607  -1.285  23.504  0.00  0.00    +0.002 A 
ATOM     26  C   UNL     1       5.857  -0.007  23.005  0.00  0.00    +0.001 A 
ENDBRANCH   9  20
ENDBRANCH  12   7
BRANCH  15  17
ATOM      4  O   UNL     1      -3.590   2.421  22.887  0.00  0.00    -0.271 OA
ATOM      8  N   UNL     1      -3.887   2.486  25.198  0.00  0.00    -0.303 N 
ATOM     17  C   UNL     1      -3.601   1.874  23.989  0.00  0.00    +0.240 C 
ATOM     30  H   UNL     1      -3.824   1.973  26.070  0.00  0.00    +0.150 HD
BRANCH   8  19
ATOM     19  C   UNL     1      -4.216   3.888  25.316  0.00  0.00    +0.200 C 
BRANCH  19  21
ATOM      6  O   UNL     1      -6.280   5.101  25.676  0.00  0.00    -0.274 OA
ATOM     10  N   UNL     1      -6.203   2.862  26.188  0.00  0.00    -0.328 N 
ATOM     21  C   UNL     1      -5.665   4.040  25.718  0.00  0.00    +0.228 C 
ATOM     32  H   UNL     1      -5.672   1.998  26.235  0.00  0.00    +0.145 HD
ATOM     33  H   UNL     1      -7.166   2.820  26.507  0.00  0.00    +0.145 HD
ENDBRANCH  19  21
ENDBRANCH   8  19
ENDBRANCH  15  17
BRANCH  11   2
ATOM      2  O   UNL     1      -2.268  -1.970  26.127  0.00  0.00    -0.387 OA
ATOM     28  H   UNL     1      -1.416  -2.392  26.337  0.00  0.00    +0.210 HD
ENDBRANCH  11   2
BRANCH  13   3
ATOM      3  O   UNL     1      -4.406  -2.397  23.189  0.00  0.00    -0.389 OA
ATOM     29  H   UNL     1      -3.625  -2.300  22.617  0.00  0.00    +0.210 HD
ENDBRANCH  13   3
TORSDOF 7
ENDMDL
MODEL 7
REMARK VINA RESULT:       2.5     16.386     19.286
REMARK  Name = 11865718
REMARK  7 active torsions:
REMARK  status: ('A' for Active; 'I' for Inactive)
REMARK    1  A    between atoms: O_2  and  C_11
REMARK    2  A    between atoms: O_3  and  C_13
REMARK    3  A    between atoms: N_7  and  C_12
REMARK    4  A    between atoms: N_8  and  C_19
REMARK    5  A    between atoms: N_9  and  C_20
REMARK    6  A    between atoms: C_15  and  C_17
REMARK    7  A    between atoms: C_19  and  C_21
REMARK                            x       y       z     vdW  Elec       q    Type
REMARK                         _______ _______ _______ _____ _____    ______ ____
ROOT
ATOM     11  C   UNL     1      -4.210  -1.634  24.327  0.00  0.00    +0.167 C 
ATOM     12  C   UNL     1      -3.537  -0.905  25.506  0.00  0.00    +0.129 C 
ATOM     13  C   UNL     1      -3.582  -3.011  24.087  0.00  0.00    +0.149 C 
ATOM     14  C   UNL     1      -2.063  -2.923  23.860  0.00  0.00    +0.074 C 
ATOM     15  C   UNL     1      -1.387  -1.909  24.738  0.00  0.00    +0.015 C 
ATOM     16  C   UNL     1      -2.035  -1.004  25.487  0.00  0.00    +0.006 C 
ENDROOT
BRANCH  12   7
ATOM      5  O   UNL     1      -2.084   1.298  24.392  0.00  0.00    -0.252 OA
ATOM      7  N   UNL     1      -3.911   0.487  25.554  0.00  0.00    -0.290 N 
ATOM      9  N   UNL     1      -3.750   2.749  25.186  0.00  0.00    -0.268 N 
ATOM     18  C   UNL     1      -3.141   1.508  24.982  0.00  0.00    +0.304 C 
ATOM     27  H   UNL     1      -4.744   0.750  26.073  0.00  0.00    +0.151 HD
ATOM     31  H   UNL     1      -4.628   2.750  25.697  0.00  0.00    +0.156 HD
BRANCH   9  20
ATOM      1 BR   UNL     1      -0.886   3.505  26.276  0.00  0.00    -0.048 Br
ATOM     20  C   UNL     1      -3.293   4.020  24.765  0.00  0.00    +0.049 A 
ATOM     22  C   UNL     1      -2.053   4.500  25.158  0.00  0.00    +0.039 A 
ATOM     23  C   UNL     1      -4.127   4.768  23.946  0.00  0.00    +0.024 A 
ATOM     24  C   UNL     1      -1.636   5.758  24.723  0.00  0.00    +0.017 A 
ATOM     25  C   UNL     1      -3.710   6.026  23.512  0.00  0.00    +0.002 A 
ATOM     26  C   UNL     1      -2.465   6.521  23.900  0.00  0.00    +0.001 A 
ENDBRANCH   9  20
ENDBRANCH  12   7
BRANCH  15  17
ATOM      4  O   UNL     1       0.675  -2.662  25.575  0.00  0.00    -0.271 OA
ATOM      8  N   UNL     1       0.660  -1.016  23.924  0.00  0.00    -0.303 N 
ATOM     17  C   UNL     1       0.077  -1.915  24.802  0.00  0.00    +0.240 C 
ATOM     30  H   UNL     1       0.091  -0.400  23.356  0.00  0.00    +0.150 HD
BRANCH   8  19
ATOM     19  C   UNL     1       2.089  -0.839  23.808  0.00  0.00    +0.200 C 
BRANCH  19  21
ATOM      6  O   UNL     1       2.067  -0.151  21.487  0.00  0.00    -0.274 OA
ATOM     10  N   UNL     1       3.136   1.176  23.029  0.00  0.00    -0.328 N 
ATOM     21  C   UNL     1       2.397   0.078  22.647  0.00  0.00    +0.228 C 
ATOM     32  H   UNL     1       3.418   1.337  23.991  0.00  0.00    +0.145 HD
ATOM     33  H   UNL     1       3.427   1.870  22.349  0.00  0.00    +0.145 HD
ENDBRANCH  19  21
ENDBRANCH   8  19
ENDBRANCH  15  17
BRANCH  11   2
ATOM      2  O   UNL     1      -4.074  -0.852  23.140  0.00  0.00    -0.387 OA
ATOM     28  H   UNL     1      -3.133  -0.622  23.048  0.00  0.00    +0.210 HD
ENDBRANCH  11   2
BRANCH  13   3
ATOM      3  O   UNL     1      -3.863  -3.879  25.183  0.00  0.00    -0.389 OA
ATOM     29  H   UNL     1      -4.264  -4.689  24.820  0.00  0.00    +0.210 HD
ENDBRANCH  13   3
TORSDOF 7
ENDMDL
