MODEL 1
REMARK VINA RESULT:      -4.5      0.000      0.000
REMARK  Name = 40776885
REMARK  9 active torsions:
REMARK  status: ('A' for Active; 'I' for Inactive)
REMARK    1  A    between atoms: O_2  and  C_15
REMARK    2  A    between atoms: O_2  and  C_20
REMARK    3  A    between atoms: N_7  and  C_23
REMARK    4  A    between atoms: C_9  and  C_16
REMARK    5  A    between atoms: C_10  and  C_15
REMARK    6  A    between atoms: C_18  and  C_21
REMARK    7  A    between atoms: C_19  and  C_22
REMARK    8  A    between atoms: C_23  and  C_26
REMARK    9  A    between atoms: C_23  and  C_27
REMARK                            x       y       z     vdW  Elec       q    Type
REMARK                         _______ _______ _______ _____ _____    ______ ____
ROOT
ATOM      4  N   UNL     1      -8.882 -10.474  17.023  0.00  0.00    -0.296 NA
ATOM      8  C   UNL     1      -8.960  -8.295  15.598  0.00  0.00    +0.002 C 
ATOM      9  C   UNL     1      -9.532  -9.494  14.791  0.00  0.00    +0.055 C 
ATOM     10  C   UNL     1      -7.556  -9.801  17.050  0.00  0.00    +0.095 C 
ATOM     11  C   UNL     1      -7.521  -8.626  16.050  0.00  0.00    +0.026 C 
ATOM     12  C   UNL     1      -9.819  -8.167  16.874  0.00  0.00    +0.019 C 
ATOM     13  C   UNL     1      -9.267 -10.781  15.622  0.00  0.00    +0.094 C 
ATOM     14  C   UNL     1      -9.881  -9.532  17.581  0.00  0.00    +0.085 C 
ENDROOT
BRANCH   9  16
ATOM      5  N   UNL     1     -10.079  -9.967  12.453  0.00  0.00    -0.237 NA
ATOM      6  N   UNL     1      -8.411  -9.940  10.715  0.00  0.00    -0.232 NA
ATOM     16  C   UNL     1      -9.109  -9.648  13.336  0.00  0.00    +0.050 A 
ATOM     17  C   UNL     1      -7.788  -9.462  12.989  0.00  0.00    +0.052 A 
ATOM     18  C   UNL     1      -7.493  -9.622  11.650  0.00  0.00    +0.075 A 
ATOM     19  C   UNL     1      -9.666 -10.095  11.179  0.00  0.00    +0.127 A 
ATOM     22  C   UNL     1     -10.708 -10.449  10.173  0.00  0.00    +0.088 C 
BRANCH  18  21
ATOM      1  F   UNL     1      -2.294  -8.980   9.749  0.00  0.00    -0.205 F 
ATOM     21  C   UNL     1      -6.146  -9.456  11.158  0.00  0.00    +0.001 A 
ATOM     24  C   UNL     1      -5.075 -10.022  11.851  0.00  0.00    +0.013 A 
ATOM     25  C   UNL     1      -5.916  -8.729   9.990  0.00  0.00    +0.013 A 
ATOM     28  C   UNL     1      -3.774  -9.861  11.375  0.00  0.00    +0.039 A 
ATOM     29  C   UNL     1      -4.615  -8.569   9.514  0.00  0.00    +0.039 A 
ATOM     30  C   UNL     1      -3.544  -9.134  10.206  0.00  0.00    +0.123 A 
ENDBRANCH  18  21
ENDBRANCH   9  16
BRANCH  10  15
ATOM     15  C   UNL     1      -6.402 -10.778  16.822  0.00  0.00    +0.252 C 
BRANCH  15   2
ATOM      2  O   UNL     1      -5.495 -10.193  15.907  0.00  0.00    -0.449 OA
BRANCH   2  20
ATOM      3  O   UNL     1      -3.674 -10.768  17.181  0.00  0.00    -0.226 OA
ATOM      7  N   UNL     1      -3.481 -10.387  14.901  0.00  0.00    -0.279 N 
ATOM     20  C   UNL     1      -4.164 -10.477  16.096  0.00  0.00    +0.401 C 
ATOM     31  H   UNL     1      -4.018 -10.181  14.064  0.00  0.00    +0.152 HD
BRANCH   7  23
ATOM     23  C   UNL     1      -2.063 -10.628  14.768  0.00  0.00    +0.070 C 
ATOM     26  C   UNL     1      -1.627 -10.466  13.317  0.00  0.00    +0.027 C 
ATOM     27  C   UNL     1      -1.280  -9.700  15.687  0.00  0.00    +0.027 C 
ENDBRANCH   7  23
ENDBRANCH   2  20
ENDBRANCH  15   2
ENDBRANCH  10  15
TORSDOF 6
ENDMDL
MODEL 2
REMARK VINA RESULT:      -1.0     14.625     17.186
REMARK  Name = 40776885
REMARK  9 active torsions:
REMARK  status: ('A' for Active; 'I' for Inactive)
REMARK    1  A    between atoms: O_2  and  C_15
REMARK    2  A    between atoms: O_2  and  C_20
REMARK    3  A    between atoms: N_7  and  C_23
REMARK    4  A    between atoms: C_9  and  C_16
REMARK    5  A    between atoms: C_10  and  C_15
REMARK    6  A    between atoms: C_18  and  C_21
REMARK    7  A    between atoms: C_19  and  C_22
REMARK    8  A    between atoms: C_23  and  C_26
REMARK    9  A    between atoms: C_23  and  C_27
REMARK                            x       y       z     vdW  Elec       q    Type
REMARK                         _______ _______ _______ _____ _____    ______ ____
ROOT
ATOM      4  N   UNL     1      -3.265   4.141  24.479  0.00  0.00    -0.296 NA
ATOM      8  C   UNL     1      -0.747   4.086  25.145  0.00  0.00    +0.002 C 
ATOM      9  C   UNL     1      -1.007   3.163  23.922  0.00  0.00    +0.055 C 
ATOM     10  C   UNL     1      -3.131   3.890  25.938  0.00  0.00    +0.095 C 
ATOM     11  C   UNL     1      -1.654   3.647  26.316  0.00  0.00    +0.026 C 
ATOM     12  C   UNL     1      -1.192   5.506  24.734  0.00  0.00    +0.019 C 
ATOM     13  C   UNL     1      -2.546   3.091  23.714  0.00  0.00    +0.094 C 
ATOM     14  C   UNL     1      -2.627   5.447  24.182  0.00  0.00    +0.085 C 
ENDROOT
BRANCH   9  16
ATOM      5  N   UNL     1      -1.171   0.730  24.124  0.00  0.00    -0.237 NA
ATOM      6  N   UNL     1       0.750  -0.708  23.903  0.00  0.00    -0.232 NA
ATOM     16  C   UNL     1      -0.358   1.786  23.910  0.00  0.00    +0.050 A 
ATOM     17  C   UNL     1       0.999   1.676  23.690  0.00  0.00    +0.052 A 
ATOM     18  C   UNL     1       1.504   0.391  23.697  0.00  0.00    +0.075 A 
ATOM     19  C   UNL     1      -0.560  -0.469  24.106  0.00  0.00    +0.127 A 
ATOM     22  C   UNL     1      -1.425  -1.661  24.340  0.00  0.00    +0.088 C 
BRANCH  18  21
ATOM      1  F   UNL     1       6.928  -0.573  22.859  0.00  0.00    -0.205 F 
ATOM     21  C   UNL     1       2.909   0.141  23.480  0.00  0.00    +0.001 A 
ATOM     24  C   UNL     1       3.466  -1.082  23.856  0.00  0.00    +0.013 A 
ATOM     25  C   UNL     1       3.709   1.123  22.895  0.00  0.00    +0.013 A 
ATOM     28  C   UNL     1       4.824  -1.323  23.646  0.00  0.00    +0.039 A 
ATOM     29  C   UNL     1       5.067   0.881  22.686  0.00  0.00    +0.039 A 
ATOM     30  C   UNL     1       5.624  -0.341  23.061  0.00  0.00    +0.123 A 
ENDBRANCH  18  21
ENDBRANCH   9  16
BRANCH  10  15
ATOM     15  C   UNL     1      -4.036   2.754  26.419  0.00  0.00    +0.252 C 
BRANCH  15   2
ATOM      2  O   UNL     1      -5.183   2.716  25.591  0.00  0.00    -0.449 OA
BRANCH   2  20
ATOM      3  O   UNL     1      -6.602   1.258  24.527  0.00  0.00    -0.226 OA
ATOM      7  N   UNL     1      -4.525   0.573  25.302  0.00  0.00    -0.279 N 
ATOM     20  C   UNL     1      -5.535   1.487  25.087  0.00  0.00    +0.401 C 
ATOM     31  H   UNL     1      -3.671   0.907  25.738  0.00  0.00    +0.152 HD
BRANCH   7  23
ATOM     23  C   UNL     1      -4.592  -0.808  24.887  0.00  0.00    +0.070 C 
ATOM     26  C   UNL     1      -4.192  -0.947  23.423  0.00  0.00    +0.027 C 
ATOM     27  C   UNL     1      -3.716  -1.674  25.783  0.00  0.00    +0.027 C 
ENDBRANCH   7  23
ENDBRANCH   2  20
ENDBRANCH  15   2
ENDBRANCH  10  15
TORSDOF 6
ENDMDL
MODEL 3
REMARK VINA RESULT:      -0.5     14.066     16.669
REMARK  Name = 40776885
REMARK  9 active torsions:
REMARK  status: ('A' for Active; 'I' for Inactive)
REMARK    1  A    between atoms: O_2  and  C_15
REMARK    2  A    between atoms: O_2  and  C_20
REMARK    3  A    between atoms: N_7  and  C_23
REMARK    4  A    between atoms: C_9  and  C_16
REMARK    5  A    between atoms: C_10  and  C_15
REMARK    6  A    between atoms: C_18  and  C_21
REMARK    7  A    between atoms: C_19  and  C_22
REMARK    8  A    between atoms: C_23  and  C_26
REMARK    9  A    between atoms: C_23  and  C_27
REMARK                            x       y       z     vdW  Elec       q    Type
REMARK                         _______ _______ _______ _____ _____    ______ ____
ROOT
ATOM      4  N   UNL     1      -3.670  -1.451  25.996  0.00  0.00    -0.296 NA
ATOM      8  C   UNL     1      -2.612  -1.853  23.649  0.00  0.00    +0.002 C 
ATOM      9  C   UNL     1      -1.530  -1.385  24.661  0.00  0.00    +0.055 C 
ATOM     10  C   UNL     1      -4.465  -0.750  24.953  0.00  0.00    +0.095 C 
ATOM     11  C   UNL     1      -3.742  -0.802  23.590  0.00  0.00    +0.026 C 
ATOM     12  C   UNL     1      -3.227  -3.148  24.222  0.00  0.00    +0.019 C 
ATOM     13  C   UNL     1      -2.264  -0.975  25.969  0.00  0.00    +0.094 C 
ATOM     14  C   UNL     1      -3.674  -2.898  25.673  0.00  0.00    +0.085 C 
ENDROOT
BRANCH   9  16
ATOM      5  N   UNL     1      -1.013   0.906  23.976  0.00  0.00    -0.237 NA
ATOM      6  N   UNL     1       1.220   1.596  23.387  0.00  0.00    -0.232 NA
ATOM     16  C   UNL     1      -0.528  -0.332  24.207  0.00  0.00    +0.050 A 
ATOM     17  C   UNL     1       0.798  -0.678  24.052  0.00  0.00    +0.052 A 
ATOM     18  C   UNL     1       1.636   0.337  23.636  0.00  0.00    +0.075 A 
ATOM     19  C   UNL     1      -0.097   1.807  23.575  0.00  0.00    +0.127 A 
ATOM     22  C   UNL     1      -0.594   3.188  23.308  0.00  0.00    +0.088 C 
BRANCH  18  21
ATOM      1  F   UNL     1       7.080  -0.561  22.861  0.00  0.00    -0.205 F 
ATOM     21  C   UNL     1       3.046   0.105  23.435  0.00  0.00    +0.001 A 
ATOM     24  C   UNL     1       3.839   1.090  22.847  0.00  0.00    +0.013 A 
ATOM     25  C   UNL     1       3.615  -1.106  23.829  0.00  0.00    +0.013 A 
ATOM     28  C   UNL     1       5.201   0.866  22.653  0.00  0.00    +0.039 A 
ATOM     29  C   UNL     1       4.978  -1.331  23.635  0.00  0.00    +0.039 A 
ATOM     30  C   UNL     1       5.771  -0.346  23.047  0.00  0.00    +0.123 A 
ENDBRANCH  18  21
ENDBRANCH   9  16
BRANCH  10  15
ATOM     15  C   UNL     1      -4.818   0.683  25.356  0.00  0.00    +0.252 C 
BRANCH  15   2
ATOM      2  O   UNL     1      -4.841   1.483  24.190  0.00  0.00    -0.449 OA
BRANCH   2  20
ATOM      3  O   UNL     1      -4.151   3.509  23.357  0.00  0.00    -0.226 OA
ATOM      7  N   UNL     1      -3.365   2.706  25.387  0.00  0.00    -0.279 N 
ATOM     20  C   UNL     1      -4.118   2.651  24.232  0.00  0.00    +0.401 C 
ATOM     31  H   UNL     1      -3.466   1.947  26.053  0.00  0.00    +0.152 HD
BRANCH   7  23
ATOM     23  C   UNL     1      -2.496   3.809  25.725  0.00  0.00    +0.070 C 
ATOM     26  C   UNL     1      -3.258   4.869  26.512  0.00  0.00    +0.027 C 
ATOM     27  C   UNL     1      -1.285   3.310  26.501  0.00  0.00    +0.027 C 
ENDBRANCH   7  23
ENDBRANCH   2  20
ENDBRANCH  15   2
ENDBRANCH  10  15
TORSDOF 6
ENDMDL
