MODEL 1
REMARK VINA RESULT:      -0.2      0.000      0.000
REMARK  Name = 40780076
REMARK  7 active torsions:
REMARK  status: ('A' for Active; 'I' for Inactive)
REMARK    1  A    between atoms: O_2  and  C_16
REMARK    2  A    between atoms: O_2  and  C_21
REMARK    3  A    between atoms: N_5  and  C_19
REMARK    4  A    between atoms: N_7  and  C_25
REMARK    5  A    between atoms: C_9  and  C_15
REMARK    6  A    between atoms: C_10  and  C_16
REMARK    7  A    between atoms: C_18  and  C_20
REMARK                            x       y       z     vdW  Elec       q    Type
REMARK                         _______ _______ _______ _____ _____    ______ ____
ROOT
ATOM      4  N   UNL     1      -2.962  -2.506  23.745  0.00  0.00    -0.296 NA
ATOM      8  C   UNL     1      -2.988  -1.375  26.090  0.00  0.00    +0.002 C 
ATOM      9  C   UNL     1      -3.855  -0.565  25.087  0.00  0.00    +0.055 C 
ATOM     10  C   UNL     1      -1.572  -2.351  24.249  0.00  0.00    +0.095 C 
ATOM     11  C   UNL     1      -1.552  -1.500  25.538  0.00  0.00    +0.026 C 
ATOM     12  C   UNL     1      -3.580  -2.799  26.143  0.00  0.00    +0.019 C 
ATOM     13  C   UNL     1      -3.629  -1.181  23.678  0.00  0.00    +0.094 C 
ATOM     14  C   UNL     1      -3.705  -3.348  24.712  0.00  0.00    +0.085 C 
ENDROOT
BRANCH   9  15
ATOM      5  N   UNL     1      -4.793   1.792  25.173  0.00  0.00    -0.270 N 
ATOM      6  N   UNL     1      -4.465   3.094  25.150  0.00  0.00    -0.171 NA
ATOM     15  C   UNL     1      -3.722   0.951  25.082  0.00  0.00    +0.044 A 
ATOM     17  C   UNL     1      -2.616   1.761  24.995  0.00  0.00    +0.053 A 
ATOM     18  C   UNL     1      -3.133   3.069  25.041  0.00  0.00    +0.100 A 
ATOM     19  C   UNL     1      -6.184   1.418  25.286  0.00  0.00    +0.172 C 
BRANCH  18  20
ATOM      1  S   UNL     1      -0.658   4.339  24.647  0.00  0.00    -0.095 S 
ATOM     20  C   UNL     1      -2.336   4.308  24.981  0.00  0.00    +0.039 A 
ATOM     22  C   UNL     1      -2.846   5.571  25.187  0.00  0.00    +0.018 A 
ATOM     23  C   UNL     1      -1.845   6.578  25.067  0.00  0.00    +0.008 A 
ATOM     24  C   UNL     1      -0.609   6.046  24.776  0.00  0.00    +0.046 A 
ENDBRANCH  18  20
ENDBRANCH   9  15
BRANCH  10  16
ATOM     16  C   UNL     1      -0.624  -1.796  23.185  0.00  0.00    +0.252 C 
BRANCH  16   2
ATOM      2  O   UNL     1      -0.620  -0.385  23.283  0.00  0.00    -0.449 OA
BRANCH   2  21
ATOM      3  O   UNL     1       0.669   1.293  24.149  0.00  0.00    -0.226 OA
ATOM      7  N   UNL     1       1.618  -0.596  23.144  0.00  0.00    -0.251 N 
ATOM     21  C   UNL     1       0.585   0.211  23.581  0.00  0.00    +0.405 C 
ATOM     31  H   UNL     1       1.347  -1.466  22.691  0.00  0.00    +0.158 HD
BRANCH   7  25
ATOM     25  C   UNL     1       3.008  -0.365  23.250  0.00  0.00    +0.036 A 
ATOM     26  C   UNL     1       3.835  -1.336  23.815  0.00  0.00    +0.023 A 
ATOM     27  C   UNL     1       3.553   0.833  22.790  0.00  0.00    +0.023 A 
ATOM     28  C   UNL     1       5.207  -1.108  23.920  0.00  0.00    +0.002 A 
ATOM     29  C   UNL     1       4.925   1.060  22.894  0.00  0.00    +0.002 A 
ATOM     30  C   UNL     1       5.752   0.090  23.459  0.00  0.00    +0.000 A 
ENDBRANCH   7  25
ENDBRANCH   2  21
ENDBRANCH  16   2
ENDBRANCH  10  16
TORSDOF 6
ENDMDL
MODEL 2
REMARK VINA RESULT:       2.0      2.370      6.000
REMARK  Name = 40780076
REMARK  7 active torsions:
REMARK  status: ('A' for Active; 'I' for Inactive)
REMARK    1  A    between atoms: O_2  and  C_16
REMARK    2  A    between atoms: O_2  and  C_21
REMARK    3  A    between atoms: N_5  and  C_19
REMARK    4  A    between atoms: N_7  and  C_25
REMARK    5  A    between atoms: C_9  and  C_15
REMARK    6  A    between atoms: C_10  and  C_16
REMARK    7  A    between atoms: C_18  and  C_20
REMARK                            x       y       z     vdW  Elec       q    Type
REMARK                         _______ _______ _______ _____ _____    ______ ____
ROOT
ATOM      4  N   UNL     1      -3.849  -0.915  25.822  0.00  0.00    -0.296 NA
ATOM      8  C   UNL     1      -2.469  -2.488  24.272  0.00  0.00    +0.002 C 
ATOM      9  C   UNL     1      -1.524  -1.560  25.084  0.00  0.00    +0.055 C 
ATOM     10  C   UNL     1      -4.388  -0.863  24.438  0.00  0.00    +0.095 C 
ATOM     11  C   UNL     1      -3.461  -1.624  23.464  0.00  0.00    +0.026 C 
ATOM     12  C   UNL     1      -3.297  -3.290  25.297  0.00  0.00    +0.019 C 
ATOM     13  C   UNL     1      -2.416  -0.525  25.826  0.00  0.00    +0.094 C 
ATOM     14  C   UNL     1      -3.947  -2.316  26.296  0.00  0.00    +0.085 C 
ENDROOT
BRANCH   9  15
ATOM      5  N   UNL     1      -0.526   0.076  23.420  0.00  0.00    -0.270 N 
ATOM      6  N   UNL     1       0.625   0.525  22.894  0.00  0.00    -0.171 NA
ATOM     15  C   UNL     1      -0.360  -0.902  24.356  0.00  0.00    +0.044 A 
ATOM     17  C   UNL     1       0.994  -1.106  24.450  0.00  0.00    +0.053 A 
ATOM     18  C   UNL     1       1.552  -0.200  23.527  0.00  0.00    +0.100 A 
ATOM     19  C   UNL     1      -1.776   0.643  22.968  0.00  0.00    +0.172 C 
BRANCH  18  20
ATOM      1  S   UNL     1       4.184  -1.162  23.732  0.00  0.00    -0.095 S 
ATOM     20  C   UNL     1       2.990  -0.032  23.254  0.00  0.00    +0.039 A 
ATOM     22  C   UNL     1       3.534   1.046  22.589  0.00  0.00    +0.018 A 
ATOM     23  C   UNL     1       4.950   0.941  22.470  0.00  0.00    +0.008 A 
ATOM     24  C   UNL     1       5.434  -0.212  23.049  0.00  0.00    +0.046 A 
ENDBRANCH  18  20
ENDBRANCH   9  15
BRANCH  10  16
ATOM     16  C   UNL     1      -4.654   0.568  23.969  0.00  0.00    +0.252 C 
BRANCH  16   2
ATOM      2  O   UNL     1      -5.243   1.286  25.036  0.00  0.00    -0.449 OA
BRANCH   2  21
ATOM      3  O   UNL     1      -5.109   3.233  26.227  0.00  0.00    -0.226 OA
ATOM      7  N   UNL     1      -3.434   2.588  24.725  0.00  0.00    -0.251 N 
ATOM     21  C   UNL     1      -4.627   2.460  25.408  0.00  0.00    +0.405 C 
ATOM     31  H   UNL     1      -3.201   1.835  24.081  0.00  0.00    +0.158 HD
BRANCH   7  25
ATOM     25  C   UNL     1      -2.492   3.639  24.808  0.00  0.00    +0.036 A 
ATOM     26  C   UNL     1      -1.128   3.360  24.725  0.00  0.00    +0.023 A 
ATOM     27  C   UNL     1      -2.927   4.954  24.972  0.00  0.00    +0.023 A 
ATOM     28  C   UNL     1      -0.198   4.396  24.808  0.00  0.00    +0.002 A 
ATOM     29  C   UNL     1      -1.996   5.990  25.053  0.00  0.00    +0.002 A 
ATOM     30  C   UNL     1      -0.633   5.712  24.971  0.00  0.00    +0.000 A 
ENDBRANCH   7  25
ENDBRANCH   2  21
ENDBRANCH  16   2
ENDBRANCH  10  16
TORSDOF 6
ENDMDL
MODEL 3
REMARK VINA RESULT:       2.2      2.027      5.317
REMARK  Name = 40780076
REMARK  7 active torsions:
REMARK  status: ('A' for Active; 'I' for Inactive)
REMARK    1  A    between atoms: O_2  and  C_16
REMARK    2  A    between atoms: O_2  and  C_21
REMARK    3  A    between atoms: N_5  and  C_19
REMARK    4  A    between atoms: N_7  and  C_25
REMARK    5  A    between atoms: C_9  and  C_15
REMARK    6  A    between atoms: C_10  and  C_16
REMARK    7  A    between atoms: C_18  and  C_20
REMARK                            x       y       z     vdW  Elec       q    Type
REMARK                         _______ _______ _______ _____ _____    ______ ____
ROOT
ATOM      4  N   UNL     1      -0.993   4.542  25.444  0.00  0.00    -0.296 NA
ATOM      8  C   UNL     1      -2.992   4.214  23.808  0.00  0.00    +0.002 C 
ATOM      9  C   UNL     1      -3.243   3.444  25.133  0.00  0.00    +0.055 C 
ATOM     10  C   UNL     1      -0.491   4.134  24.106  0.00  0.00    +0.095 C 
ATOM     11  C   UNL     1      -1.664   3.735  23.183  0.00  0.00    +0.026 C 
ATOM     12  C   UNL     1      -2.807   5.699  24.183  0.00  0.00    +0.019 C 
ATOM     13  C   UNL     1      -1.933   3.520  25.969  0.00  0.00    +0.094 C 
ATOM     14  C   UNL     1      -1.736   5.814  25.283  0.00  0.00    +0.085 C 
ENDROOT
BRANCH   9  15
ATOM      5  N   UNL     1      -5.089   1.713  25.332  0.00  0.00    -0.270 N 
ATOM      6  N   UNL     1      -5.374   0.407  25.199  0.00  0.00    -0.171 NA
ATOM     15  C   UNL     1      -3.792   2.026  25.050  0.00  0.00    +0.044 A 
ATOM     17  C   UNL     1      -3.186   0.842  24.707  0.00  0.00    +0.053 A 
ATOM     18  C   UNL     1      -4.207  -0.121  24.817  0.00  0.00    +0.100 A 
ATOM     19  C   UNL     1      -6.133   2.624  25.742  0.00  0.00    +0.172 C 
BRANCH  18  20
ATOM      1  S   UNL     1      -3.054  -2.598  25.471  0.00  0.00    -0.095 S 
ATOM     20  C   UNL     1      -4.058  -1.562  24.550  0.00  0.00    +0.039 A 
ATOM     22  C   UNL     1      -4.703  -2.236  23.536  0.00  0.00    +0.018 A 
ATOM     23  C   UNL     1      -4.369  -3.621  23.517  0.00  0.00    +0.008 A 
ATOM     24  C   UNL     1      -3.481  -3.952  24.516  0.00  0.00    +0.046 A 
ENDBRANCH  18  20
ENDBRANCH   9  15
BRANCH  10  16
ATOM     16  C   UNL     1       0.567   3.032  24.191  0.00  0.00    +0.252 C 
BRANCH  16   2
ATOM      2  O   UNL     1       0.111   1.916  23.452  0.00  0.00    -0.449 OA
BRANCH   2  21
ATOM      3  O   UNL     1       0.497  -0.336  23.374  0.00  0.00    -0.226 OA
ATOM      7  N   UNL     1       2.249   1.212  23.491  0.00  0.00    -0.251 N 
ATOM     21  C   UNL     1       0.929   0.808  23.434  0.00  0.00    +0.405 C 
ATOM     31  H   UNL     1       2.410   2.215  23.536  0.00  0.00    +0.158 HD
BRANCH   7  25
ATOM     25  C   UNL     1       3.407   0.401  23.494  0.00  0.00    +0.036 A 
ATOM     26  C   UNL     1       4.655   0.969  23.239  0.00  0.00    +0.023 A 
ATOM     27  C   UNL     1       3.301  -0.965  23.753  0.00  0.00    +0.023 A 
ATOM     28  C   UNL     1       5.798   0.170  23.241  0.00  0.00    +0.002 A 
ATOM     29  C   UNL     1       4.445  -1.763  23.757  0.00  0.00    +0.002 A 
ATOM     30  C   UNL     1       5.693  -1.196  23.501  0.00  0.00    +0.000 A 
ENDBRANCH   7  25
ENDBRANCH   2  21
ENDBRANCH  16   2
ENDBRANCH  10  16
TORSDOF 6
ENDMDL
MODEL 4
REMARK VINA RESULT:       2.4      2.401      7.160
REMARK  Name = 40780076
REMARK  7 active torsions:
REMARK  status: ('A' for Active; 'I' for Inactive)
REMARK    1  A    between atoms: O_2  and  C_16
REMARK    2  A    between atoms: O_2  and  C_21
REMARK    3  A    between atoms: N_5  and  C_19
REMARK    4  A    between atoms: N_7  and  C_25
REMARK    5  A    between atoms: C_9  and  C_15
REMARK    6  A    between atoms: C_10  and  C_16
REMARK    7  A    between atoms: C_18  and  C_20
REMARK                            x       y       z     vdW  Elec       q    Type
REMARK                         _______ _______ _______ _____ _____    ______ ____
ROOT
ATOM      4  N   UNL     1      -3.238   4.298  24.528  0.00  0.00    -0.296 NA
ATOM      8  C   UNL     1      -0.702   4.656  24.997  0.00  0.00    +0.002 C 
ATOM      9  C   UNL     1      -0.901   3.745  23.755  0.00  0.00    +0.055 C 
ATOM     10  C   UNL     1      -2.943   4.023  25.959  0.00  0.00    +0.095 C 
ATOM     11  C   UNL     1      -1.419   4.027  26.211  0.00  0.00    +0.026 C 
ATOM     12  C   UNL     1      -1.414   5.990  24.691  0.00  0.00    +0.019 C 
ATOM     13  C   UNL     1      -2.418   3.415  23.661  0.00  0.00    +0.094 C 
ATOM     14  C   UNL     1      -2.859   5.703  24.248  0.00  0.00    +0.085 C 
ENDROOT
BRANCH   9  15
ATOM      5  N   UNL     1      -0.544   1.252  23.435  0.00  0.00    -0.270 N 
ATOM      6  N   UNL     1       0.389   0.290  23.349  0.00  0.00    -0.171 NA
ATOM     15  C   UNL     1      -0.032   2.502  23.627  0.00  0.00    +0.044 A 
ATOM     17  C   UNL     1       1.332   2.346  23.668  0.00  0.00    +0.053 A 
ATOM     18  C   UNL     1       1.534   0.964  23.492  0.00  0.00    +0.100 A 
ATOM     19  C   UNL     1      -1.939   0.893  23.323  0.00  0.00    +0.172 C 
BRANCH  18  20
ATOM      1  S   UNL     1       3.058  -1.376  23.808  0.00  0.00    -0.095 S 
ATOM     20  C   UNL     1       2.843   0.287  23.459  0.00  0.00    +0.039 A 
ATOM     22  C   UNL     1       4.032   0.908  23.148  0.00  0.00    +0.018 A 
ATOM     23  C   UNL     1       5.135   0.006  23.196  0.00  0.00    +0.008 A 
ATOM     24  C   UNL     1       4.746  -1.269  23.542  0.00  0.00    +0.046 A 
ENDBRANCH  18  20
ENDBRANCH   9  15
BRANCH  10  16
ATOM     16  C   UNL     1      -3.598   2.731  26.451  0.00  0.00    +0.252 C 
BRANCH  16   2
ATOM      2  O   UNL     1      -4.857   2.599  25.820  0.00  0.00    -0.449 OA
BRANCH   2  21
ATOM      3  O   UNL     1      -6.172   1.156  24.630  0.00  0.00    -0.226 OA
ATOM      7  N   UNL     1      -4.080   0.516  25.462  0.00  0.00    -0.251 N 
ATOM     21  C   UNL     1      -5.134   1.381  25.240  0.00  0.00    +0.405 C 
ATOM     31  H   UNL     1      -3.298   0.889  25.995  0.00  0.00    +0.158 HD
BRANCH   7  25
ATOM     25  C   UNL     1      -3.953  -0.827  25.041  0.00  0.00    +0.036 A 
ATOM     26  C   UNL     1      -4.533  -1.238  23.840  0.00  0.00    +0.023 A 
ATOM     27  C   UNL     1      -3.248  -1.740  25.824  0.00  0.00    +0.023 A 
ATOM     28  C   UNL     1      -4.408  -2.563  23.423  0.00  0.00    +0.002 A 
ATOM     29  C   UNL     1      -3.123  -3.065  25.406  0.00  0.00    +0.002 A 
ATOM     30  C   UNL     1      -3.702  -3.477  24.207  0.00  0.00    +0.000 A 
ENDBRANCH   7  25
ENDBRANCH   2  21
ENDBRANCH  16   2
ENDBRANCH  10  16
TORSDOF 6
ENDMDL
MODEL 5
REMARK VINA RESULT:       2.6      2.253      5.519
REMARK  Name = 40780076
REMARK  7 active torsions:
REMARK  status: ('A' for Active; 'I' for Inactive)
REMARK    1  A    between atoms: O_2  and  C_16
REMARK    2  A    between atoms: O_2  and  C_21
REMARK    3  A    between atoms: N_5  and  C_19
REMARK    4  A    between atoms: N_7  and  C_25
REMARK    5  A    between atoms: C_9  and  C_15
REMARK    6  A    between atoms: C_10  and  C_16
REMARK    7  A    between atoms: C_18  and  C_20
REMARK                            x       y       z     vdW  Elec       q    Type
REMARK                         _______ _______ _______ _____ _____    ______ ____
ROOT
ATOM      4  N   UNL     1      -1.872   5.162  25.924  0.00  0.00    -0.296 NA
ATOM      8  C   UNL     1      -2.843   4.224  23.697  0.00  0.00    +0.002 C 
ATOM      9  C   UNL     1      -3.680   3.725  24.907  0.00  0.00    +0.055 C 
ATOM     10  C   UNL     1      -0.786   4.552  25.114  0.00  0.00    +0.095 C 
ATOM     11  C   UNL     1      -1.368   3.810  23.891  0.00  0.00    +0.026 C 
ATOM     12  C   UNL     1      -2.889   5.766  23.728  0.00  0.00    +0.019 C 
ATOM     13  C   UNL     1      -2.928   4.155  26.199  0.00  0.00    +0.094 C 
ATOM     14  C   UNL     1      -2.474   6.257  25.127  0.00  0.00    +0.085 C 
ENDROOT
BRANCH   9  15
ATOM      5  N   UNL     1      -5.300   1.840  25.419  0.00  0.00    -0.270 N 
ATOM      6  N   UNL     1      -5.472   0.508  25.363  0.00  0.00    -0.171 NA
ATOM     15  C   UNL     1      -4.094   2.261  24.942  0.00  0.00    +0.044 A 
ATOM     17  C   UNL     1      -3.430   1.126  24.545  0.00  0.00    +0.053 A 
ATOM     18  C   UNL     1      -4.326   0.077  24.828  0.00  0.00    +0.100 A 
ATOM     19  C   UNL     1      -6.359   2.665  25.954  0.00  0.00    +0.172 C 
BRANCH  18  20
ATOM      1  S   UNL     1      -3.135  -2.345  25.611  0.00  0.00    -0.095 S 
ATOM     20  C   UNL     1      -4.076  -1.354  24.579  0.00  0.00    +0.039 A 
ATOM     22  C   UNL     1      -4.567  -2.052  23.497  0.00  0.00    +0.018 A 
ATOM     23  C   UNL     1      -4.164  -3.420  23.517  0.00  0.00    +0.008 A 
ATOM     24  C   UNL     1      -3.382  -3.713  24.611  0.00  0.00    +0.046 A 
ENDBRANCH  18  20
ENDBRANCH   9  15
BRANCH  10  16
ATOM     16  C   UNL     1       0.126   3.650  25.947  0.00  0.00    +0.252 C 
BRANCH  16   2
ATOM      2  O   UNL     1      -0.518   2.403  26.121  0.00  0.00    -0.449 OA
BRANCH   2  21
ATOM      3  O   UNL     1      -0.556   0.237  25.389  0.00  0.00    -0.226 OA
ATOM      7  N   UNL     1       0.897   1.824  24.467  0.00  0.00    -0.251 N 
ATOM     21  C   UNL     1      -0.092   1.368  25.318  0.00  0.00    +0.405 C 
ATOM     31  H   UNL     1       1.149   2.806  24.558  0.00  0.00    +0.158 HD
BRANCH   7  25
ATOM     25  C   UNL     1       1.602   1.095  23.483  0.00  0.00    +0.036 A 
ATOM     26  C   UNL     1       0.933   0.156  22.698  0.00  0.00    +0.023 A 
ATOM     27  C   UNL     1       2.966   1.315  23.297  0.00  0.00    +0.023 A 
ATOM     28  C   UNL     1       1.628  -0.564  21.727  0.00  0.00    +0.002 A 
ATOM     29  C   UNL     1       3.662   0.595  22.325  0.00  0.00    +0.002 A 
ATOM     30  C   UNL     1       2.993  -0.344  21.541  0.00  0.00    +0.000 A 
ENDBRANCH   7  25
ENDBRANCH   2  21
ENDBRANCH  16   2
ENDBRANCH  10  16
TORSDOF 6
ENDMDL
MODEL 6
REMARK VINA RESULT:       2.7      2.360      6.384
REMARK  Name = 40780076
REMARK  7 active torsions:
REMARK  status: ('A' for Active; 'I' for Inactive)
REMARK    1  A    between atoms: O_2  and  C_16
REMARK    2  A    between atoms: O_2  and  C_21
REMARK    3  A    between atoms: N_5  and  C_19
REMARK    4  A    between atoms: N_7  and  C_25
REMARK    5  A    between atoms: C_9  and  C_15
REMARK    6  A    between atoms: C_10  and  C_16
REMARK    7  A    between atoms: C_18  and  C_20
REMARK                            x       y       z     vdW  Elec       q    Type
REMARK                         _______ _______ _______ _____ _____    ______ ____
ROOT
ATOM      4  N   UNL     1      -3.969   4.886  24.903  0.00  0.00    -0.296 NA
ATOM      8  C   UNL     1      -2.866   3.460  26.782  0.00  0.00    +0.002 C 
ATOM      9  C   UNL     1      -1.788   3.978  25.791  0.00  0.00    +0.055 C 
ATOM     10  C   UNL     1      -4.686   3.592  25.045  0.00  0.00    +0.095 C 
ATOM     11  C   UNL     1      -3.927   2.651  26.006  0.00  0.00    +0.026 C 
ATOM     12  C   UNL     1      -3.577   4.703  27.358  0.00  0.00    +0.019 C 
ATOM     13  C   UNL     1      -2.536   4.641  24.599  0.00  0.00    +0.094 C 
ATOM     14  C   UNL     1      -4.052   5.597  26.200  0.00  0.00    +0.085 C 
ENDROOT
BRANCH   9  15
ATOM      5  N   UNL     1       0.173   2.415  26.181  0.00  0.00    -0.270 N 
ATOM      6  N   UNL     1       1.045   1.593  25.574  0.00  0.00    -0.171 NA
ATOM     15  C   UNL     1      -0.711   3.008  25.328  0.00  0.00    +0.044 A 
ATOM     17  C   UNL     1      -0.395   2.540  24.076  0.00  0.00    +0.053 A 
ATOM     18  C   UNL     1       0.693   1.673  24.288  0.00  0.00    +0.100 A 
ATOM     19  C   UNL     1       0.247   2.588  27.614  0.00  0.00    +0.172 C 
BRANCH  18  20
ATOM      1  S   UNL     1       3.075   1.071  22.924  0.00  0.00    -0.095 S 
ATOM     20  C   UNL     1       1.400   0.913  23.241  0.00  0.00    +0.039 A 
ATOM     22  C   UNL     1       0.800  -0.003  22.406  0.00  0.00    +0.018 A 
ATOM     23  C   UNL     1       1.728  -0.583  21.493  0.00  0.00    +0.008 A 
ATOM     24  C   UNL     1       3.002  -0.088  21.666  0.00  0.00    +0.046 A 
ENDBRANCH  18  20
ENDBRANCH   9  15
BRANCH  10  16
ATOM     16  C   UNL     1      -4.963   2.926  23.696  0.00  0.00    +0.252 C 
BRANCH  16   2
ATOM      2  O   UNL     1      -3.749   2.860  22.973  0.00  0.00    -0.449 OA
BRANCH   2  21
ATOM      3  O   UNL     1      -2.443   1.319  21.901  0.00  0.00    -0.226 OA
ATOM      7  N   UNL     1      -3.564   0.813  23.893  0.00  0.00    -0.251 N 
ATOM     21  C   UNL     1      -3.177   1.615  22.836  0.00  0.00    +0.405 C 
ATOM     31  H   UNL     1      -4.182   1.241  24.579  0.00  0.00    +0.158 HD
BRANCH   7  25
ATOM     25  C   UNL     1      -3.206  -0.531  24.142  0.00  0.00    +0.036 A 
ATOM     26  C   UNL     1      -4.139  -1.549  23.942  0.00  0.00    +0.023 A 
ATOM     27  C   UNL     1      -1.920  -0.840  24.585  0.00  0.00    +0.023 A 
ATOM     28  C   UNL     1      -3.787  -2.876  24.187  0.00  0.00    +0.002 A 
ATOM     29  C   UNL     1      -1.568  -2.168  24.829  0.00  0.00    +0.002 A 
ATOM     30  C   UNL     1      -2.500  -3.185  24.631  0.00  0.00    +0.000 A 
ENDBRANCH   7  25
ENDBRANCH   2  21
ENDBRANCH  16   2
ENDBRANCH  10  16
TORSDOF 6
ENDMDL
MODEL 7
REMARK VINA RESULT:       2.7      2.308      6.110
REMARK  Name = 40780076
REMARK  7 active torsions:
REMARK  status: ('A' for Active; 'I' for Inactive)
REMARK    1  A    between atoms: O_2  and  C_16
REMARK    2  A    between atoms: O_2  and  C_21
REMARK    3  A    between atoms: N_5  and  C_19
REMARK    4  A    between atoms: N_7  and  C_25
REMARK    5  A    between atoms: C_9  and  C_15
REMARK    6  A    between atoms: C_10  and  C_16
REMARK    7  A    between atoms: C_18  and  C_20
REMARK                            x       y       z     vdW  Elec       q    Type
REMARK                         _______ _______ _______ _____ _____    ______ ____
ROOT
ATOM      4  N   UNL     1      -4.180   4.199  24.570  0.00  0.00    -0.296 NA
ATOM      8  C   UNL     1      -2.270   3.365  26.130  0.00  0.00    +0.002 C 
ATOM      9  C   UNL     1      -1.734   3.595  24.690  0.00  0.00    +0.055 C 
ATOM     10  C   UNL     1      -4.623   2.990  25.313  0.00  0.00    +0.095 C 
ATOM     11  C   UNL     1      -3.442   2.361  26.083  0.00  0.00    +0.026 C 
ATOM     12  C   UNL     1      -2.845   4.712  26.612  0.00  0.00    +0.019 C 
ATOM     13  C   UNL     1      -2.960   3.893  23.781  0.00  0.00    +0.094 C 
ATOM     14  C   UNL     1      -3.838   5.244  25.563  0.00  0.00    +0.085 C 
ENDROOT
BRANCH   9  15
ATOM      5  N   UNL     1      -1.231   1.621  23.175  0.00  0.00    -0.270 N 
ATOM      6  N   UNL     1      -0.265   0.781  22.768  0.00  0.00    -0.171 NA
ATOM     15  C   UNL     1      -0.812   2.543  24.088  0.00  0.00    +0.044 A 
ATOM     17  C   UNL     1       0.522   2.290  24.292  0.00  0.00    +0.053 A 
ATOM     18  C   UNL     1       0.805   1.194  23.454  0.00  0.00    +0.100 A 
ATOM     19  C   UNL     1      -2.564   1.478  22.634  0.00  0.00    +0.172 C 
BRANCH  18  20
ATOM      1  S   UNL     1       3.539   1.365  22.832  0.00  0.00    -0.095 S 
ATOM     20  C   UNL     1       2.118   0.540  23.311  0.00  0.00    +0.039 A 
ATOM     22  C   UNL     1       2.349  -0.798  23.544  0.00  0.00    +0.018 A 
ATOM     23  C   UNL     1       3.714  -1.150  23.327  0.00  0.00    +0.008 A 
ATOM     24  C   UNL     1       4.471  -0.068  22.936  0.00  0.00    +0.046 A 
ENDBRANCH  18  20
ENDBRANCH   9  15
BRANCH  10  16
ATOM     16  C   UNL     1      -5.320   1.972  24.408  0.00  0.00    +0.252 C 
BRANCH  16   2
ATOM      2  O   UNL     1      -5.453   0.758  25.121  0.00  0.00    -0.449 OA
BRANCH   2  21
ATOM      3  O   UNL     1      -4.999  -1.118  23.894  0.00  0.00    -0.226 OA
ATOM      7  N   UNL     1      -3.442  -0.218  25.393  0.00  0.00    -0.251 N 
ATOM     21  C   UNL     1      -4.648  -0.286  24.722  0.00  0.00    +0.405 C 
ATOM     31  H   UNL     1      -3.335   0.553  26.048  0.00  0.00    +0.158 HD
BRANCH   7  25
ATOM     25  C   UNL     1      -2.335  -1.090  25.283  0.00  0.00    +0.036 A 
ATOM     26  C   UNL     1      -2.435  -2.249  24.513  0.00  0.00    +0.023 A 
ATOM     27  C   UNL     1      -1.143  -0.790  25.940  0.00  0.00    +0.023 A 
ATOM     28  C   UNL     1      -1.343  -3.110  24.403  0.00  0.00    +0.002 A 
ATOM     29  C   UNL     1      -0.050  -1.650  25.829  0.00  0.00    +0.002 A 
ATOM     30  C   UNL     1      -0.150  -2.809  25.061  0.00  0.00    +0.000 A 
ENDBRANCH   7  25
ENDBRANCH   2  21
ENDBRANCH  16   2
ENDBRANCH  10  16
TORSDOF 6
ENDMDL
MODEL 8
REMARK VINA RESULT:       2.8      3.068      5.669
REMARK  Name = 40780076
REMARK  7 active torsions:
REMARK  status: ('A' for Active; 'I' for Inactive)
REMARK    1  A    between atoms: O_2  and  C_16
REMARK    2  A    between atoms: O_2  and  C_21
REMARK    3  A    between atoms: N_5  and  C_19
REMARK    4  A    between atoms: N_7  and  C_25
REMARK    5  A    between atoms: C_9  and  C_15
REMARK    6  A    between atoms: C_10  and  C_16
REMARK    7  A    between atoms: C_18  and  C_20
REMARK                            x       y       z     vdW  Elec       q    Type
REMARK                         _______ _______ _______ _____ _____    ______ ____
ROOT
ATOM      4  N   UNL     1      -4.517   2.708  25.975  0.00  0.00    -0.296 NA
ATOM      8  C   UNL     1      -4.539   1.269  23.805  0.00  0.00    +0.002 C 
ATOM      9  C   UNL     1      -3.579   0.650  24.858  0.00  0.00    +0.055 C 
ATOM     10  C   UNL     1      -4.306   3.578  24.788  0.00  0.00    +0.095 C 
ATOM     11  C   UNL     1      -4.109   2.724  23.516  0.00  0.00    +0.026 C 
ATOM     12  C   UNL     1      -5.936   1.330  24.456  0.00  0.00    +0.019 C 
ATOM     13  C   UNL     1      -3.465   1.662  26.033  0.00  0.00    +0.094 C 
ATOM     14  C   UNL     1      -5.829   2.036  25.820  0.00  0.00    +0.085 C 
ENDROOT
BRANCH   9  15
ATOM      5  N   UNL     1      -1.841  -1.153  24.445  0.00  0.00    -0.270 N 
ATOM      6  N   UNL     1      -0.601  -1.382  23.983  0.00  0.00    -0.171 NA
ATOM     15  C   UNL     1      -2.218   0.156  24.388  0.00  0.00    +0.044 A 
ATOM     17  C   UNL     1      -1.149   0.831  23.850  0.00  0.00    +0.053 A 
ATOM     18  C   UNL     1      -0.182  -0.166  23.621  0.00  0.00    +0.100 A 
ATOM     19  C   UNL     1      -2.626  -2.263  24.937  0.00  0.00    +0.172 C 
BRANCH  18  20
ATOM      1  S   UNL     1       1.687  -0.656  21.580  0.00  0.00    -0.095 S 
ATOM     20  C   UNL     1       1.157   0.054  23.045  0.00  0.00    +0.039 A 
ATOM     22  C   UNL     1       2.127   0.849  23.616  0.00  0.00    +0.018 A 
ATOM     23  C   UNL     1       3.321   0.876  22.838  0.00  0.00    +0.008 A 
ATOM     24  C   UNL     1       3.218   0.100  21.705  0.00  0.00    +0.046 A 
ENDBRANCH  18  20
ENDBRANCH   9  15
BRANCH  10  16
ATOM     16  C   UNL     1      -3.162   4.572  24.990  0.00  0.00    +0.252 C 
BRANCH  16   2
ATOM      2  O   UNL     1      -1.951   3.940  24.623  0.00  0.00    -0.449 OA
BRANCH   2  21
ATOM      3  O   UNL     1      -0.153   5.147  25.357  0.00  0.00    -0.226 OA
ATOM      7  N   UNL     1      -0.746   3.102  26.331  0.00  0.00    -0.251 N 
ATOM     21  C   UNL     1      -0.866   4.155  25.444  0.00  0.00    +0.405 C 
ATOM     31  H   UNL     1      -1.441   2.364  26.248  0.00  0.00    +0.158 HD
BRANCH   7  25
ATOM     25  C   UNL     1       0.225   2.924  27.342  0.00  0.00    +0.036 A 
ATOM     26  C   UNL     1      -0.175   2.662  28.653  0.00  0.00    +0.023 A 
ATOM     27  C   UNL     1       1.582   3.008  27.030  0.00  0.00    +0.023 A 
ATOM     28  C   UNL     1       0.783   2.485  29.652  0.00  0.00    +0.002 A 
ATOM     29  C   UNL     1       2.539   2.830  28.029  0.00  0.00    +0.002 A 
ATOM     30  C   UNL     1       2.140   2.570  29.339  0.00  0.00    +0.000 A 
ENDBRANCH   7  25
ENDBRANCH   2  21
ENDBRANCH  16   2
ENDBRANCH  10  16
TORSDOF 6
ENDMDL
