MODEL 1
REMARK VINA RESULT:       2.4      0.000      0.000
REMARK  Name = 51136664
REMARK  9 active torsions:
REMARK  status: ('A' for Active; 'I' for Inactive)
REMARK    1  A    between atoms: O_3  and  C_18
REMARK    2  A    between atoms: O_5  and  C_27
REMARK    3  A    between atoms: O_5  and  C_31
REMARK    4  A    between atoms: C_8  and  C_13
REMARK    5  A    between atoms: C_9  and  C_14
REMARK    6  A    between atoms: C_13  and  C_15
REMARK    7  A    between atoms: C_14  and  C_18
REMARK    8  A    between atoms: C_16  and  C_19
REMARK    9  A    between atoms: C_19  and  C_25
REMARK                            x       y       z     vdW  Elec       q    Type
REMARK                         _______ _______ _______ _____ _____    ______ ____
ROOT
ATOM      2  O   UNL     1      -6.087   4.068  25.228  0.00  0.00    -0.275 OA
ATOM      6  N   UNL     1      -5.163   2.006  25.768  0.00  0.00    -0.301 N 
ATOM      8  C   UNL     1      -3.548   0.162  25.359  0.00  0.00    +0.016 C 
ATOM      9  C   UNL     1      -4.708  -0.673  24.759  0.00  0.00    +0.006 C 
ATOM     10  C   UNL     1      -5.817   0.230  24.188  0.00  0.00    +0.023 C 
ATOM     11  C   UNL     1      -4.105   1.183  26.367  0.00  0.00    +0.112 C 
ATOM     12  C   UNL     1      -6.289   1.249  25.221  0.00  0.00    +0.108 C 
ATOM     16  C   UNL     1      -5.172   3.399  25.716  0.00  0.00    +0.220 C 
ENDROOT
BRANCH   8  13
ATOM     13  C   UNL     1      -2.681   0.869  24.309  0.00  0.00    +0.061 C 
BRANCH  13  15
ATOM      7  N   UNL     1      -1.320   1.784  26.064  0.00  0.00    -0.287 NA
ATOM     15  C   UNL     1      -1.337   1.216  24.903  0.00  0.00    +0.044 C 
ATOM     17  C   UNL     1      -0.110   0.895  24.131  0.00  0.00    -0.001 A 
ATOM     20  C   UNL     1       1.065   1.559  24.509  0.00  0.00    -0.033 A 
ATOM     21  C   UNL     1       1.004   2.542  25.640  0.00  0.00    +0.059 C 
ATOM     22  C   UNL     1      -0.013   2.065  26.667  0.00  0.00    +0.146 C 
ATOM     23  C   UNL     1      -0.102  -0.007  23.065  0.00  0.00    +0.013 A 
ATOM     24  C   UNL     1       2.245   1.332  23.796  0.00  0.00    +0.050 A 
ATOM     26  C   UNL     1       1.086  -0.239  22.369  0.00  0.00    +0.046 A 
ATOM     27  C   UNL     1       2.255   0.431  22.731  0.00  0.00    +0.120 A 
BRANCH  27   5
ATOM      5  O   UNL     1       3.408   0.206  22.042  0.00  0.00    -0.495 OA
ATOM     31  C   UNL     1       4.633   0.380  22.753  0.00  0.00    +0.277 C 
ENDBRANCH  27   5
ENDBRANCH  13  15
ENDBRANCH   8  13
BRANCH   9  14
ATOM     14  C   UNL     1      -4.242  -1.683  23.711  0.00  0.00    +0.124 C 
BRANCH  14  18
ATOM      4  O   UNL     1      -2.015  -2.665  23.834  0.00  0.00    -0.251 OA
ATOM     18  C   UNL     1      -3.161  -2.580  24.248  0.00  0.00    +0.305 C 
BRANCH  18   3
ATOM      3  O   UNL     1      -3.644  -3.307  25.289  0.00  0.00    -0.481 OA
ATOM     32  H   UNL     1      -4.617  -3.220  25.376  0.00  0.00    +0.295 HD
ENDBRANCH  18   3
ENDBRANCH  14  18
ENDBRANCH   9  14
BRANCH  16  19
ATOM     19  C   UNL     1      -3.973   4.104  26.298  0.00  0.00    +0.138 C 
BRANCH  19  25
ATOM      1  S   UNL     1      -3.188   3.720  23.666  0.00  0.00    -0.101 S 
ATOM     25  C   UNL     1      -2.917   4.299  25.254  0.00  0.00    -0.001 A 
ATOM     28  C   UNL     1      -1.687   4.906  25.382  0.00  0.00    +0.011 A 
ATOM     29  C   UNL     1      -0.958   4.898  24.158  0.00  0.00    +0.008 A 
ATOM     30  C   UNL     1      -1.657   4.284  23.143  0.00  0.00    +0.045 A 
ENDBRANCH  19  25
ENDBRANCH  16  19
TORSDOF 8
ENDMDL
MODEL 2
REMARK VINA RESULT:       2.7      1.852      5.928
REMARK  Name = 51136664
REMARK  9 active torsions:
REMARK  status: ('A' for Active; 'I' for Inactive)
REMARK    1  A    between atoms: O_3  and  C_18
REMARK    2  A    between atoms: O_5  and  C_27
REMARK    3  A    between atoms: O_5  and  C_31
REMARK    4  A    between atoms: C_8  and  C_13
REMARK    5  A    between atoms: C_9  and  C_14
REMARK    6  A    between atoms: C_13  and  C_15
REMARK    7  A    between atoms: C_14  and  C_18
REMARK    8  A    between atoms: C_16  and  C_19
REMARK    9  A    between atoms: C_19  and  C_25
REMARK                            x       y       z     vdW  Elec       q    Type
REMARK                         _______ _______ _______ _____ _____    ______ ____
ROOT
ATOM      2  O   UNL     1      -3.850  -2.503  24.507  0.00  0.00    -0.275 OA
ATOM      6  N   UNL     1      -1.644  -1.825  24.774  0.00  0.00    -0.301 N 
ATOM      8  C   UNL     1       0.212  -0.221  24.374  0.00  0.00    +0.016 C 
ATOM      9  C   UNL     1       0.789  -1.206  23.326  0.00  0.00    +0.006 C 
ATOM     10  C   UNL     1      -0.312  -2.092  22.716  0.00  0.00    +0.023 C 
ATOM     11  C   UNL     1      -0.618  -0.992  25.415  0.00  0.00    +0.112 C 
ATOM     12  C   UNL     1      -1.128  -2.788  23.802  0.00  0.00    +0.108 C 
ATOM     16  C   UNL     1      -3.010  -1.774  25.043  0.00  0.00    +0.220 C 
ENDROOT
BRANCH   8  13
ATOM     13  C   UNL     1      -0.619   0.917  23.768  0.00  0.00    +0.061 C 
BRANCH  13  15
ATOM      7  N   UNL     1       0.085   2.146  25.707  0.00  0.00    -0.287 NA
ATOM     15  C   UNL     1      -0.816   2.009  24.792  0.00  0.00    +0.044 C 
ATOM     17  C   UNL     1      -2.028   2.863  24.702  0.00  0.00    -0.001 A 
ATOM     20  C   UNL     1      -2.378   3.585  25.851  0.00  0.00    -0.033 A 
ATOM     21  C   UNL     1      -1.528   3.440  27.079  0.00  0.00    +0.059 C 
ATOM     22  C   UNL     1      -0.076   3.245  26.665  0.00  0.00    +0.146 C 
ATOM     23  C   UNL     1      -2.808   2.949  23.547  0.00  0.00    +0.013 A 
ATOM     24  C   UNL     1      -3.530   4.375  25.845  0.00  0.00    +0.050 A 
ATOM     26  C   UNL     1      -3.949   3.754  23.546  0.00  0.00    +0.046 A 
ATOM     27  C   UNL     1      -4.311   4.462  24.692  0.00  0.00    +0.120 A 
BRANCH  27   5
ATOM      5  O   UNL     1      -5.429   5.239  24.686  0.00  0.00    -0.495 OA
ATOM     31  C   UNL     1      -6.330   5.089  25.782  0.00  0.00    +0.277 C 
ENDBRANCH  27   5
ENDBRANCH  13  15
ENDBRANCH   8  13
BRANCH   9  14
ATOM     14  C   UNL     1       1.593  -0.511  22.227  0.00  0.00    +0.124 C 
BRANCH  14  18
ATOM      4  O   UNL     1       3.341   1.145  22.602  0.00  0.00    -0.251 OA
ATOM     18  C   UNL     1       2.903   0.014  22.745  0.00  0.00    +0.305 C 
BRANCH  18   3
ATOM      3  O   UNL     1       3.557  -0.970  23.415  0.00  0.00    -0.481 OA
ATOM     32  H   UNL     1       2.956  -1.702  23.669  0.00  0.00    +0.295 HD
ENDBRANCH  18   3
ENDBRANCH  14  18
ENDBRANCH   9  14
BRANCH  16  19
ATOM     19  C   UNL     1      -3.462  -0.751  26.054  0.00  0.00    +0.138 C 
BRANCH  19  25
ATOM      1  S   UNL     1      -5.450   1.128  26.514  0.00  0.00    -0.101 S 
ATOM     25  C   UNL     1      -4.526   0.130  25.474  0.00  0.00    -0.001 A 
ATOM     28  C   UNL     1      -4.899   0.269  24.156  0.00  0.00    +0.011 A 
ATOM     29  C   UNL     1      -5.957   1.210  23.997  0.00  0.00    +0.008 A 
ATOM     30  C   UNL     1      -6.353   1.752  25.199  0.00  0.00    +0.045 A 
ENDBRANCH  19  25
ENDBRANCH  16  19
TORSDOF 8
ENDMDL
MODEL 3
REMARK VINA RESULT:       2.8      2.300      4.502
REMARK  Name = 51136664
REMARK  9 active torsions:
REMARK  status: ('A' for Active; 'I' for Inactive)
REMARK    1  A    between atoms: O_3  and  C_18
REMARK    2  A    between atoms: O_5  and  C_27
REMARK    3  A    between atoms: O_5  and  C_31
REMARK    4  A    between atoms: C_8  and  C_13
REMARK    5  A    between atoms: C_9  and  C_14
REMARK    6  A    between atoms: C_13  and  C_15
REMARK    7  A    between atoms: C_14  and  C_18
REMARK    8  A    between atoms: C_16  and  C_19
REMARK    9  A    between atoms: C_19  and  C_25
REMARK                            x       y       z     vdW  Elec       q    Type
REMARK                         _______ _______ _______ _____ _____    ______ ____
ROOT
ATOM      2  O   UNL     1      -6.197   1.943  25.791  0.00  0.00    -0.275 OA
ATOM      6  N   UNL     1      -4.320   2.639  24.611  0.00  0.00    -0.301 N 
ATOM      8  C   UNL     1      -1.879   2.566  24.149  0.00  0.00    +0.016 C 
ATOM      9  C   UNL     1      -1.733   3.914  24.900  0.00  0.00    +0.006 C 
ATOM     10  C   UNL     1      -2.850   4.104  25.942  0.00  0.00    +0.023 C 
ATOM     11  C   UNL     1      -3.301   2.439  23.573  0.00  0.00    +0.112 C 
ATOM     12  C   UNL     1      -4.229   3.917  25.317  0.00  0.00    +0.108 C 
ATOM     16  C   UNL     1      -5.336   1.740  24.930  0.00  0.00    +0.220 C 
ENDROOT
BRANCH   8  13
ATOM     13  C   UNL     1      -1.539   1.337  25.003  0.00  0.00    +0.061 C 
BRANCH  13  15
ATOM      7  N   UNL     1      -1.567  -0.774  23.859  0.00  0.00    -0.287 NA
ATOM     15  C   UNL     1      -0.882   0.283  24.144  0.00  0.00    +0.044 C 
ATOM     17  C   UNL     1       0.510   0.507  23.678  0.00  0.00    -0.001 A 
ATOM     20  C   UNL     1       1.214  -0.618  23.231  0.00  0.00    -0.033 A 
ATOM     21  C   UNL     1       0.533  -1.954  23.264  0.00  0.00    +0.059 C 
ATOM     22  C   UNL     1      -0.951  -1.769  22.975  0.00  0.00    +0.146 C 
ATOM     23  C   UNL     1       1.118   1.765  23.689  0.00  0.00    +0.013 A 
ATOM     24  C   UNL     1       2.542  -0.482  22.817  0.00  0.00    +0.050 A 
ATOM     26  C   UNL     1       2.440   1.893  23.259  0.00  0.00    +0.046 A 
ATOM     27  C   UNL     1       3.151   0.773  22.827  0.00  0.00    +0.120 A 
BRANCH  27   5
ATOM      5  O   UNL     1       4.442   0.906  22.416  0.00  0.00    -0.495 OA
ATOM     31  C   UNL     1       5.450   0.336  23.251  0.00  0.00    +0.277 C 
ENDBRANCH  27   5
ENDBRANCH  13  15
ENDBRANCH   8  13
BRANCH   9  14
ATOM     14  C   UNL     1      -0.359   4.098  25.542  0.00  0.00    +0.124 C 
BRANCH  14  18
ATOM      4  O   UNL     1      -0.942   2.840  27.546  0.00  0.00    -0.251 OA
ATOM     18  C   UNL     1      -0.140   3.130  26.671  0.00  0.00    +0.305 C 
BRANCH  18   3
ATOM      3  O   UNL     1       1.110   2.605  26.588  0.00  0.00    -0.481 OA
ATOM     32  H   UNL     1       1.220   2.049  25.788  0.00  0.00    +0.295 HD
ENDBRANCH  18   3
ENDBRANCH  14  18
ENDBRANCH   9  14
BRANCH  16  19
ATOM     19  C   UNL     1      -5.358   0.444  24.160  0.00  0.00    +0.138 C 
BRANCH  19  25
ATOM      1  S   UNL     1      -4.318  -2.127  24.119  0.00  0.00    -0.101 S 
ATOM     25  C   UNL     1      -4.541  -0.599  24.858  0.00  0.00    -0.001 A 
ATOM     28  C   UNL     1      -3.905  -0.515  26.077  0.00  0.00    +0.011 A 
ATOM     29  C   UNL     1      -3.223  -1.721  26.407  0.00  0.00    +0.008 A 
ATOM     30  C   UNL     1      -3.365  -2.681  25.430  0.00  0.00    +0.045 A 
ENDBRANCH  19  25
ENDBRANCH  16  19
TORSDOF 8
ENDMDL
MODEL 4
REMARK VINA RESULT:       3.0      2.316      4.263
REMARK  Name = 51136664
REMARK  9 active torsions:
REMARK  status: ('A' for Active; 'I' for Inactive)
REMARK    1  A    between atoms: O_3  and  C_18
REMARK    2  A    between atoms: O_5  and  C_27
REMARK    3  A    between atoms: O_5  and  C_31
REMARK    4  A    between atoms: C_8  and  C_13
REMARK    5  A    between atoms: C_9  and  C_14
REMARK    6  A    between atoms: C_13  and  C_15
REMARK    7  A    between atoms: C_14  and  C_18
REMARK    8  A    between atoms: C_16  and  C_19
REMARK    9  A    between atoms: C_19  and  C_25
REMARK                            x       y       z     vdW  Elec       q    Type
REMARK                         _______ _______ _______ _____ _____    ______ ____
ROOT
ATOM      2  O   UNL     1      -0.154   5.097  24.987  0.00  0.00    -0.275 OA
ATOM      6  N   UNL     1      -1.973   3.982  25.907  0.00  0.00    -0.301 N 
ATOM      8  C   UNL     1      -3.860   2.373  25.742  0.00  0.00    +0.016 C 
ATOM      9  C   UNL     1      -4.830   3.578  25.639  0.00  0.00    +0.006 C 
ATOM     10  C   UNL     1      -4.130   4.819  25.057  0.00  0.00    +0.023 C 
ATOM     11  C   UNL     1      -2.588   2.789  26.503  0.00  0.00    +0.112 C 
ATOM     12  C   UNL     1      -2.853   5.147  25.825  0.00  0.00    +0.108 C 
ATOM     16  C   UNL     1      -0.655   4.074  25.461  0.00  0.00    +0.220 C 
ENDROOT
BRANCH   8  13
ATOM     13  C   UNL     1      -3.491   1.753  24.388  0.00  0.00    +0.061 C 
BRANCH  13  15
ATOM      7  N   UNL     1      -3.573  -0.504  25.205  0.00  0.00    -0.287 NA
ATOM     15  C   UNL     1      -2.868   0.394  24.600  0.00  0.00    +0.044 C 
ATOM     17  C   UNL     1      -1.485   0.158  24.113  0.00  0.00    -0.001 A 
ATOM     20  C   UNL     1      -0.806  -0.943  24.651  0.00  0.00    -0.033 A 
ATOM     21  C   UNL     1      -1.502  -1.788  25.675  0.00  0.00    +0.059 C 
ATOM     22  C   UNL     1      -2.990  -1.842  25.356  0.00  0.00    +0.146 C 
ATOM     23  C   UNL     1      -0.862   0.987  23.177  0.00  0.00    +0.013 A 
ATOM     24  C   UNL     1       0.513  -1.196  24.265  0.00  0.00    +0.050 A 
ATOM     26  C   UNL     1       0.450   0.716  22.785  0.00  0.00    +0.046 A 
ATOM     27  C   UNL     1       1.137  -0.369  23.330  0.00  0.00    +0.120 A 
BRANCH  27   5
ATOM      5  O   UNL     1       2.420  -0.622  22.949  0.00  0.00    -0.495 OA
ATOM     31  C   UNL     1       3.255   0.507  22.695  0.00  0.00    +0.277 C 
ENDBRANCH  27   5
ENDBRANCH  13  15
ENDBRANCH   8  13
BRANCH   9  14
ATOM     14  C   UNL     1      -6.103   3.259  24.856  0.00  0.00    +0.124 C 
BRANCH  14  18
ATOM      4  O   UNL     1      -6.743   0.969  24.320  0.00  0.00    -0.251 OA
ATOM     18  C   UNL     1      -6.592   1.865  25.137  0.00  0.00    +0.305 C 
BRANCH  18   3
ATOM      3  O   UNL     1      -6.854   1.730  26.462  0.00  0.00    -0.481 OA
ATOM     32  H   UNL     1      -6.134   2.100  27.017  0.00  0.00    +0.295 HD
ENDBRANCH  18   3
ENDBRANCH  14  18
ENDBRANCH   9  14
BRANCH  16  19
ATOM     19  C   UNL     1       0.186   2.828  25.577  0.00  0.00    +0.138 C 
BRANCH  19  25
ATOM      1  S   UNL     1       0.061   1.899  28.187  0.00  0.00    -0.101 S 
ATOM     25  C   UNL     1       0.838   2.754  26.923  0.00  0.00    -0.001 A 
ATOM     28  C   UNL     1       2.036   3.301  27.326  0.00  0.00    +0.011 A 
ATOM     29  C   UNL     1       2.321   3.012  28.692  0.00  0.00    +0.008 A 
ATOM     30  C   UNL     1       1.331   2.258  29.280  0.00  0.00    +0.045 A 
ENDBRANCH  19  25
ENDBRANCH  16  19
TORSDOF 8
ENDMDL
MODEL 5
REMARK VINA RESULT:       3.3      1.483      1.915
REMARK  Name = 51136664
REMARK  9 active torsions:
REMARK  status: ('A' for Active; 'I' for Inactive)
REMARK    1  A    between atoms: O_3  and  C_18
REMARK    2  A    between atoms: O_5  and  C_27
REMARK    3  A    between atoms: O_5  and  C_31
REMARK    4  A    between atoms: C_8  and  C_13
REMARK    5  A    between atoms: C_9  and  C_14
REMARK    6  A    between atoms: C_13  and  C_15
REMARK    7  A    between atoms: C_14  and  C_18
REMARK    8  A    between atoms: C_16  and  C_19
REMARK    9  A    between atoms: C_19  and  C_25
REMARK                            x       y       z     vdW  Elec       q    Type
REMARK                         _______ _______ _______ _____ _____    ______ ____
ROOT
ATOM      2  O   UNL     1      -5.110   4.487  25.141  0.00  0.00    -0.275 OA
ATOM      6  N   UNL     1      -4.844   2.238  25.660  0.00  0.00    -0.301 N 
ATOM      8  C   UNL     1      -3.629   0.079  25.460  0.00  0.00    +0.016 C 
ATOM      9  C   UNL     1      -4.744  -0.418  24.505  0.00  0.00    +0.006 C 
ATOM     10  C   UNL     1      -5.433   0.753  23.782  0.00  0.00    +0.023 C 
ATOM     11  C   UNL     1      -4.193   1.154  26.407  0.00  0.00    +0.112 C 
ATOM     12  C   UNL     1      -5.924   1.805  24.773  0.00  0.00    +0.108 C 
ATOM     16  C   UNL     1      -4.530   3.592  25.761  0.00  0.00    +0.220 C 
ENDROOT
BRANCH   8  13
ATOM     13  C   UNL     1      -2.381   0.605  24.740  0.00  0.00    +0.061 C 
BRANCH  13  15
ATOM      7  N   UNL     1      -1.633  -1.638  25.164  0.00  0.00    -0.287 NA
ATOM     15  C   UNL     1      -1.342  -0.487  24.652  0.00  0.00    +0.044 C 
ATOM     17  C   UNL     1      -0.045  -0.189  23.993  0.00  0.00    -0.001 A 
ATOM     20  C   UNL     1       1.016  -1.063  24.262  0.00  0.00    -0.033 A 
ATOM     21  C   UNL     1       0.780  -2.215  25.194  0.00  0.00    +0.059 C 
ATOM     22  C   UNL     1      -0.648  -2.716  25.024  0.00  0.00    +0.146 C 
ATOM     23  C   UNL     1       0.140   0.911  23.153  0.00  0.00    +0.013 A 
ATOM     24  C   UNL     1       2.273  -0.815  23.706  0.00  0.00    +0.050 A 
ATOM     26  C   UNL     1       1.396   1.142  22.588  0.00  0.00    +0.046 A 
ATOM     27  C   UNL     1       2.460   0.283  22.866  0.00  0.00    +0.120 A 
BRANCH  27   5
ATOM      5  O   UNL     1       3.684   0.519  22.318  0.00  0.00    -0.495 OA
ATOM     31  C   UNL     1       4.818   0.359  23.170  0.00  0.00    +0.277 C 
ENDBRANCH  27   5
ENDBRANCH  13  15
ENDBRANCH   8  13
BRANCH   9  14
ATOM     14  C   UNL     1      -4.254  -1.460  23.500  0.00  0.00    +0.124 C 
BRANCH  14  18
ATOM      4  O   UNL     1      -4.263  -3.897  23.552  0.00  0.00    -0.251 OA
ATOM     18  C   UNL     1      -4.143  -2.824  24.123  0.00  0.00    +0.305 C 
BRANCH  18   3
ATOM      3  O   UNL     1      -3.885  -2.700  25.451  0.00  0.00    -0.481 OA
ATOM     32  H   UNL     1      -3.143  -3.275  25.734  0.00  0.00    +0.295 HD
ENDBRANCH  18   3
ENDBRANCH  14  18
ENDBRANCH   9  14
BRANCH  16  19
ATOM     19  C   UNL     1      -3.402   3.956  26.694  0.00  0.00    +0.138 C 
BRANCH  19  25
ATOM      1  S   UNL     1      -0.888   2.927  26.135  0.00  0.00    -0.101 S 
ATOM     25  C   UNL     1      -2.118   4.102  25.938  0.00  0.00    -0.001 A 
ATOM     28  C   UNL     1      -1.750   5.094  25.057  0.00  0.00    +0.011 A 
ATOM     29  C   UNL     1      -0.441   4.887  24.535  0.00  0.00    +0.008 A 
ATOM     30  C   UNL     1       0.142   3.745  25.038  0.00  0.00    +0.045 A 
ENDBRANCH  19  25
ENDBRANCH  16  19
TORSDOF 8
ENDMDL
MODEL 6
REMARK VINA RESULT:       3.3      2.293      5.001
REMARK  Name = 51136664
REMARK  9 active torsions:
REMARK  status: ('A' for Active; 'I' for Inactive)
REMARK    1  A    between atoms: O_3  and  C_18
REMARK    2  A    between atoms: O_5  and  C_27
REMARK    3  A    between atoms: O_5  and  C_31
REMARK    4  A    between atoms: C_8  and  C_13
REMARK    5  A    between atoms: C_9  and  C_14
REMARK    6  A    between atoms: C_13  and  C_15
REMARK    7  A    between atoms: C_14  and  C_18
REMARK    8  A    between atoms: C_16  and  C_19
REMARK    9  A    between atoms: C_19  and  C_25
REMARK                            x       y       z     vdW  Elec       q    Type
REMARK                         _______ _______ _______ _____ _____    ______ ____
ROOT
ATOM      2  O   UNL     1      -1.318  -1.503  25.300  0.00  0.00    -0.275 OA
ATOM      6  N   UNL     1      -2.689  -0.036  24.131  0.00  0.00    -0.301 N 
ATOM      8  C   UNL     1      -4.117   1.995  24.012  0.00  0.00    +0.016 C 
ATOM      9  C   UNL     1      -5.364   1.075  24.041  0.00  0.00    +0.006 C 
ATOM     10  C   UNL     1      -5.066  -0.260  24.747  0.00  0.00    +0.023 C 
ATOM     11  C   UNL     1      -2.918   1.231  23.423  0.00  0.00    +0.112 C 
ATOM     12  C   UNL     1      -3.838  -0.941  24.148  0.00  0.00    +0.108 C 
ATOM     16  C   UNL     1      -1.492  -0.421  24.733  0.00  0.00    +0.220 C 
ENDROOT
BRANCH   8  13
ATOM     13  C   UNL     1      -3.751   2.591  25.377  0.00  0.00    +0.061 C 
BRANCH  13  15
ATOM      7  N   UNL     1      -2.674   4.498  24.392  0.00  0.00    -0.287 NA
ATOM     15  C   UNL     1      -2.570   3.520  25.230  0.00  0.00    +0.044 C 
ATOM     17  C   UNL     1      -1.353   3.265  26.043  0.00  0.00    -0.001 A 
ATOM     20  C   UNL     1      -0.169   3.880  25.617  0.00  0.00    -0.033 A 
ATOM     21  C   UNL     1      -0.204   4.731  24.382  0.00  0.00    +0.059 C 
ATOM     22  C   UNL     1      -1.550   5.436  24.294  0.00  0.00    +0.146 C 
ATOM     23  C   UNL     1      -1.358   2.443  27.172  0.00  0.00    +0.013 A 
ATOM     24  C   UNL     1       1.019   3.648  26.315  0.00  0.00    +0.050 A 
ATOM     26  C   UNL     1      -0.170   2.230  27.872  0.00  0.00    +0.046 A 
ATOM     27  C   UNL     1       1.016   2.827  27.443  0.00  0.00    +0.120 A 
BRANCH  27   5
ATOM      5  O   UNL     1       2.173   2.608  28.127  0.00  0.00    -0.495 OA
ATOM     31  C   UNL     1       2.058   2.311  29.518  0.00  0.00    +0.277 C 
ENDBRANCH  27   5
ENDBRANCH  13  15
ENDBRANCH   8  13
BRANCH   9  14
ATOM     14  C   UNL     1      -6.592   1.746  24.655  0.00  0.00    +0.124 C 
BRANCH  14  18
ATOM      4  O   UNL     1      -6.259   1.480  27.055  0.00  0.00    -0.251 OA
ATOM     18  C   UNL     1      -6.332   2.194  26.067  0.00  0.00    +0.305 C 
BRANCH  18   3
ATOM      3  O   UNL     1      -6.184   3.544  26.099  0.00  0.00    -0.481 OA
ATOM     32  H   UNL     1      -5.243   3.807  26.189  0.00  0.00    +0.295 HD
ENDBRANCH  18   3
ENDBRANCH  14  18
ENDBRANCH   9  14
BRANCH  16  19
ATOM     19  C   UNL     1      -0.357   0.570  24.674  0.00  0.00    +0.138 C 
BRANCH  19  25
ATOM      1  S   UNL     1       2.145   0.908  23.527  0.00  0.00    -0.101 S 
ATOM     25  C   UNL     1       0.565   0.251  23.538  0.00  0.00    -0.001 A 
ATOM     28  C   UNL     1       0.323  -0.537  22.434  0.00  0.00    +0.011 A 
ATOM     29  C   UNL     1       1.452  -0.602  21.567  0.00  0.00    +0.008 A 
ATOM     30  C   UNL     1       2.512   0.138  22.041  0.00  0.00    +0.045 A 
ENDBRANCH  19  25
ENDBRANCH  16  19
TORSDOF 8
ENDMDL
MODEL 7
REMARK VINA RESULT:       3.7      2.129      5.582
REMARK  Name = 51136664
REMARK  9 active torsions:
REMARK  status: ('A' for Active; 'I' for Inactive)
REMARK    1  A    between atoms: O_3  and  C_18
REMARK    2  A    between atoms: O_5  and  C_27
REMARK    3  A    between atoms: O_5  and  C_31
REMARK    4  A    between atoms: C_8  and  C_13
REMARK    5  A    between atoms: C_9  and  C_14
REMARK    6  A    between atoms: C_13  and  C_15
REMARK    7  A    between atoms: C_14  and  C_18
REMARK    8  A    between atoms: C_16  and  C_19
REMARK    9  A    between atoms: C_19  and  C_25
REMARK                            x       y       z     vdW  Elec       q    Type
REMARK                         _______ _______ _______ _____ _____    ______ ____
ROOT
ATOM      2  O   UNL     1       0.713   4.015  23.495  0.00  0.00    -0.275 OA
ATOM      6  N   UNL     1      -1.004   3.828  25.049  0.00  0.00    -0.301 N 
ATOM      8  C   UNL     1      -3.154   2.850  25.821  0.00  0.00    +0.016 C 
ATOM      9  C   UNL     1      -3.859   4.168  25.411  0.00  0.00    +0.006 C 
ATOM     10  C   UNL     1      -3.094   4.893  24.290  0.00  0.00    +0.023 C 
ATOM     11  C   UNL     1      -1.676   3.127  26.151  0.00  0.00    +0.112 C 
ATOM     12  C   UNL     1      -1.626   5.093  24.660  0.00  0.00    +0.108 C 
ATOM     16  C   UNL     1       0.152   3.395  24.402  0.00  0.00    +0.220 C 
ENDROOT
BRANCH   8  13
ATOM     13  C   UNL     1      -3.266   1.733  24.775  0.00  0.00    +0.061 C 
BRANCH  13  15
ATOM      7  N   UNL     1      -1.552   0.662  26.074  0.00  0.00    -0.287 NA
ATOM     15  C   UNL     1      -2.548   0.498  25.266  0.00  0.00    +0.044 C 
ATOM     17  C   UNL     1      -3.011  -0.832  24.797  0.00  0.00    -0.001 A 
ATOM     20  C   UNL     1      -2.117  -1.900  24.945  0.00  0.00    -0.033 A 
ATOM     21  C   UNL     1      -0.768  -1.632  25.544  0.00  0.00    +0.059 C 
ATOM     22  C   UNL     1      -0.894  -0.540  26.598  0.00  0.00    +0.146 C 
ATOM     23  C   UNL     1      -4.266  -1.034  24.218  0.00  0.00    +0.013 A 
ATOM     24  C   UNL     1      -2.476  -3.170  24.486  0.00  0.00    +0.050 A 
ATOM     26  C   UNL     1      -4.622  -2.310  23.778  0.00  0.00    +0.046 A 
ATOM     27  C   UNL     1      -3.729  -3.374  23.908  0.00  0.00    +0.120 A 
BRANCH  27   5
ATOM      5  O   UNL     1      -4.081  -4.614  23.469  0.00  0.00    -0.495 OA
ATOM     31  C   UNL     1      -3.431  -5.095  22.293  0.00  0.00    +0.277 C 
ENDBRANCH  27   5
ENDBRANCH  13  15
ENDBRANCH   8  13
BRANCH   9  14
ATOM     14  C   UNL     1      -5.324   3.971  25.024  0.00  0.00    +0.124 C 
BRANCH  14  18
ATOM      4  O   UNL     1      -5.941   2.665  26.987  0.00  0.00    -0.251 OA
ATOM     18  C   UNL     1      -5.948   2.828  25.777  0.00  0.00    +0.305 C 
BRANCH  18   3
ATOM      3  O   UNL     1      -6.538   1.972  24.903  0.00  0.00    -0.481 OA
ATOM     32  H   UNL     1      -5.878   1.482  24.369  0.00  0.00    +0.295 HD
ENDBRANCH  18   3
ENDBRANCH  14  18
ENDBRANCH   9  14
BRANCH  16  19
ATOM     19  C   UNL     1       0.730   2.079  24.860  0.00  0.00    +0.138 C 
BRANCH  19  25
ATOM      1  S   UNL     1       2.642   0.981  23.177  0.00  0.00    -0.101 S 
ATOM     25  C   UNL     1       1.022   1.194  23.687  0.00  0.00    -0.001 A 
ATOM     28  C   UNL     1       0.135   0.484  22.907  0.00  0.00    +0.011 A 
ATOM     29  C   UNL     1       0.796  -0.246  21.878  0.00  0.00    +0.008 A 
ATOM     30  C   UNL     1       2.161  -0.066  21.909  0.00  0.00    +0.045 A 
ENDBRANCH  19  25
ENDBRANCH  16  19
TORSDOF 8
ENDMDL
MODEL 8
REMARK VINA RESULT:       4.2      2.649      4.548
REMARK  Name = 51136664
REMARK  9 active torsions:
REMARK  status: ('A' for Active; 'I' for Inactive)
REMARK    1  A    between atoms: O_3  and  C_18
REMARK    2  A    between atoms: O_5  and  C_27
REMARK    3  A    between atoms: O_5  and  C_31
REMARK    4  A    between atoms: C_8  and  C_13
REMARK    5  A    between atoms: C_9  and  C_14
REMARK    6  A    between atoms: C_13  and  C_15
REMARK    7  A    between atoms: C_14  and  C_18
REMARK    8  A    between atoms: C_16  and  C_19
REMARK    9  A    between atoms: C_19  and  C_25
REMARK                            x       y       z     vdW  Elec       q    Type
REMARK                         _______ _______ _______ _____ _____    ______ ____
ROOT
ATOM      2  O   UNL     1      -4.842   4.410  25.356  0.00  0.00    -0.275 OA
ATOM      6  N   UNL     1      -2.596   3.842  25.178  0.00  0.00    -0.301 N 
ATOM      8  C   UNL     1      -0.733   2.208  25.377  0.00  0.00    +0.016 C 
ATOM      9  C   UNL     1      -0.307   2.910  26.692  0.00  0.00    +0.006 C 
ATOM     10  C   UNL     1      -1.498   3.606  27.373  0.00  0.00    +0.023 C 
ATOM     11  C   UNL     1      -1.478   3.205  24.470  0.00  0.00    +0.112 C 
ATOM     12  C   UNL     1      -2.221   4.541  26.407  0.00  0.00    +0.108 C 
ATOM     16  C   UNL     1      -3.924   3.844  24.755  0.00  0.00    +0.220 C 
ENDROOT
BRANCH   8  13
ATOM     13  C   UNL     1      -1.581   0.947  25.591  0.00  0.00    +0.061 C 
BRANCH  13  15
ATOM      7  N   UNL     1      -1.314  -1.430  25.372  0.00  0.00    -0.287 NA
ATOM     15  C   UNL     1      -0.830  -0.265  25.093  0.00  0.00    +0.044 C 
ATOM     17  C   UNL     1       0.422  -0.062  24.319  0.00  0.00    -0.001 A 
ATOM     20  C   UNL     1       1.282  -1.163  24.211  0.00  0.00    -0.033 A 
ATOM     21  C   UNL     1       0.896  -2.447  24.884  0.00  0.00    +0.059 C 
ATOM     22  C   UNL     1      -0.617  -2.605  24.837  0.00  0.00    +0.146 C 
ATOM     23  C   UNL     1       0.757   1.159  23.730  0.00  0.00    +0.013 A 
ATOM     24  C   UNL     1       2.494  -1.027  23.530  0.00  0.00    +0.050 A 
ATOM     26  C   UNL     1       1.963   1.281  23.039  0.00  0.00    +0.046 A 
ATOM     27  C   UNL     1       2.831   0.192  22.942  0.00  0.00    +0.120 A 
BRANCH  27   5
ATOM      5  O   UNL     1       4.009   0.322  22.272  0.00  0.00    -0.495 OA
ATOM     31  C   UNL     1       5.207   0.156  23.029  0.00  0.00    +0.277 C 
ENDBRANCH  27   5
ENDBRANCH  13  15
ENDBRANCH   8  13
BRANCH   9  14
ATOM     14  C   UNL     1       0.402   1.974  27.670  0.00  0.00    +0.124 C 
BRANCH  14  18
ATOM      4  O   UNL     1       2.401   3.261  28.209  0.00  0.00    -0.251 OA
ATOM     18  C   UNL     1       1.361   2.720  28.556  0.00  0.00    +0.305 C 
BRANCH  18   3
ATOM      3  O   UNL     1       0.904   2.712  29.834  0.00  0.00    -0.481 OA
ATOM     32  H   UNL     1       1.345   2.024  30.376  0.00  0.00    +0.295 HD
ENDBRANCH  18   3
ENDBRANCH  14  18
ENDBRANCH   9  14
BRANCH  16  19
ATOM     19  C   UNL     1      -4.229   3.098  23.481  0.00  0.00    +0.138 C 
BRANCH  19  25
ATOM      1  S   UNL     1      -5.163   1.010  25.049  0.00  0.00    -0.101 S 
ATOM     25  C   UNL     1      -4.261   1.621  23.728  0.00  0.00    -0.001 A 
ATOM     28  C   UNL     1      -3.639   0.619  23.016  0.00  0.00    +0.011 A 
ATOM     29  C   UNL     1      -3.909  -0.669  23.562  0.00  0.00    +0.008 A 
ATOM     30  C   UNL     1      -4.724  -0.602  24.670  0.00  0.00    +0.045 A 
ENDBRANCH  19  25
ENDBRANCH  16  19
TORSDOF 8
ENDMDL
MODEL 9
REMARK VINA RESULT:       4.6      2.059      4.349
REMARK  Name = 51136664
REMARK  9 active torsions:
REMARK  status: ('A' for Active; 'I' for Inactive)
REMARK    1  A    between atoms: O_3  and  C_18
REMARK    2  A    between atoms: O_5  and  C_27
REMARK    3  A    between atoms: O_5  and  C_31
REMARK    4  A    between atoms: C_8  and  C_13
REMARK    5  A    between atoms: C_9  and  C_14
REMARK    6  A    between atoms: C_13  and  C_15
REMARK    7  A    between atoms: C_14  and  C_18
REMARK    8  A    between atoms: C_16  and  C_19
REMARK    9  A    between atoms: C_19  and  C_25
REMARK                            x       y       z     vdW  Elec       q    Type
REMARK                         _______ _______ _______ _____ _____    ______ ____
ROOT
ATOM      2  O   UNL     1      -7.252   1.295  25.874  0.00  0.00    -0.275 OA
ATOM      6  N   UNL     1      -5.506   2.305  24.722  0.00  0.00    -0.301 N 
ATOM      8  C   UNL     1      -3.082   2.652  24.295  0.00  0.00    +0.016 C 
ATOM      9  C   UNL     1      -3.179   4.002  25.049  0.00  0.00    +0.006 C 
ATOM     10  C   UNL     1      -4.326   3.995  26.075  0.00  0.00    +0.023 C 
ATOM     11  C   UNL     1      -4.453   2.286  23.698  0.00  0.00    +0.112 C 
ATOM     12  C   UNL     1      -5.645   3.578  25.431  0.00  0.00    +0.108 C 
ATOM     16  C   UNL     1      -6.358   1.245  25.025  0.00  0.00    +0.220 C 
ENDROOT
BRANCH   8  13
ATOM     13  C   UNL     1      -2.549   1.496  25.152  0.00  0.00    +0.061 C 
BRANCH  13  15
ATOM      7  N   UNL     1      -0.764   2.336  26.521  0.00  0.00    -0.287 NA
ATOM     15  C   UNL     1      -1.082   1.706  25.438  0.00  0.00    +0.044 C 
ATOM     17  C   UNL     1      -0.083   1.187  24.469  0.00  0.00    -0.001 A 
ATOM     20  C   UNL     1       1.211   1.719  24.551  0.00  0.00    -0.033 A 
ATOM     21  C   UNL     1       1.494   2.768  25.585  0.00  0.00    +0.059 C 
ATOM     22  C   UNL     1       0.663   2.486  26.829  0.00  0.00    +0.146 C 
ATOM     23  C   UNL     1      -0.395   0.228  23.503  0.00  0.00    +0.013 A 
ATOM     24  C   UNL     1       2.186   1.303  23.641  0.00  0.00    +0.050 A 
ATOM     26  C   UNL     1       0.591  -0.193  22.609  0.00  0.00    +0.046 A 
ATOM     27  C   UNL     1       1.877   0.345  22.676  0.00  0.00    +0.120 A 
BRANCH  27   5
ATOM      5  O   UNL     1       2.831  -0.065  21.795  0.00  0.00    -0.495 OA
ATOM     31  C   UNL     1       4.178   0.312  22.076  0.00  0.00    +0.277 C 
ENDBRANCH  27   5
ENDBRANCH  13  15
ENDBRANCH   8  13
BRANCH   9  14
ATOM     14  C   UNL     1      -1.866   4.417  25.711  0.00  0.00    +0.124 C 
BRANCH  14  18
ATOM      4  O   UNL     1      -0.149   4.927  24.058  0.00  0.00    -0.251 OA
ATOM     18  C   UNL     1      -1.041   5.292  24.808  0.00  0.00    +0.305 C 
BRANCH  18   3
ATOM      3  O   UNL     1      -1.433   6.585  24.941  0.00  0.00    -0.481 OA
ATOM     32  H   UNL     1      -2.055   6.703  25.691  0.00  0.00    +0.295 HD
ENDBRANCH  18   3
ENDBRANCH  14  18
ENDBRANCH   9  14
BRANCH  16  19
ATOM     19  C   UNL     1      -6.147  -0.033  24.253  0.00  0.00    +0.138 C 
BRANCH  19  25
ATOM      1  S   UNL     1      -4.152  -1.877  23.695  0.00  0.00    -0.101 S 
ATOM     25  C   UNL     1      -4.909  -0.734  24.721  0.00  0.00    -0.001 A 
ATOM     28  C   UNL     1      -4.247  -0.595  25.920  0.00  0.00    +0.011 A 
ATOM     29  C   UNL     1      -3.100  -1.437  25.998  0.00  0.00    +0.008 A 
ATOM     30  C   UNL     1      -2.931  -2.188  24.856  0.00  0.00    +0.045 A 
ENDBRANCH  19  25
ENDBRANCH  16  19
TORSDOF 8
ENDMDL
MODEL 10
REMARK VINA RESULT:       5.4      2.129      6.853
REMARK  Name = 51136664
REMARK  9 active torsions:
REMARK  status: ('A' for Active; 'I' for Inactive)
REMARK    1  A    between atoms: O_3  and  C_18
REMARK    2  A    between atoms: O_5  and  C_27
REMARK    3  A    between atoms: O_5  and  C_31
REMARK    4  A    between atoms: C_8  and  C_13
REMARK    5  A    between atoms: C_9  and  C_14
REMARK    6  A    between atoms: C_13  and  C_15
REMARK    7  A    between atoms: C_14  and  C_18
REMARK    8  A    between atoms: C_16  and  C_19
REMARK    9  A    between atoms: C_19  and  C_25
REMARK                            x       y       z     vdW  Elec       q    Type
REMARK                         _______ _______ _______ _____ _____    ______ ____
ROOT
ATOM      2  O   UNL     1      -1.437  -2.904  24.154  0.00  0.00    -0.275 OA
ATOM      6  N   UNL     1      -0.115  -1.121  24.839  0.00  0.00    -0.301 N 
ATOM      8  C   UNL     1       0.696   1.216  24.599  0.00  0.00    +0.016 C 
ATOM      9  C   UNL     1       2.008   0.660  23.989  0.00  0.00    +0.006 C 
ATOM     10  C   UNL     1       1.785  -0.709  23.322  0.00  0.00    +0.023 C 
ATOM     11  C   UNL     1       0.064   0.164  25.527  0.00  0.00    +0.112 C 
ATOM     12  C   UNL     1       1.112  -1.689  24.279  0.00  0.00    +0.108 C 
ATOM     16  C   UNL     1      -1.319  -1.812  24.716  0.00  0.00    +0.220 C 
ENDROOT
BRANCH   8  13
ATOM     13  C   UNL     1      -0.325   1.688  23.556  0.00  0.00    +0.061 C 
BRANCH  13  15
ATOM      7  N   UNL     1      -0.204   4.054  23.948  0.00  0.00    -0.287 NA
ATOM     15  C   UNL     1      -0.941   2.994  23.996  0.00  0.00    +0.044 C 
ATOM     17  C   UNL     1      -2.351   2.998  24.465  0.00  0.00    -0.001 A 
ATOM     20  C   UNL     1      -2.763   4.107  25.215  0.00  0.00    -0.033 A 
ATOM     21  C   UNL     1      -1.769   5.192  25.502  0.00  0.00    +0.059 C 
ATOM     22  C   UNL     1      -0.821   5.333  24.319  0.00  0.00    +0.146 C 
ATOM     23  C   UNL     1      -3.238   1.953  24.198  0.00  0.00    +0.013 A 
ATOM     24  C   UNL     1      -4.066   4.152  25.720  0.00  0.00    +0.050 A 
ATOM     26  C   UNL     1      -4.542   2.015  24.694  0.00  0.00    +0.046 A 
ATOM     27  C   UNL     1      -4.953   3.109  25.455  0.00  0.00    +0.120 A 
BRANCH  27   5
ATOM      5  O   UNL     1      -6.224   3.159  25.941  0.00  0.00    -0.495 OA
ATOM     31  C   UNL     1      -6.738   1.968  26.536  0.00  0.00    +0.277 C 
ENDBRANCH  27   5
ENDBRANCH  13  15
ENDBRANCH   8  13
BRANCH   9  14
ATOM     14  C   UNL     1       2.677   1.631  23.017  0.00  0.00    +0.124 C 
BRANCH  14  18
ATOM      4  O   UNL     1       5.009   0.928  23.110  0.00  0.00    -0.251 OA
ATOM     18  C   UNL     1       3.971   1.079  22.484  0.00  0.00    +0.305 C 
BRANCH  18   3
ATOM      3  O   UNL     1       3.828   0.762  21.172  0.00  0.00    -0.481 OA
ATOM     32  H   UNL     1       4.694   0.628  20.731  0.00  0.00    +0.295 HD
ENDBRANCH  18   3
ENDBRANCH  14  18
ENDBRANCH   9  14
BRANCH  16  19
ATOM     19  C   UNL     1      -2.537  -1.157  25.317  0.00  0.00    +0.138 C 
BRANCH  19  25
ATOM      1  S   UNL     1      -3.910  -3.221  24.071  0.00  0.00    -0.101 S 
ATOM     25  C   UNL     1      -3.779  -1.599  24.605  0.00  0.00    -0.001 A 
ATOM     28  C   UNL     1      -4.898  -0.859  24.293  0.00  0.00    +0.011 A 
ATOM     29  C   UNL     1      -5.877  -1.634  23.608  0.00  0.00    +0.008 A 
ATOM     30  C   UNL     1      -5.469  -2.936  23.421  0.00  0.00    +0.045 A 
ENDBRANCH  19  25
ENDBRANCH  16  19
TORSDOF 8
ENDMDL
