MODEL 1
REMARK VINA RESULT:      -1.6      0.000      0.000
REMARK  Name = 51136672
REMARK  10 active torsions:
REMARK  status: ('A' for Active; 'I' for Inactive)
REMARK    1  A    between atoms: O_2  and  C_18
REMARK    2  A    between atoms: O_4  and  C_26
REMARK    3  A    between atoms: O_4  and  C_29
REMARK    4  A    between atoms: N_7  and  C_23
REMARK    5  A    between atoms: C_8  and  C_13
REMARK    6  A    between atoms: C_9  and  C_14
REMARK    7  A    between atoms: C_13  and  C_15
REMARK    8  A    between atoms: C_14  and  C_18
REMARK    9  A    between atoms: C_23  and  C_27
REMARK   10  A    between atoms: C_23  and  C_28
REMARK                            x       y       z     vdW  Elec       q    Type
REMARK                         _______ _______ _______ _____ _____    ______ ____
ROOT
ATOM      1  O   UNL     1      13.325 -10.636  28.230  0.00  0.00    -0.253 OA
ATOM      5  N   UNL     1      15.499  -9.838  28.111  0.00  0.00    -0.285 N 
ATOM      7  N   UNL     1      14.365 -10.015  30.177  0.00  0.00    -0.297 N 
ATOM      8  C   UNL     1      17.071  -7.921  28.125  0.00  0.00    +0.016 C 
ATOM      9  C   UNL     1      17.127  -8.001  26.577  0.00  0.00    +0.006 C 
ATOM     10  C   UNL     1      15.857  -8.643  25.992  0.00  0.00    +0.023 C 
ATOM     11  C   UNL     1      16.737  -9.309  28.701  0.00  0.00    +0.113 C 
ATOM     12  C   UNL     1      15.551  -9.985  26.655  0.00  0.00    +0.109 C 
ATOM     16  C   UNL     1      14.329 -10.196  28.800  0.00  0.00    +0.302 C 
ATOM     30  H   UNL     1      15.122  -9.508  30.616  0.00  0.00    +0.150 HD
ENDROOT
BRANCH   7  23
ATOM     23  C   UNL     1      13.235 -10.329  31.024  0.00  0.00    +0.068 C 
ATOM     27  C   UNL     1      12.220  -9.195  30.994  0.00  0.00    +0.027 C 
ATOM     28  C   UNL     1      13.698 -10.619  32.446  0.00  0.00    +0.027 C 
ENDBRANCH   7  23
BRANCH   8  13
ATOM     13  C   UNL     1      16.094  -6.870  28.662  0.00  0.00    +0.061 C 
BRANCH  13  15
ATOM      6  N   UNL     1      16.157  -7.739  30.900  0.00  0.00    -0.287 NA
ATOM     15  C   UNL     1      16.292  -6.696  30.149  0.00  0.00    +0.044 C 
ATOM     17  C   UNL     1      16.622  -5.347  30.674  0.00  0.00    -0.001 A 
ATOM     19  C   UNL     1      16.420  -5.136  32.044  0.00  0.00    -0.033 A 
ATOM     20  C   UNL     1      15.878  -6.261  32.873  0.00  0.00    +0.059 C 
ATOM     21  C   UNL     1      16.410  -7.584  32.336  0.00  0.00    +0.146 C 
ATOM     22  C   UNL     1      17.099  -4.316  29.861  0.00  0.00    +0.013 A 
ATOM     24  C   UNL     1      16.672  -3.876  32.592  0.00  0.00    +0.050 A 
ATOM     25  C   UNL     1      17.364  -3.066  30.422  0.00  0.00    +0.046 A 
ATOM     26  C   UNL     1      17.149  -2.845  31.783  0.00  0.00    +0.120 A 
BRANCH  26   4
ATOM      4  O   UNL     1      17.403  -1.620  32.320  0.00  0.00    -0.495 OA
ATOM     29  C   UNL     1      16.283  -0.877  32.800  0.00  0.00    +0.277 C 
ENDBRANCH  26   4
ENDBRANCH  13  15
ENDBRANCH   8  13
BRANCH   9  14
ATOM     14  C   UNL     1      17.401  -6.650  25.917  0.00  0.00    +0.124 C 
BRANCH  14  18
ATOM      3  O   UNL     1      17.186  -7.724  23.738  0.00  0.00    -0.251 OA
ATOM     18  C   UNL     1      17.218  -6.713  24.425  0.00  0.00    +0.305 C 
BRANCH  18   2
ATOM      2  O   UNL     1      17.087  -5.457  23.926  0.00  0.00    -0.481 OA
ATOM     31  H   UNL     1      17.613  -4.804  24.435  0.00  0.00    +0.295 HD
ENDBRANCH  18   2
ENDBRANCH  14  18
ENDBRANCH   9  14
TORSDOF 7
ENDMDL
MODEL 2
REMARK VINA RESULT:      -0.1     18.868     20.228
REMARK  Name = 51136672
REMARK  10 active torsions:
REMARK  status: ('A' for Active; 'I' for Inactive)
REMARK    1  A    between atoms: O_2  and  C_18
REMARK    2  A    between atoms: O_4  and  C_26
REMARK    3  A    between atoms: O_4  and  C_29
REMARK    4  A    between atoms: N_7  and  C_23
REMARK    5  A    between atoms: C_8  and  C_13
REMARK    6  A    between atoms: C_9  and  C_14
REMARK    7  A    between atoms: C_13  and  C_15
REMARK    8  A    between atoms: C_14  and  C_18
REMARK    9  A    between atoms: C_23  and  C_27
REMARK   10  A    between atoms: C_23  and  C_28
REMARK                            x       y       z     vdW  Elec       q    Type
REMARK                         _______ _______ _______ _____ _____    ______ ____
ROOT
ATOM      1  O   UNL     1      -1.657  -2.894  23.801  0.00  0.00    -0.253 OA
ATOM      5  N   UNL     1      -0.343  -1.201  24.687  0.00  0.00    -0.285 N 
ATOM      7  N   UNL     1      -2.686  -1.230  24.998  0.00  0.00    -0.297 N 
ATOM      8  C   UNL     1       0.506   1.124  24.567  0.00  0.00    +0.016 C 
ATOM      9  C   UNL     1       1.817   0.577  23.943  0.00  0.00    +0.006 C 
ATOM     10  C   UNL     1       1.591  -0.770  23.231  0.00  0.00    +0.023 C 
ATOM     11  C   UNL     1      -0.138   0.039  25.448  0.00  0.00    +0.113 C 
ATOM     12  C   UNL     1       0.890  -1.775  24.144  0.00  0.00    +0.109 C 
ATOM     16  C   UNL     1      -1.567  -1.848  24.454  0.00  0.00    +0.302 C 
ATOM     30  H   UNL     1      -2.627  -0.299  25.388  0.00  0.00    +0.150 HD
ENDROOT
BRANCH   7  23
ATOM     23  C   UNL     1      -4.018  -1.769  24.836  0.00  0.00    +0.068 C 
ATOM     27  C   UNL     1      -4.000  -3.283  25.001  0.00  0.00    +0.027 C 
ATOM     28  C   UNL     1      -4.596  -1.367  23.485  0.00  0.00    +0.027 C 
ENDBRANCH   7  23
BRANCH   8  13
ATOM     13  C   UNL     1      -0.503   1.649  23.540  0.00  0.00    +0.061 C 
BRANCH  13  15
ATOM      6  N   UNL     1      -0.442   3.990  24.071  0.00  0.00    -0.287 NA
ATOM     15  C   UNL     1      -1.152   2.911  24.056  0.00  0.00    +0.044 C 
ATOM     17  C   UNL     1      -2.561   2.851  24.524  0.00  0.00    -0.001 A 
ATOM     19  C   UNL     1      -3.001   3.903  25.336  0.00  0.00    -0.033 A 
ATOM     20  C   UNL     1      -2.035   4.994  25.688  0.00  0.00    +0.059 C 
ATOM     21  C   UNL     1      -1.091   5.228  24.515  0.00  0.00    +0.146 C 
ATOM     22  C   UNL     1      -3.421   1.801  24.195  0.00  0.00    +0.013 A 
ATOM     24  C   UNL     1      -4.303   3.886  25.843  0.00  0.00    +0.050 A 
ATOM     25  C   UNL     1      -4.725   1.801  24.693  0.00  0.00    +0.046 A 
ATOM     26  C   UNL     1      -5.164   2.838  25.517  0.00  0.00    +0.120 A 
BRANCH  26   4
ATOM      4  O   UNL     1      -6.436   2.826  26.004  0.00  0.00    -0.495 OA
ATOM     29  C   UNL     1      -6.773   1.778  26.912  0.00  0.00    +0.277 C 
ENDBRANCH  26   4
ENDBRANCH  13  15
ENDBRANCH   8  13
BRANCH   9  14
ATOM     14  C   UNL     1       2.497   1.574  23.006  0.00  0.00    +0.124 C 
BRANCH  14  18
ATOM      3  O   UNL     1       4.845   1.000  23.329  0.00  0.00    -0.251 OA
ATOM     18  C   UNL     1       3.869   1.109  22.601  0.00  0.00    +0.305 C 
BRANCH  18   2
ATOM      2  O   UNL     1       3.881   0.816  21.275  0.00  0.00    -0.481 OA
ATOM     31  H   UNL     1       4.184   1.576  20.735  0.00  0.00    +0.295 HD
ENDBRANCH  18   2
ENDBRANCH  14  18
ENDBRANCH   9  14
TORSDOF 7
ENDMDL
MODEL 3
REMARK VINA RESULT:       1.1     18.842     20.397
REMARK  Name = 51136672
REMARK  10 active torsions:
REMARK  status: ('A' for Active; 'I' for Inactive)
REMARK    1  A    between atoms: O_2  and  C_18
REMARK    2  A    between atoms: O_4  and  C_26
REMARK    3  A    between atoms: O_4  and  C_29
REMARK    4  A    between atoms: N_7  and  C_23
REMARK    5  A    between atoms: C_8  and  C_13
REMARK    6  A    between atoms: C_9  and  C_14
REMARK    7  A    between atoms: C_13  and  C_15
REMARK    8  A    between atoms: C_14  and  C_18
REMARK    9  A    between atoms: C_23  and  C_27
REMARK   10  A    between atoms: C_23  and  C_28
REMARK                            x       y       z     vdW  Elec       q    Type
REMARK                         _______ _______ _______ _____ _____    ______ ____
ROOT
ATOM      1  O   UNL     1      -5.828   0.176  25.297  0.00  0.00    -0.253 OA
ATOM      5  N   UNL     1      -4.358   1.592  24.196  0.00  0.00    -0.285 N 
ATOM      7  N   UNL     1      -4.095  -0.756  24.119  0.00  0.00    -0.297 N 
ATOM      8  C   UNL     1      -2.159   2.733  24.106  0.00  0.00    +0.016 C 
ATOM      9  C   UNL     1      -2.846   4.023  24.627  0.00  0.00    +0.006 C 
ATOM     10  C   UNL     1      -4.121   3.706  25.429  0.00  0.00    +0.023 C 
ATOM     11  C   UNL     1      -3.187   1.870  23.353  0.00  0.00    +0.113 C 
ATOM     12  C   UNL     1      -5.063   2.794  24.646  0.00  0.00    +0.109 C 
ATOM     16  C   UNL     1      -4.830   0.328  24.583  0.00  0.00    +0.302 C 
ATOM     30  H   UNL     1      -3.196  -0.622  23.675  0.00  0.00    +0.150 HD
ENDROOT
BRANCH   7  23
ATOM     23  C   UNL     1      -4.449  -2.120  24.440  0.00  0.00    +0.068 C 
ATOM     27  C   UNL     1      -3.515  -2.673  25.507  0.00  0.00    +0.027 C 
ATOM     28  C   UNL     1      -4.430  -2.986  23.186  0.00  0.00    +0.027 C 
ENDBRANCH   7  23
BRANCH   8  13
ATOM     13  C   UNL     1      -1.466   1.910  25.198  0.00  0.00    +0.061 C 
BRANCH  13  15
ATOM      6  N   UNL     1      -1.581  -0.425  24.648  0.00  0.00    -0.287 NA
ATOM     15  C   UNL     1      -0.876   0.656  24.598  0.00  0.00    +0.044 C 
ATOM     17  C   UNL     1       0.479   0.722  23.990  0.00  0.00    -0.001 A 
ATOM     19  C   UNL     1       1.145  -0.495  23.801  0.00  0.00    -0.033 A 
ATOM     20  C   UNL     1       0.468  -1.762  24.230  0.00  0.00    +0.059 C 
ATOM     21  C   UNL     1      -1.034  -1.628  24.012  0.00  0.00    +0.146 C 
ATOM     22  C   UNL     1       1.085   1.927  23.630  0.00  0.00    +0.013 A 
ATOM     24  C   UNL     1       2.438  -0.498  23.271  0.00  0.00    +0.050 A 
ATOM     25  C   UNL     1       2.371   1.913  23.086  0.00  0.00    +0.046 A 
ATOM     26  C   UNL     1       3.047   0.705  22.910  0.00  0.00    +0.120 A 
BRANCH  26   4
ATOM      4  O   UNL     1       4.304   0.700  22.387  0.00  0.00    -0.495 OA
ATOM     29  C   UNL     1       5.339   0.132  23.188  0.00  0.00    +0.277 C 
ENDBRANCH  26   4
ENDBRANCH  13  15
ENDBRANCH   8  13
BRANCH   9  14
ATOM     14  C   UNL     1      -1.907   4.916  25.437  0.00  0.00    +0.124 C 
BRANCH  14  18
ATOM      3  O   UNL     1      -0.126   5.458  23.863  0.00  0.00    -0.251 OA
ATOM     18  C   UNL     1      -0.509   4.902  24.882  0.00  0.00    +0.305 C 
BRANCH  18   2
ATOM      2  O   UNL     1       0.296   4.164  25.688  0.00  0.00    -0.481 OA
ATOM     31  H   UNL     1       0.802   4.726  26.313  0.00  0.00    +0.295 HD
ENDBRANCH  18   2
ENDBRANCH  14  18
ENDBRANCH   9  14
TORSDOF 7
ENDMDL
MODEL 4
REMARK VINA RESULT:       1.5     19.130     20.917
REMARK  Name = 51136672
REMARK  10 active torsions:
REMARK  status: ('A' for Active; 'I' for Inactive)
REMARK    1  A    between atoms: O_2  and  C_18
REMARK    2  A    between atoms: O_4  and  C_26
REMARK    3  A    between atoms: O_4  and  C_29
REMARK    4  A    between atoms: N_7  and  C_23
REMARK    5  A    between atoms: C_8  and  C_13
REMARK    6  A    between atoms: C_9  and  C_14
REMARK    7  A    between atoms: C_13  and  C_15
REMARK    8  A    between atoms: C_14  and  C_18
REMARK    9  A    between atoms: C_23  and  C_27
REMARK   10  A    between atoms: C_23  and  C_28
REMARK                            x       y       z     vdW  Elec       q    Type
REMARK                         _______ _______ _______ _____ _____    ______ ____
ROOT
ATOM      1  O   UNL     1      -5.166   4.034  24.417  0.00  0.00    -0.253 OA
ATOM      5  N   UNL     1      -4.549   2.000  25.347  0.00  0.00    -0.285 N 
ATOM      7  N   UNL     1      -3.095   3.863  25.389  0.00  0.00    -0.297 N 
ATOM      8  C   UNL     1      -3.271  -0.117  25.188  0.00  0.00    +0.016 C 
ATOM      9  C   UNL     1      -4.577  -0.832  24.750  0.00  0.00    +0.006 C 
ATOM     10  C   UNL     1      -5.571   0.145  24.098  0.00  0.00    +0.023 C 
ATOM     11  C   UNL     1      -3.619   1.108  26.051  0.00  0.00    +0.113 C 
ATOM     12  C   UNL     1      -5.818   1.366  24.982  0.00  0.00    +0.109 C 
ATOM     16  C   UNL     1      -4.329   3.346  25.013  0.00  0.00    +0.302 C 
ATOM     30  H   UNL     1      -2.359   3.258  25.728  0.00  0.00    +0.150 HD
ENDROOT
BRANCH   7  23
ATOM     23  C   UNL     1      -2.716   5.230  25.108  0.00  0.00    +0.068 C 
ATOM     27  C   UNL     1      -3.345   5.696  23.802  0.00  0.00    +0.027 C 
ATOM     28  C   UNL     1      -1.199   5.367  25.071  0.00  0.00    +0.027 C 
ENDBRANCH   7  23
BRANCH   8  13
ATOM     13  C   UNL     1      -2.361   0.289  24.023  0.00  0.00    +0.061 C 
BRANCH  13  15
ATOM      6  N   UNL     1      -1.229   1.703  25.600  0.00  0.00    -0.287 NA
ATOM     15  C   UNL     1      -1.114   0.953  24.554  0.00  0.00    +0.044 C 
ATOM     17  C   UNL     1       0.175   0.722  23.851  0.00  0.00    -0.001 A 
ATOM     19  C   UNL     1       1.209   1.629  24.116  0.00  0.00    -0.033 A 
ATOM     20  C   UNL     1       0.949   2.762  25.061  0.00  0.00    +0.059 C 
ATOM     21  C   UNL     1      -0.008   2.298  26.152  0.00  0.00    +0.146 C 
ATOM     22  C   UNL     1       0.367  -0.332  22.956  0.00  0.00    +0.013 A 
ATOM     24  C   UNL     1       2.433   1.490  23.455  0.00  0.00    +0.050 A 
ATOM     25  C   UNL     1       1.598  -0.471  22.313  0.00  0.00    +0.046 A 
ATOM     26  C   UNL     1       2.628   0.439  22.560  0.00  0.00    +0.120 A 
BRANCH  26   4
ATOM      4  O   UNL     1       3.823   0.300  21.923  0.00  0.00    -0.495 OA
ATOM     29  C   UNL     1       4.984   0.175  22.743  0.00  0.00    +0.277 C 
ENDBRANCH  26   4
ENDBRANCH  13  15
ENDBRANCH   8  13
BRANCH   9  14
ATOM     14  C   UNL     1      -4.326  -2.034  23.840  0.00  0.00    +0.124 C 
BRANCH  14  18
ATOM      3  O   UNL     1      -2.126  -3.080  23.729  0.00  0.00    -0.251 OA
ATOM     18  C   UNL     1      -3.171  -2.867  24.326  0.00  0.00    +0.305 C 
BRANCH  18   2
ATOM      2  O   UNL     1      -3.453  -3.368  25.556  0.00  0.00    -0.481 OA
ATOM     31  H   UNL     1      -2.829  -4.080  25.813  0.00  0.00    +0.295 HD
ENDBRANCH  18   2
ENDBRANCH  14  18
ENDBRANCH   9  14
TORSDOF 7
ENDMDL
MODEL 5
REMARK VINA RESULT:       2.0     18.646     20.216
REMARK  Name = 51136672
REMARK  10 active torsions:
REMARK  status: ('A' for Active; 'I' for Inactive)
REMARK    1  A    between atoms: O_2  and  C_18
REMARK    2  A    between atoms: O_4  and  C_26
REMARK    3  A    between atoms: O_4  and  C_29
REMARK    4  A    between atoms: N_7  and  C_23
REMARK    5  A    between atoms: C_8  and  C_13
REMARK    6  A    between atoms: C_9  and  C_14
REMARK    7  A    between atoms: C_13  and  C_15
REMARK    8  A    between atoms: C_14  and  C_18
REMARK    9  A    between atoms: C_23  and  C_27
REMARK   10  A    between atoms: C_23  and  C_28
REMARK                            x       y       z     vdW  Elec       q    Type
REMARK                         _______ _______ _______ _____ _____    ______ ____
ROOT
ATOM      1  O   UNL     1       3.498  -1.551  23.908  0.00  0.00    -0.253 OA
ATOM      5  N   UNL     1       1.354  -0.912  23.296  0.00  0.00    -0.285 N 
ATOM      7  N   UNL     1       3.201   0.534  23.000  0.00  0.00    -0.297 N 
ATOM      8  C   UNL     1      -0.708   0.375  23.782  0.00  0.00    +0.016 C 
ATOM      9  C   UNL     1      -1.360  -0.933  24.302  0.00  0.00    +0.006 C 
ATOM     10  C   UNL     1      -0.305  -1.942  24.790  0.00  0.00    +0.023 C 
ATOM     11  C   UNL     1       0.374   0.034  22.743  0.00  0.00    +0.113 C 
ATOM     12  C   UNL     1       0.772  -2.182  23.733  0.00  0.00    +0.109 C 
ATOM     16  C   UNL     1       2.736  -0.703  23.431  0.00  0.00    +0.302 C 
ATOM     30  H   UNL     1       2.558   1.277  22.764  0.00  0.00    +0.150 HD
ENDROOT
BRANCH   7  23
ATOM     23  C   UNL     1       4.597   0.902  23.082  0.00  0.00    +0.068 C 
ATOM     27  C   UNL     1       5.429   0.037  22.145  0.00  0.00    +0.027 C 
ATOM     28  C   UNL     1       5.094   0.796  24.519  0.00  0.00    +0.027 C 
ENDBRANCH   7  23
BRANCH   8  13
ATOM     13  C   UNL     1      -0.128   1.266  24.887  0.00  0.00    +0.061 C 
BRANCH  13  15
ATOM      6  N   UNL     1       0.241   3.578  24.354  0.00  0.00    -0.287 NA
ATOM     15  C   UNL     1      -0.618   2.683  24.713  0.00  0.00    +0.044 C 
ATOM     17  C   UNL     1      -2.052   2.981  24.967  0.00  0.00    -0.001 A 
ATOM     19  C   UNL     1      -2.390   4.324  25.176  0.00  0.00    -0.033 A 
ATOM     20  C   UNL     1      -1.301   5.354  25.146  0.00  0.00    +0.059 C 
ATOM     21  C   UNL     1      -0.247   4.942  24.126  0.00  0.00    +0.146 C 
ATOM     22  C   UNL     1      -3.032   1.987  25.013  0.00  0.00    +0.013 A 
ATOM     24  C   UNL     1      -3.714   4.665  25.460  0.00  0.00    +0.050 A 
ATOM     25  C   UNL     1      -4.355   2.340  25.282  0.00  0.00    +0.046 A 
ATOM     26  C   UNL     1      -4.696   3.675  25.507  0.00  0.00    +0.120 A 
BRANCH  26   4
ATOM      4  O   UNL     1      -5.988   4.010  25.776  0.00  0.00    -0.495 OA
ATOM     29  C   UNL     1      -6.408   5.323  25.407  0.00  0.00    +0.277 C 
ENDBRANCH  26   4
ENDBRANCH  13  15
ENDBRANCH   8  13
BRANCH   9  14
ATOM     14  C   UNL     1      -2.413  -0.690  25.382  0.00  0.00    +0.124 C 
BRANCH  14  18
ATOM      3  O   UNL     1      -4.686  -0.988  24.552  0.00  0.00    -0.251 OA
ATOM     18  C   UNL     1      -3.687  -1.437  25.094  0.00  0.00    +0.305 C 
BRANCH  18   2
ATOM      2  O   UNL     1      -3.576  -2.717  25.530  0.00  0.00    -0.481 OA
ATOM     31  H   UNL     1      -3.751  -2.793  26.492  0.00  0.00    +0.295 HD
ENDBRANCH  18   2
ENDBRANCH  14  18
ENDBRANCH   9  14
TORSDOF 7
ENDMDL
