MODEL 1
REMARK VINA RESULT:      -5.9      0.000      0.000
REMARK  Name = 56775249
REMARK  3 active torsions:
REMARK  status: ('A' for Active; 'I' for Inactive)
REMARK    1  A    between atoms: N_5  and  C_13
REMARK    2  A    between atoms: C_13  and  C_15
REMARK    3  A    between atoms: C_14  and  C_16
REMARK                            x       y       z     vdW  Elec       q    Type
REMARK                         _______ _______ _______ _____ _____    ______ ____
ROOT
ATOM      1  O   UNL     1       0.218   1.536  25.304  0.00  0.00    -0.364 OA
ATOM      2  O   UNL     1      -1.478   4.657  25.501  0.00  0.00    -0.273 OA
ATOM      3  O   UNL     1      -1.100  -3.003  24.789  0.00  0.00    -0.276 OA
ATOM      4  N   UNL     1      -1.514  -0.755  24.454  0.00  0.00    -0.297 N 
ATOM      5  N   UNL     1      -1.921   2.848  24.107  0.00  0.00    -0.288 N 
ATOM      7  C   UNL     1      -1.584   1.488  23.708  0.00  0.00    +0.124 C 
ATOM      8  C   UNL     1      -0.134   1.101  23.992  0.00  0.00    +0.158 C 
ATOM      9  C   UNL     1      -2.373   0.425  24.477  0.00  0.00    +0.133 C 
ATOM     10  C   UNL     1      -0.173  -0.422  23.984  0.00  0.00    +0.141 C 
ATOM     11  C   UNL     1      -1.164   3.562  25.032  0.00  0.00    +0.242 C 
ATOM     12  C   UNL     1       0.175   2.942  25.391  0.00  0.00    +0.256 C 
ATOM     14  C   UNL     1      -1.866  -2.039  24.829  0.00  0.00    +0.213 C 
ATOM     16  C   UNL     1      -3.288  -2.213  25.298  0.00  0.00    +0.109 C 
ENDROOT
BRANCH   5  13
ATOM     13  C   UNL     1      -3.185   3.385  23.621  0.00  0.00    +0.143 C 
BRANCH  13  15
ATOM      6  N   UNL     1      -6.495   2.166  26.075  0.00  0.00    -0.263 NA
ATOM     15  C   UNL     1      -4.342   2.959  24.479  0.00  0.00    -0.027 A 
ATOM     17  C   UNL     1      -4.644   3.660  25.641  0.00  0.00    +0.025 A 
ATOM     18  C   UNL     1      -5.114   1.863  24.114  0.00  0.00    +0.025 A 
ATOM     19  C   UNL     1      -5.721   3.227  26.398  0.00  0.00    +0.111 A 
ATOM     20  C   UNL     1      -6.170   1.509  24.939  0.00  0.00    +0.111 A 
ENDBRANCH  13  15
ENDBRANCH   5  13
TORSDOF 2
ENDMDL
MODEL 2
REMARK VINA RESULT:      -5.6      1.877      4.868
REMARK  Name = 56775249
REMARK  3 active torsions:
REMARK  status: ('A' for Active; 'I' for Inactive)
REMARK    1  A    between atoms: N_5  and  C_13
REMARK    2  A    between atoms: C_13  and  C_15
REMARK    3  A    between atoms: C_14  and  C_16
REMARK                            x       y       z     vdW  Elec       q    Type
REMARK                         _______ _______ _______ _____ _____    ______ ____
ROOT
ATOM      1  O   UNL     1      -1.392   3.531  23.987  0.00  0.00    -0.364 OA
ATOM      2  O   UNL     1       0.625   0.622  23.641  0.00  0.00    -0.273 OA
ATOM      3  O   UNL     1      -5.823   4.419  25.467  0.00  0.00    -0.276 OA
ATOM      4  N   UNL     1      -3.930   3.096  25.518  0.00  0.00    -0.297 N 
ATOM      5  N   UNL     1      -0.835   1.182  25.364  0.00  0.00    -0.288 N 
ATOM      7  C   UNL     1      -1.807   2.127  25.898  0.00  0.00    +0.124 C 
ATOM      8  C   UNL     1      -1.620   3.557  25.395  0.00  0.00    +0.158 C 
ATOM      9  C   UNL     1      -3.245   1.807  25.480  0.00  0.00    +0.133 C 
ATOM     10  C   UNL     1      -2.980   4.195  25.652  0.00  0.00    +0.141 C 
ATOM     11  C   UNL     1      -0.106   1.437  24.206  0.00  0.00    +0.242 C 
ATOM     12  C   UNL     1      -0.189   2.863  23.689  0.00  0.00    +0.256 C 
ATOM     14  C   UNL     1      -5.294   3.308  25.429  0.00  0.00    +0.213 C 
ATOM     16  C   UNL     1      -6.137   2.066  25.287  0.00  0.00    +0.109 C 
ENDROOT
BRANCH   5  13
ATOM     13  C   UNL     1      -0.767  -0.127  26.002  0.00  0.00    +0.143 C 
BRANCH  13  15
ATOM      6  N   UNL     1      -3.532  -2.912  24.253  0.00  0.00    -0.263 NA
ATOM     15  C   UNL     1      -1.733  -1.099  25.391  0.00  0.00    -0.027 A 
ATOM     17  C   UNL     1      -3.077  -1.065  25.746  0.00  0.00    +0.025 A 
ATOM     18  C   UNL     1      -1.288  -2.039  24.468  0.00  0.00    +0.025 A 
ATOM     19  C   UNL     1      -3.928  -1.985  25.153  0.00  0.00    +0.111 A 
ATOM     20  C   UNL     1      -2.219  -2.915  23.933  0.00  0.00    +0.111 A 
ENDBRANCH  13  15
ENDBRANCH   5  13
TORSDOF 2
ENDMDL
MODEL 3
REMARK VINA RESULT:      -4.9      1.980      3.729
REMARK  Name = 56775249
REMARK  3 active torsions:
REMARK  status: ('A' for Active; 'I' for Inactive)
REMARK    1  A    between atoms: N_5  and  C_13
REMARK    2  A    between atoms: C_13  and  C_15
REMARK    3  A    between atoms: C_14  and  C_16
REMARK                            x       y       z     vdW  Elec       q    Type
REMARK                         _______ _______ _______ _____ _____    ______ ____
ROOT
ATOM      1  O   UNL     1      -1.721   3.859  25.645  0.00  0.00    -0.364 OA
ATOM      2  O   UNL     1      -5.009   3.027  26.717  0.00  0.00    -0.273 OA
ATOM      3  O   UNL     1       1.872   1.502  23.608  0.00  0.00    -0.276 OA
ATOM      4  N   UNL     1      -0.395   1.748  23.986  0.00  0.00    -0.297 N 
ATOM      5  N   UNL     1      -3.896   2.355  24.788  0.00  0.00    -0.288 N 
ATOM      7  C   UNL     1      -2.672   2.385  23.997  0.00  0.00    +0.124 C 
ATOM      8  C   UNL     1      -1.807   3.619  24.242  0.00  0.00    +0.158 C 
ATOM      9  C   UNL     1      -1.717   1.233  24.327  0.00  0.00    +0.133 C 
ATOM     10  C   UNL     1      -0.434   3.186  23.742  0.00  0.00    +0.141 C 
ATOM     11  C   UNL     1      -4.054   3.115  25.943  0.00  0.00    +0.242 C 
ATOM     12  C   UNL     1      -2.988   4.171  26.176  0.00  0.00    +0.256 C 
ATOM     14  C   UNL     1       0.778   1.018  23.902  0.00  0.00    +0.213 C 
ATOM     16  C   UNL     1       0.648  -0.456  24.190  0.00  0.00    +0.109 C 
ENDROOT
BRANCH   5  13
ATOM     13  C   UNL     1      -4.900   1.368  24.413  0.00  0.00    +0.143 C 
BRANCH  13  15
ATOM      6  N   UNL     1      -3.509  -2.650  25.029  0.00  0.00    -0.263 NA
ATOM     15  C   UNL     1      -4.414  -0.036  24.629  0.00  0.00    -0.027 A 
ATOM     17  C   UNL     1      -3.900  -0.415  25.864  0.00  0.00    +0.025 A 
ATOM     18  C   UNL     1      -4.476  -0.962  23.594  0.00  0.00    +0.025 A 
ATOM     19  C   UNL     1      -3.465  -1.722  26.011  0.00  0.00    +0.111 A 
ATOM     20  C   UNL     1      -4.014  -2.245  23.843  0.00  0.00    +0.111 A 
ENDBRANCH  13  15
ENDBRANCH   5  13
TORSDOF 2
ENDMDL
MODEL 4
REMARK VINA RESULT:      -4.8      2.038      4.901
REMARK  Name = 56775249
REMARK  3 active torsions:
REMARK  status: ('A' for Active; 'I' for Inactive)
REMARK    1  A    between atoms: N_5  and  C_13
REMARK    2  A    between atoms: C_13  and  C_15
REMARK    3  A    between atoms: C_14  and  C_16
REMARK                            x       y       z     vdW  Elec       q    Type
REMARK                         _______ _______ _______ _____ _____    ______ ____
ROOT
ATOM      1  O   UNL     1       0.485   2.098  23.794  0.00  0.00    -0.364 OA
ATOM      2  O   UNL     1      -0.039  -1.417  23.635  0.00  0.00    -0.273 OA
ATOM      3  O   UNL     1      -2.079   5.840  25.219  0.00  0.00    -0.276 OA
ATOM      4  N   UNL     1      -1.595   3.584  25.353  0.00  0.00    -0.297 N 
ATOM      5  N   UNL     1      -0.646   0.068  25.320  0.00  0.00    -0.288 N 
ATOM      7  C   UNL     1      -0.687   1.446  25.793  0.00  0.00    +0.124 C 
ATOM      8  C   UNL     1       0.401   2.337  25.197  0.00  0.00    +0.158 C 
ATOM      9  C   UNL     1      -1.975   2.176  25.398  0.00  0.00    +0.133 C 
ATOM     10  C   UNL     1      -0.146   3.743  25.414  0.00  0.00    +0.141 C 
ATOM     11  C   UNL     1       0.008  -0.297  24.146  0.00  0.00    +0.242 C 
ATOM     12  C   UNL     1       0.896   0.774  23.538  0.00  0.00    +0.256 C 
ATOM     14  C   UNL     1      -2.451   4.666  25.253  0.00  0.00    +0.213 C 
ATOM     16  C   UNL     1      -3.920   4.330  25.193  0.00  0.00    +0.109 C 
ENDROOT
BRANCH   5  13
ATOM     13  C   UNL     1      -1.459  -0.902  26.041  0.00  0.00    +0.143 C 
BRANCH  13  15
ATOM      6  N   UNL     1      -4.741  -2.331  23.666  0.00  0.00    -0.263 NA
ATOM     15  C   UNL     1      -2.606  -1.401  25.211  0.00  0.00    -0.027 A 
ATOM     17  C   UNL     1      -3.588  -0.519  24.776  0.00  0.00    +0.025 A 
ATOM     18  C   UNL     1      -2.690  -2.747  24.874  0.00  0.00    +0.025 A 
ATOM     19  C   UNL     1      -4.626  -1.029  24.012  0.00  0.00    +0.111 A 
ATOM     20  C   UNL     1      -3.768  -3.159  24.107  0.00  0.00    +0.111 A 
ENDBRANCH  13  15
ENDBRANCH   5  13
TORSDOF 2
ENDMDL
MODEL 5
REMARK VINA RESULT:      -4.7      2.057      5.055
REMARK  Name = 56775249
REMARK  3 active torsions:
REMARK  status: ('A' for Active; 'I' for Inactive)
REMARK    1  A    between atoms: N_5  and  C_13
REMARK    2  A    between atoms: C_13  and  C_15
REMARK    3  A    between atoms: C_14  and  C_16
REMARK                            x       y       z     vdW  Elec       q    Type
REMARK                         _______ _______ _______ _____ _____    ______ ____
ROOT
ATOM      1  O   UNL     1      -3.608  -1.802  25.361  0.00  0.00    -0.364 OA
ATOM      2  O   UNL     1      -0.065  -2.018  25.594  0.00  0.00    -0.273 OA
ATOM      3  O   UNL     1      -6.771   1.738  25.088  0.00  0.00    -0.276 OA
ATOM      4  N   UNL     1      -4.636   0.937  24.718  0.00  0.00    -0.297 N 
ATOM      5  N   UNL     1      -1.351  -0.579  24.294  0.00  0.00    -0.288 N 
ATOM      7  C   UNL     1      -2.679  -0.119  23.911  0.00  0.00    +0.124 C 
ATOM      8  C   UNL     1      -3.774  -1.168  24.094  0.00  0.00    +0.158 C 
ATOM      9  C   UNL     1      -3.181   1.045  24.772  0.00  0.00    +0.133 C 
ATOM     10  C   UNL     1      -5.050  -0.335  24.135  0.00  0.00    +0.141 C 
ATOM     11  C   UNL     1      -1.155  -1.671  25.136  0.00  0.00    +0.242 C 
ATOM     12  C   UNL     1      -2.391  -2.509  25.408  0.00  0.00    +0.256 C 
ATOM     14  C   UNL     1      -5.549   1.878  25.158  0.00  0.00    +0.213 C 
ATOM     16  C   UNL     1      -4.957   3.136  25.741  0.00  0.00    +0.109 C 
ENDROOT
BRANCH   5  13
ATOM     13  C   UNL     1      -0.223   0.251  23.892  0.00  0.00    +0.143 C 
BRANCH  13  15
ATOM      6  N   UNL     1      -0.541   4.248  25.436  0.00  0.00    -0.263 NA
ATOM     15  C   UNL     1      -0.334   1.647  24.431  0.00  0.00    -0.027 A 
ATOM     17  C   UNL     1      -0.236   1.877  25.799  0.00  0.00    +0.025 A 
ATOM     18  C   UNL     1      -0.535   2.716  23.565  0.00  0.00    +0.025 A 
ATOM     19  C   UNL     1      -0.345   3.184  26.247  0.00  0.00    +0.111 A 
ATOM     20  C   UNL     1      -0.632   3.986  24.113  0.00  0.00    +0.111 A 
ENDBRANCH  13  15
ENDBRANCH   5  13
TORSDOF 2
ENDMDL
MODEL 6
REMARK VINA RESULT:      -4.1     16.223     18.932
REMARK  Name = 56775249
REMARK  3 active torsions:
REMARK  status: ('A' for Active; 'I' for Inactive)
REMARK    1  A    between atoms: N_5  and  C_13
REMARK    2  A    between atoms: C_13  and  C_15
REMARK    3  A    between atoms: C_14  and  C_16
REMARK                            x       y       z     vdW  Elec       q    Type
REMARK                         _______ _______ _______ _____ _____    ______ ____
ROOT
ATOM      1  O   UNL     1      10.777   9.062  19.398  0.00  0.00    -0.364 OA
ATOM      2  O   UNL     1      11.997   8.456  22.684  0.00  0.00    -0.273 OA
ATOM      3  O   UNL     1      12.673   9.093  15.037  0.00  0.00    -0.276 OA
ATOM      4  N   UNL     1      12.693   8.326  17.217  0.00  0.00    -0.297 N 
ATOM      5  N   UNL     1      12.503   7.326  20.715  0.00  0.00    -0.288 N 
ATOM      7  C   UNL     1      12.320   7.219  19.273  0.00  0.00    +0.124 C 
ATOM      8  C   UNL     1      11.000   7.801  18.772  0.00  0.00    +0.158 C 
ATOM      9  C   UNL     1      13.361   8.011  18.476  0.00  0.00    +0.133 C 
ATOM     10  C   UNL     1      11.265   8.038  17.290  0.00  0.00    +0.141 C 
ATOM     11  C   UNL     1      11.788   8.233  21.491  0.00  0.00    +0.242 C 
ATOM     12  C   UNL     1      10.621   8.908  20.790  0.00  0.00    +0.256 C 
ATOM     14  C   UNL     1      13.283   8.845  16.078  0.00  0.00    +0.213 C 
ATOM     16  C   UNL     1      14.767   9.093  16.169  0.00  0.00    +0.109 C 
ENDROOT
BRANCH   5  13
ATOM     13  C   UNL     1      13.591   6.555  21.301  0.00  0.00    +0.143 C 
BRANCH  13  15
ATOM      6  N   UNL     1      17.405   8.436  20.688  0.00  0.00    -0.263 NA
ATOM     15  C   UNL     1      14.924   7.212  21.087  0.00  0.00    -0.027 A 
ATOM     17  C   UNL     1      15.163   8.485  21.592  0.00  0.00    +0.025 A 
ATOM     18  C   UNL     1      15.923   6.550  20.383  0.00  0.00    +0.025 A 
ATOM     19  C   UNL     1      16.410   9.048  21.367  0.00  0.00    +0.111 A 
ATOM     20  C   UNL     1      17.136   7.200  20.211  0.00  0.00    +0.111 A 
ENDBRANCH  13  15
ENDBRANCH   5  13
TORSDOF 2
ENDMDL
MODEL 7
REMARK VINA RESULT:      -4.0      0.972      1.295
REMARK  Name = 56775249
REMARK  3 active torsions:
REMARK  status: ('A' for Active; 'I' for Inactive)
REMARK    1  A    between atoms: N_5  and  C_13
REMARK    2  A    between atoms: C_13  and  C_15
REMARK    3  A    between atoms: C_14  and  C_16
REMARK                            x       y       z     vdW  Elec       q    Type
REMARK                         _______ _______ _______ _____ _____    ______ ____
ROOT
ATOM      1  O   UNL     1      -0.296   0.735  25.834  0.00  0.00    -0.364 OA
ATOM      2  O   UNL     1      -1.862   3.920  26.068  0.00  0.00    -0.273 OA
ATOM      3  O   UNL     1      -1.595  -3.568  24.283  0.00  0.00    -0.276 OA
ATOM      4  N   UNL     1      -1.816  -1.269  24.209  0.00  0.00    -0.297 N 
ATOM      5  N   UNL     1      -1.977   2.367  24.340  0.00  0.00    -0.288 N 
ATOM      7  C   UNL     1      -1.596   1.055  23.834  0.00  0.00    +0.124 C 
ATOM      8  C   UNL     1      -0.294   0.519  24.425  0.00  0.00    +0.158 C 
ATOM      9  C   UNL     1      -2.605  -0.041  24.191  0.00  0.00    +0.133 C 
ATOM     10  C   UNL     1      -0.387  -0.980  24.167  0.00  0.00    +0.141 C 
ATOM     11  C   UNL     1      -1.474   2.881  25.531  0.00  0.00    +0.242 C 
ATOM     12  C   UNL     1      -0.308   2.113  26.127  0.00  0.00    +0.256 C 
ATOM     14  C   UNL     1      -2.305  -2.562  24.271  0.00  0.00    +0.213 C 
ATOM     16  C   UNL     1      -3.807  -2.688  24.316  0.00  0.00    +0.109 C 
ENDROOT
BRANCH   5  13
ATOM     13  C   UNL     1      -3.041   3.065  23.629  0.00  0.00    +0.143 C 
BRANCH  13  15
ATOM      6  N   UNL     1      -6.497   3.677  26.106  0.00  0.00    -0.263 NA
ATOM     15  C   UNL     1      -4.248   3.278  24.495  0.00  0.00    -0.027 A 
ATOM     17  C   UNL     1      -4.828   2.204  25.160  0.00  0.00    +0.025 A 
ATOM     18  C   UNL     1      -4.790   4.551  24.634  0.00  0.00    +0.025 A 
ATOM     19  C   UNL     1      -5.942   2.455  25.947  0.00  0.00    +0.111 A 
ATOM     20  C   UNL     1      -5.906   4.696  25.444  0.00  0.00    +0.111 A 
ENDBRANCH  13  15
ENDBRANCH   5  13
TORSDOF 2
ENDMDL
MODEL 8
REMARK VINA RESULT:      -3.9      2.176      5.031
REMARK  Name = 56775249
REMARK  3 active torsions:
REMARK  status: ('A' for Active; 'I' for Inactive)
REMARK    1  A    between atoms: N_5  and  C_13
REMARK    2  A    between atoms: C_13  and  C_15
REMARK    3  A    between atoms: C_14  and  C_16
REMARK                            x       y       z     vdW  Elec       q    Type
REMARK                         _______ _______ _______ _____ _____    ______ ____
ROOT
ATOM      1  O   UNL     1      -4.429   3.877  25.351  0.00  0.00    -0.364 OA
ATOM      2  O   UNL     1      -6.536   1.271  26.545  0.00  0.00    -0.273 OA
ATOM      3  O   UNL     1       0.093   4.180  23.914  0.00  0.00    -0.276 OA
ATOM      4  N   UNL     1      -1.829   2.931  24.205  0.00  0.00    -0.297 N 
ATOM      5  N   UNL     1      -4.976   1.203  24.821  0.00  0.00    -0.288 N 
ATOM      7  C   UNL     1      -3.954   1.905  24.055  0.00  0.00    +0.124 C 
ATOM      8  C   UNL     1      -4.129   3.422  24.034  0.00  0.00    +0.158 C 
ATOM      9  C   UNL     1      -2.548   1.736  24.637  0.00  0.00    +0.133 C 
ATOM     10  C   UNL     1      -2.742   3.926  23.654  0.00  0.00    +0.141 C 
ATOM     11  C   UNL     1      -5.756   1.841  25.781  0.00  0.00    +0.242 C 
ATOM     12  C   UNL     1      -5.664   3.357  25.789  0.00  0.00    +0.256 C 
ATOM     14  C   UNL     1      -0.466   3.150  24.295  0.00  0.00    +0.213 C 
ATOM     16  C   UNL     1       0.336   2.025  24.896  0.00  0.00    +0.109 C 
ENDROOT
BRANCH   5  13
ATOM     13  C   UNL     1      -5.045  -0.243  24.660  0.00  0.00    +0.143 C 
BRANCH  13  15
ATOM      6  N   UNL     1      -1.230  -2.112  25.304  0.00  0.00    -0.263 NA
ATOM     15  C   UNL     1      -3.712  -0.896  24.886  0.00  0.00    -0.027 A 
ATOM     17  C   UNL     1      -2.986  -0.621  26.039  0.00  0.00    +0.025 A 
ATOM     18  C   UNL     1      -3.199  -1.778  23.942  0.00  0.00    +0.025 A 
ATOM     19  C   UNL     1      -1.761  -1.250  26.200  0.00  0.00    +0.111 A 
ATOM     20  C   UNL     1      -1.964  -2.355  24.195  0.00  0.00    +0.111 A 
ENDBRANCH  13  15
ENDBRANCH   5  13
TORSDOF 2
ENDMDL
MODEL 9
REMARK VINA RESULT:      -3.7      1.669      4.105
REMARK  Name = 56775249
REMARK  3 active torsions:
REMARK  status: ('A' for Active; 'I' for Inactive)
REMARK    1  A    between atoms: N_5  and  C_13
REMARK    2  A    between atoms: C_13  and  C_15
REMARK    3  A    between atoms: C_14  and  C_16
REMARK                            x       y       z     vdW  Elec       q    Type
REMARK                         _______ _______ _______ _____ _____    ______ ____
ROOT
ATOM      1  O   UNL     1      -1.336  -1.713  24.915  0.00  0.00    -0.364 OA
ATOM      2  O   UNL     1      -4.358  -2.562  23.241  0.00  0.00    -0.273 OA
ATOM      3  O   UNL     1       0.985   2.327  25.866  0.00  0.00    -0.276 OA
ATOM      4  N   UNL     1      -0.995   1.217  25.431  0.00  0.00    -0.297 N 
ATOM      5  N   UNL     1      -3.946  -0.784  24.684  0.00  0.00    -0.288 N 
ATOM      7  C   UNL     1      -2.984  -0.060  25.505  0.00  0.00    +0.124 C 
ATOM      8  C   UNL     1      -1.820  -0.919  25.996  0.00  0.00    +0.158 C 
ATOM      9  C   UNL     1      -2.275   1.066  24.746  0.00  0.00    +0.133 C 
ATOM     10  C   UNL     1      -0.754   0.111  26.352  0.00  0.00    +0.141 C 
ATOM     11  C   UNL     1      -3.631  -1.982  24.049  0.00  0.00    +0.242 C 
ATOM     12  C   UNL     1      -2.323  -2.621  24.482  0.00  0.00    +0.256 C 
ATOM     14  C   UNL     1      -0.085   2.245  25.260  0.00  0.00    +0.213 C 
ATOM     16  C   UNL     1      -0.481   3.306  24.266  0.00  0.00    +0.109 C 
ENDROOT
BRANCH   5  13
ATOM     13  C   UNL     1      -5.214  -0.119  24.413  0.00  0.00    +0.143 C 
BRANCH  13  15
ATOM      6  N   UNL     1      -5.055   4.077  25.321  0.00  0.00    -0.263 NA
ATOM     15  C   UNL     1      -5.158   1.347  24.731  0.00  0.00    -0.027 A 
ATOM     17  C   UNL     1      -5.769   1.836  25.881  0.00  0.00    +0.025 A 
ATOM     18  C   UNL     1      -4.496   2.221  23.877  0.00  0.00    +0.025 A 
ATOM     19  C   UNL     1      -5.689   3.197  26.128  0.00  0.00    +0.111 A 
ATOM     20  C   UNL     1      -4.474   3.566  24.213  0.00  0.00    +0.111 A 
ENDBRANCH  13  15
ENDBRANCH   5  13
TORSDOF 2
ENDMDL
MODEL 10
REMARK VINA RESULT:      -3.6      2.413      3.753
REMARK  Name = 56775249
REMARK  3 active torsions:
REMARK  status: ('A' for Active; 'I' for Inactive)
REMARK    1  A    between atoms: N_5  and  C_13
REMARK    2  A    between atoms: C_13  and  C_15
REMARK    3  A    between atoms: C_14  and  C_16
REMARK                            x       y       z     vdW  Elec       q    Type
REMARK                         _______ _______ _______ _____ _____    ______ ____
ROOT
ATOM      1  O   UNL     1      -1.422  -2.373  24.793  0.00  0.00    -0.364 OA
ATOM      2  O   UNL     1      -4.753  -1.651  23.774  0.00  0.00    -0.273 OA
ATOM      3  O   UNL     1       2.911  -0.957  23.441  0.00  0.00    -0.276 OA
ATOM      4  N   UNL     1       0.646  -0.545  23.630  0.00  0.00    -0.297 N 
ATOM      5  N   UNL     1      -2.959  -0.190  24.018  0.00  0.00    -0.288 N 
ATOM      7  C   UNL     1      -1.547  -0.013  24.336  0.00  0.00    +0.124 C 
ATOM      8  C   UNL     1      -0.978  -1.097  25.249  0.00  0.00    +0.158 C 
ATOM      9  C   UNL     1      -0.641  -0.099  23.104  0.00  0.00    +0.133 C 
ATOM     10  C   UNL     1       0.524  -0.996  25.012  0.00  0.00    +0.141 C 
ATOM     11  C   UNL     1      -3.604  -1.416  24.153  0.00  0.00    +0.242 C 
ATOM     12  C   UNL     1      -2.822  -2.482  24.901  0.00  0.00    +0.256 C 
ATOM     14  C   UNL     1       1.850  -0.571  22.950  0.00  0.00    +0.213 C 
ATOM     16  C   UNL     1       1.804  -0.078  21.526  0.00  0.00    +0.109 C 
ENDROOT
BRANCH   5  13
ATOM     13  C   UNL     1      -3.641   0.936  23.394  0.00  0.00    +0.143 C 
BRANCH  13  15
ATOM      6  N   UNL     1      -5.200   3.684  26.305  0.00  0.00    -0.263 NA
ATOM     15  C   UNL     1      -4.185   1.896  24.411  0.00  0.00    -0.027 A 
ATOM     17  C   UNL     1      -3.442   3.009  24.788  0.00  0.00    +0.025 A 
ATOM     18  C   UNL     1      -5.435   1.677  24.979  0.00  0.00    +0.025 A 
ATOM     19  C   UNL     1      -3.989   3.865  25.731  0.00  0.00    +0.111 A 
ATOM     20  C   UNL     1      -5.893   2.592  25.914  0.00  0.00    +0.111 A 
ENDBRANCH  13  15
ENDBRANCH   5  13
TORSDOF 2
ENDMDL
