MODEL 1
REMARK VINA RESULT:      -1.3      0.000      0.000
REMARK  Name = 11941507
REMARK  4 active torsions:
REMARK  status: ('A' for Active; 'I' for Inactive)
REMARK    1  A    between atoms: S_2  and  C_20
REMARK    2  A    between atoms: S_2  and  C_23
REMARK    3  A    between atoms: N_7  and  C_9
REMARK    4  A    between atoms: C_17  and  C_20
REMARK                            x       y       z     vdW  Elec       q    Type
REMARK                         _______ _______ _______ _____ _____    ______ ____
ROOT
ATOM      1 CL   UNL     1      -6.067   5.335  26.117  0.00  0.00    -0.083 Cl
ATOM      3  O   UNL     1       0.484   2.128  26.193  0.00  0.00    -0.273 OA
ATOM      4  O   UNL     1      -2.363   2.133  21.761  0.00  0.00    -0.270 OA
ATOM      6  N   UNL     1      -1.221   1.206  23.528  0.00  0.00    -0.284 N 
ATOM      8  N   UNL     1      -1.511   3.129  25.735  0.00  0.00    -0.283 N 
ATOM      9  C   UNL     1      -0.115  -0.329  24.949  0.00  0.00    +0.104 C 
ATOM     10  C   UNL     1      -1.113   0.838  24.927  0.00  0.00    +0.183 C 
ATOM     11  C   UNL     1       0.744  -0.086  23.706  0.00  0.00    +0.043 C 
ATOM     12  C   UNL     1      -0.240   0.507  22.709  0.00  0.00    +0.111 C 
ATOM     13  C   UNL     1      -0.616   2.083  25.639  0.00  0.00    +0.240 C 
ATOM     14  C   UNL     1      -2.218   1.979  22.973  0.00  0.00    +0.249 C 
ATOM     15  C   UNL     1      -3.149   2.683  23.891  0.00  0.00    +0.058 A 
ATOM     16  C   UNL     1      -2.768   3.273  25.109  0.00  0.00    +0.047 A 
ATOM     18  C   UNL     1      -4.449   2.897  23.398  0.00  0.00    +0.016 A 
ATOM     19  C   UNL     1      -3.678   4.117  25.768  0.00  0.00    +0.044 A 
ATOM     21  C   UNL     1      -5.355   3.700  24.091  0.00  0.00    +0.021 A 
ATOM     22  C   UNL     1      -4.965   4.321  25.270  0.00  0.00    +0.043 A 
ATOM     25  H   UNL     1      -1.264   3.852  26.407  0.00  0.00    +0.155 HD
ENDROOT
BRANCH   9   7
ATOM      5  O   UNL     1      -2.727  -0.975  26.017  0.00  0.00    -0.275 OA
ATOM      7  N   UNL     1      -0.803  -1.597  24.870  0.00  0.00    -0.309 N 
ATOM     17  C   UNL     1      -2.059  -1.813  25.414  0.00  0.00    +0.223 C 
ATOM     24  H   UNL     1      -0.308  -2.377  24.447  0.00  0.00    +0.149 HD
BRANCH  17  20
ATOM     20  C   UNL     1      -2.552  -3.227  25.213  0.00  0.00    +0.164 C 
BRANCH  20   2
ATOM      2  S   UNL     1      -3.816  -3.228  23.919  0.00  0.00    -0.155 S 
ATOM     23  C   UNL     1      -4.197  -1.461  23.914  0.00  0.00    +0.085 C 
ENDBRANCH  20   2
ENDBRANCH  17  20
ENDBRANCH   9   7
TORSDOF 3
ENDMDL
MODEL 2
REMARK VINA RESULT:      -1.1      2.687      4.282
REMARK  Name = 11941507
REMARK  4 active torsions:
REMARK  status: ('A' for Active; 'I' for Inactive)
REMARK    1  A    between atoms: S_2  and  C_20
REMARK    2  A    between atoms: S_2  and  C_23
REMARK    3  A    between atoms: N_7  and  C_9
REMARK    4  A    between atoms: C_17  and  C_20
REMARK                            x       y       z     vdW  Elec       q    Type
REMARK                         _______ _______ _______ _____ _____    ______ ____
ROOT
ATOM      1 CL   UNL     1      -3.958   6.386  23.178  0.00  0.00    -0.083 Cl
ATOM      3  O   UNL     1      -3.740  -0.839  24.149  0.00  0.00    -0.273 OA
ATOM      4  O   UNL     1      -0.637   2.274  27.051  0.00  0.00    -0.270 OA
ATOM      6  N   UNL     1      -1.130   0.593  25.562  0.00  0.00    -0.284 N 
ATOM      8  N   UNL     1      -3.620   1.434  24.240  0.00  0.00    -0.283 N 
ATOM      9  C   UNL     1      -0.958  -1.291  24.141  0.00  0.00    +0.104 C 
ATOM     10  C   UNL     1      -1.533   0.129  24.247  0.00  0.00    +0.183 C 
ATOM     11  C   UNL     1      -0.873  -1.750  25.598  0.00  0.00    +0.043 C 
ATOM     12  C   UNL     1      -0.529  -0.474  26.350  0.00  0.00    +0.111 C 
ATOM     13  C   UNL     1      -3.050   0.178  24.245  0.00  0.00    +0.240 C 
ATOM     14  C   UNL     1      -1.137   1.903  25.990  0.00  0.00    +0.249 C 
ATOM     15  C   UNL     1      -1.807   2.915  25.133  0.00  0.00    +0.058 A 
ATOM     16  C   UNL     1      -2.993   2.686  24.415  0.00  0.00    +0.047 A 
ATOM     18  C   UNL     1      -1.284   4.219  25.204  0.00  0.00    +0.016 A 
ATOM     19  C   UNL     1      -3.661   3.782  23.841  0.00  0.00    +0.044 A 
ATOM     21  C   UNL     1      -1.935   5.287  24.588  0.00  0.00    +0.021 A 
ATOM     22  C   UNL     1      -3.132   5.070  23.917  0.00  0.00    +0.043 A 
ATOM     25  H   UNL     1      -4.609   1.462  24.000  0.00  0.00    +0.155 HD
ENDROOT
BRANCH   9   7
ATOM      5  O   UNL     1       0.471   1.015  23.131  0.00  0.00    -0.275 OA
ATOM      7  N   UNL     1       0.347  -1.273  23.521  0.00  0.00    -0.309 N 
ATOM     17  C   UNL     1       0.954  -0.114  23.065  0.00  0.00    +0.223 C 
ATOM     24  H   UNL     1       0.805  -2.166  23.361  0.00  0.00    +0.149 HD
BRANCH  17  20
ATOM     20  C   UNL     1       2.307  -0.364  22.441  0.00  0.00    +0.164 C 
BRANCH  20   2
ATOM      2  S   UNL     1       3.391   1.036  22.810  0.00  0.00    -0.155 S 
ATOM     23  C   UNL     1       4.896   0.115  23.203  0.00  0.00    +0.085 C 
ENDBRANCH  20   2
ENDBRANCH  17  20
ENDBRANCH   9   7
TORSDOF 3
ENDMDL
MODEL 3
REMARK VINA RESULT:       0.7      3.531      5.688
REMARK  Name = 11941507
REMARK  4 active torsions:
REMARK  status: ('A' for Active; 'I' for Inactive)
REMARK    1  A    between atoms: S_2  and  C_20
REMARK    2  A    between atoms: S_2  and  C_23
REMARK    3  A    between atoms: N_7  and  C_9
REMARK    4  A    between atoms: C_17  and  C_20
REMARK                            x       y       z     vdW  Elec       q    Type
REMARK                         _______ _______ _______ _____ _____    ______ ____
ROOT
ATOM      1 CL   UNL     1      -4.719  -3.961  24.005  0.00  0.00    -0.083 Cl
ATOM      3  O   UNL     1      -3.854   3.279  23.847  0.00  0.00    -0.273 OA
ATOM      4  O   UNL     1       0.360   0.143  23.462  0.00  0.00    -0.270 OA
ATOM      6  N   UNL     1      -0.965   1.784  24.376  0.00  0.00    -0.284 N 
ATOM      8  N   UNL     1      -3.726   1.009  23.717  0.00  0.00    -0.283 N 
ATOM      9  C   UNL     1      -1.738   3.600  25.681  0.00  0.00    +0.104 C 
ATOM     10  C   UNL     1      -2.121   2.214  25.142  0.00  0.00    +0.183 C 
ATOM     11  C   UNL     1      -0.723   4.112  24.657  0.00  0.00    +0.043 C 
ATOM     12  C   UNL     1       0.013   2.852  24.231  0.00  0.00    +0.111 C 
ATOM     13  C   UNL     1      -3.277   2.236  24.158  0.00  0.00    +0.240 C 
ATOM     14  C   UNL     1      -0.706   0.494  23.967  0.00  0.00    +0.249 C 
ATOM     15  C   UNL     1      -1.781  -0.519  24.123  0.00  0.00    +0.058 A 
ATOM     16  C   UNL     1      -3.147  -0.264  23.914  0.00  0.00    +0.047 A 
ATOM     18  C   UNL     1      -1.349  -1.842  24.328  0.00  0.00    +0.016 A 
ATOM     19  C   UNL     1      -4.038  -1.350  23.851  0.00  0.00    +0.044 A 
ATOM     21  C   UNL     1      -2.255  -2.902  24.310  0.00  0.00    +0.021 A 
ATOM     22  C   UNL     1      -3.599  -2.657  24.058  0.00  0.00    +0.043 A 
ATOM     25  H   UNL     1      -4.634   1.017  23.258  0.00  0.00    +0.155 HD
ENDROOT
BRANCH   9   7
ATOM      5  O   UNL     1       0.791   2.375  26.375  0.00  0.00    -0.275 OA
ATOM      7  N   UNL     1      -1.149   3.497  26.996  0.00  0.00    -0.309 N 
ATOM     17  C   UNL     1       0.074   2.889  27.232  0.00  0.00    +0.223 C 
ATOM     24  H   UNL     1      -1.692   3.834  27.785  0.00  0.00    +0.149 HD
BRANCH  17  20
ATOM     20  C   UNL     1       0.462   2.895  28.693  0.00  0.00    +0.164 C 
BRANCH  20   2
ATOM      2  S   UNL     1       2.264   2.796  28.821  0.00  0.00    -0.155 S 
ATOM     23  C   UNL     1       2.372   1.725  30.274  0.00  0.00    +0.085 C 
ENDBRANCH  20   2
ENDBRANCH  17  20
ENDBRANCH   9   7
TORSDOF 3
ENDMDL
MODEL 4
REMARK VINA RESULT:       0.8      3.172      5.640
REMARK  Name = 11941507
REMARK  4 active torsions:
REMARK  status: ('A' for Active; 'I' for Inactive)
REMARK    1  A    between atoms: S_2  and  C_20
REMARK    2  A    between atoms: S_2  and  C_23
REMARK    3  A    between atoms: N_7  and  C_9
REMARK    4  A    between atoms: C_17  and  C_20
REMARK                            x       y       z     vdW  Elec       q    Type
REMARK                         _______ _______ _______ _____ _____    ______ ____
ROOT
ATOM      1 CL   UNL     1      -3.278  -4.892  22.905  0.00  0.00    -0.083 Cl
ATOM      3  O   UNL     1       1.122   0.920  23.161  0.00  0.00    -0.273 OA
ATOM      4  O   UNL     1      -1.516  -0.542  27.479  0.00  0.00    -0.270 OA
ATOM      6  N   UNL     1      -0.875   0.869  25.781  0.00  0.00    -0.284 N 
ATOM      8  N   UNL     1      -0.216  -0.889  23.516  0.00  0.00    -0.283 N 
ATOM      9  C   UNL     1      -0.548   2.792  24.442  0.00  0.00    +0.104 C 
ATOM     10  C   UNL     1      -0.913   1.302  24.396  0.00  0.00    +0.183 C 
ATOM     11  C   UNL     1       0.299   2.912  25.710  0.00  0.00    +0.043 C 
ATOM     12  C   UNL     1      -0.334   1.902  26.654  0.00  0.00    +0.111 C 
ATOM     13  C   UNL     1       0.108   0.443  23.673  0.00  0.00    +0.240 C 
ATOM     14  C   UNL     1      -1.428  -0.291  26.277  0.00  0.00    +0.249 C 
ATOM     15  C   UNL     1      -1.921  -1.302  25.306  0.00  0.00    +0.058 A 
ATOM     16  C   UNL     1      -1.288  -1.608  24.090  0.00  0.00    +0.047 A 
ATOM     18  C   UNL     1      -2.996  -2.097  25.744  0.00  0.00    +0.016 A 
ATOM     19  C   UNL     1      -1.704  -2.745  23.375  0.00  0.00    +0.044 A 
ATOM     21  C   UNL     1      -3.426  -3.193  24.997  0.00  0.00    +0.021 A 
ATOM     22  C   UNL     1      -2.772  -3.525  23.818  0.00  0.00    +0.043 A 
ATOM     25  H   UNL     1       0.345  -1.397  22.836  0.00  0.00    +0.155 HD
ENDROOT
BRANCH   9   7
ATOM      5  O   UNL     1      -3.151   2.227  23.309  0.00  0.00    -0.275 OA
ATOM      7  N   UNL     1      -1.736   3.612  24.527  0.00  0.00    -0.309 N 
ATOM     17  C   UNL     1      -2.944   3.256  23.949  0.00  0.00    +0.223 C 
ATOM     24  H   UNL     1      -1.653   4.516  24.982  0.00  0.00    +0.149 HD
BRANCH  17  20
ATOM     20  C   UNL     1      -4.026   4.289  24.165  0.00  0.00    +0.164 C 
BRANCH  20   2
ATOM      2  S   UNL     1      -4.920   3.892  25.687  0.00  0.00    -0.155 S 
ATOM     23  C   UNL     1      -5.715   2.363  25.141  0.00  0.00    +0.085 C 
ENDBRANCH  20   2
ENDBRANCH  17  20
ENDBRANCH   9   7
TORSDOF 3
ENDMDL
MODEL 5
REMARK VINA RESULT:       1.9      3.511      5.110
REMARK  Name = 11941507
REMARK  4 active torsions:
REMARK  status: ('A' for Active; 'I' for Inactive)
REMARK    1  A    between atoms: S_2  and  C_20
REMARK    2  A    between atoms: S_2  and  C_23
REMARK    3  A    between atoms: N_7  and  C_9
REMARK    4  A    between atoms: C_17  and  C_20
REMARK                            x       y       z     vdW  Elec       q    Type
REMARK                         _______ _______ _______ _____ _____    ______ ____
ROOT
ATOM      1 CL   UNL     1      -4.694  -4.321  24.746  0.00  0.00    -0.083 Cl
ATOM      3  O   UNL     1      -0.499   1.106  27.224  0.00  0.00    -0.273 OA
ATOM      4  O   UNL     1      -3.365   1.813  22.861  0.00  0.00    -0.270 OA
ATOM      6  N   UNL     1      -1.447   1.704  24.125  0.00  0.00    -0.284 N 
ATOM      8  N   UNL     1      -2.014  -0.273  26.228  0.00  0.00    -0.283 N 
ATOM      9  C   UNL     1       0.797   1.900  24.850  0.00  0.00    +0.104 C 
ATOM     10  C   UNL     1      -0.414   0.957  24.818  0.00  0.00    +0.183 C 
ATOM     11  C   UNL     1       0.165   3.292  24.788  0.00  0.00    +0.043 C 
ATOM     12  C   UNL     1      -1.051   3.088  23.899  0.00  0.00    +0.111 C 
ATOM     13  C   UNL     1      -0.986   0.647  26.190  0.00  0.00    +0.240 C 
ATOM     14  C   UNL     1      -2.596   1.174  23.579  0.00  0.00    +0.249 C 
ATOM     15  C   UNL     1      -2.934  -0.237  23.897  0.00  0.00    +0.058 A 
ATOM     16  C   UNL     1      -2.732  -0.838  25.152  0.00  0.00    +0.047 A 
ATOM     18  C   UNL     1      -3.654  -0.931  22.908  0.00  0.00    +0.016 A 
ATOM     19  C   UNL     1      -3.312  -2.093  25.405  0.00  0.00    +0.044 A 
ATOM     21  C   UNL     1      -4.182  -2.197  23.162  0.00  0.00    +0.021 A 
ATOM     22  C   UNL     1      -4.022  -2.772  24.415  0.00  0.00    +0.043 A 
ATOM     25  H   UNL     1      -2.226  -0.650  27.150  0.00  0.00    +0.155 HD
ENDROOT
BRANCH   9   7
ATOM      5  O   UNL     1       1.176  -0.586  23.418  0.00  0.00    -0.275 OA
ATOM      7  N   UNL     1       1.662   1.667  23.716  0.00  0.00    -0.309 N 
ATOM     17  C   UNL     1       1.778   0.435  23.093  0.00  0.00    +0.223 C 
ATOM     24  H   UNL     1       2.253   2.434  23.409  0.00  0.00    +0.149 HD
BRANCH  17  20
ATOM     20  C   UNL     1       2.760   0.447  21.944  0.00  0.00    +0.164 C 
BRANCH  20   2
ATOM      2  S   UNL     1       4.384   0.946  22.567  0.00  0.00    -0.155 S 
ATOM     23  C   UNL     1       4.731  -0.498  23.598  0.00  0.00    +0.085 C 
ENDBRANCH  20   2
ENDBRANCH  17  20
ENDBRANCH   9   7
TORSDOF 3
ENDMDL
