MODEL 1
REMARK VINA RESULT:       3.4      0.000      0.000
REMARK  Name = 26743264
REMARK  13 active torsions:
REMARK  status: ('A' for Active; 'I' for Inactive)
REMARK    1  A    between atoms: N_5  and  C_19
REMARK    2  A    between atoms: N_7  and  C_23
REMARK    3  A    between atoms: C_8  and  C_14
REMARK    4  A    between atoms: C_9  and  C_13
REMARK    5  A    between atoms: C_13  and  C_15
REMARK    6  A    between atoms: C_14  and  C_16
REMARK    7  A    between atoms: C_18  and  C_21
REMARK    8  A    between atoms: C_19  and  C_23
REMARK    9  A    between atoms: C_20  and  C_22
REMARK   10  A    between atoms: C_20  and  C_28
REMARK   11  A    between atoms: C_20  and  C_29
REMARK   12  A    between atoms: C_20  and  C_30
REMARK   13  A    between atoms: C_31  and  C_32
REMARK                            x       y       z     vdW  Elec       q    Type
REMARK                         _______ _______ _______ _____ _____    ______ ____
ROOT
ATOM      4  N   UNL     1      -7.142   3.588  25.599  0.00  0.00    -0.316 NA
ATOM      8  C   UNL     1      -4.311   3.400  24.787  0.00  0.00    +0.004 C 
ATOM      9  C   UNL     1      -5.290   2.205  24.693  0.00  0.00    +0.012 C 
ATOM     10  C   UNL     1      -5.115   4.711  24.742  0.00  0.00    +0.019 C 
ATOM     11  C   UNL     1      -6.425   2.319  25.724  0.00  0.00    +0.085 C 
ATOM     12  C   UNL     1      -6.249   4.734  25.766  0.00  0.00    +0.081 C 
ATOM     33  H   UNL     1      -7.879   3.631  26.302  0.00  0.00    +0.122 HD
ENDROOT
BRANCH   9  13
ATOM     13  C   UNL     1      -4.592   0.849  24.810  0.00  0.00    +0.064 C 
BRANCH  13  15
ATOM      1  O   UNL     1      -1.686   1.303  22.733  0.00  0.00    -0.354 OA
ATOM      6  N   UNL     1      -3.044   1.439  22.995  0.00  0.00    -0.083 NA
ATOM     15  C   UNL     1      -3.223   0.883  24.197  0.00  0.00    +0.085 A 
ATOM     17  C   UNL     1      -2.024   0.385  24.737  0.00  0.00    +0.076 A 
ATOM     18  C   UNL     1      -1.089   0.674  23.778  0.00  0.00    +0.167 A 
BRANCH  18  21
ATOM     21  C   UNL     1       0.323   0.461  23.651  0.00  0.00    +0.020 A 
ATOM     22  C   UNL     1       3.071   0.049  23.406  0.00  0.00    -0.042 A 
ATOM     24  C   UNL     1       1.177   1.548  23.458  0.00  0.00    +0.012 A 
ATOM     25  C   UNL     1       0.843  -0.831  23.722  0.00  0.00    +0.012 A 
ATOM     26  C   UNL     1       2.550   1.341  23.335  0.00  0.00    +0.005 A 
ATOM     27  C   UNL     1       2.217  -1.037  23.599  0.00  0.00    +0.005 A 
BRANCH  22  20
ATOM     20  C   UNL     1       4.540  -0.171  23.274  0.00  0.00    -0.013 C 
ATOM     28  C   UNL     1       5.009   0.008  21.798  0.00  0.00    +0.015 C 
ATOM     29  C   UNL     1       4.939  -1.610  23.724  0.00  0.00    +0.015 C 
ATOM     30  C   UNL     1       5.442   0.792  24.117  0.00  0.00    +0.015 C 
ENDBRANCH  22  20
ENDBRANCH  18  21
ENDBRANCH  13  15
ENDBRANCH   9  13
BRANCH   8  14
ATOM     14  C   UNL     1      -3.397   3.363  26.016  0.00  0.00    +0.099 C 
BRANCH  14  16
ATOM      2  O   UNL     1      -1.835   4.997  25.151  0.00  0.00    -0.276 OA
ATOM      5  N   UNL     1      -1.024   3.079  26.184  0.00  0.00    -0.314 N 
ATOM     16  C   UNL     1      -2.022   3.927  25.724  0.00  0.00    +0.213 C 
ATOM     34  H   UNL     1      -1.284   2.217  26.654  0.00  0.00    +0.149 HD
BRANCH   5  19
ATOM     19  C   UNL     1       0.384   3.366  26.038  0.00  0.00    +0.123 C 
BRANCH  19  23
ATOM     23  C   UNL     1       1.249   2.374  26.798  0.00  0.00    +0.123 C 
BRANCH  23   7
ATOM      3  O   UNL     1       2.989   2.846  29.074  0.00  0.00    -0.276 OA
ATOM      7  N   UNL     1       0.903   2.307  28.192  0.00  0.00    -0.314 N 
ATOM     31  C   UNL     1       1.806   2.550  29.217  0.00  0.00    +0.210 C 
ATOM     32  C   UNL     1       1.175   2.436  30.579  0.00  0.00    +0.109 C 
ATOM     35  H   UNL     1      -0.061   2.085  28.427  0.00  0.00    +0.149 HD
ENDBRANCH  23   7
ENDBRANCH  19  23
ENDBRANCH   5  19
ENDBRANCH  14  16
ENDBRANCH   8  14
TORSDOF 9
ENDMDL
MODEL 2
REMARK VINA RESULT:       3.7      2.431      3.557
REMARK  Name = 26743264
REMARK  13 active torsions:
REMARK  status: ('A' for Active; 'I' for Inactive)
REMARK    1  A    between atoms: N_5  and  C_19
REMARK    2  A    between atoms: N_7  and  C_23
REMARK    3  A    between atoms: C_8  and  C_14
REMARK    4  A    between atoms: C_9  and  C_13
REMARK    5  A    between atoms: C_13  and  C_15
REMARK    6  A    between atoms: C_14  and  C_16
REMARK    7  A    between atoms: C_18  and  C_21
REMARK    8  A    between atoms: C_19  and  C_23
REMARK    9  A    between atoms: C_20  and  C_22
REMARK   10  A    between atoms: C_20  and  C_28
REMARK   11  A    between atoms: C_20  and  C_29
REMARK   12  A    between atoms: C_20  and  C_30
REMARK   13  A    between atoms: C_31  and  C_32
REMARK                            x       y       z     vdW  Elec       q    Type
REMARK                         _______ _______ _______ _____ _____    ______ ____
ROOT
ATOM      4  N   UNL     1      -6.296   2.660  26.297  0.00  0.00    -0.316 NA
ATOM      8  C   UNL     1      -4.138   1.069  25.065  0.00  0.00    +0.004 C 
ATOM      9  C   UNL     1      -4.282   2.594  24.847  0.00  0.00    +0.012 C 
ATOM     10  C   UNL     1      -4.814   0.686  26.392  0.00  0.00    +0.019 C 
ATOM     11  C   UNL     1      -5.742   3.055  25.002  0.00  0.00    +0.085 C 
ATOM     12  C   UNL     1      -6.245   1.212  26.491  0.00  0.00    +0.081 C 
ATOM     33  H   UNL     1      -7.264   2.974  26.360  0.00  0.00    +0.122 HD
ENDROOT
BRANCH   9  13
ATOM     13  C   UNL     1      -3.710   3.065  23.509  0.00  0.00    +0.064 C 
BRANCH  13  15
ATOM      1  O   UNL     1      -1.197   0.936  22.054  0.00  0.00    -0.354 OA
ATOM      6  N   UNL     1      -2.481   1.463  22.108  0.00  0.00    -0.083 NA
ATOM     15  C   UNL     1      -2.469   2.304  23.146  0.00  0.00    +0.085 A 
ATOM     17  C   UNL     1      -1.215   2.348  23.780  0.00  0.00    +0.076 A 
ATOM     18  C   UNL     1      -0.451   1.471  23.055  0.00  0.00    +0.167 A 
BRANCH  18  21
ATOM     21  C   UNL     1       0.908   1.019  23.127  0.00  0.00    +0.020 A 
ATOM     22  C   UNL     1       3.551   0.140  23.270  0.00  0.00    -0.042 A 
ATOM     24  C   UNL     1       1.918   1.905  23.503  0.00  0.00    +0.012 A 
ATOM     25  C   UNL     1       1.219  -0.306  22.824  0.00  0.00    +0.012 A 
ATOM     26  C   UNL     1       3.239   1.465  23.573  0.00  0.00    +0.005 A 
ATOM     27  C   UNL     1       2.540  -0.746  22.895  0.00  0.00    +0.005 A 
BRANCH  22  20
ATOM     20  C   UNL     1       4.965  -0.330  23.346  0.00  0.00    -0.013 C 
ATOM     28  C   UNL     1       5.047  -1.790  23.889  0.00  0.00    +0.015 C 
ATOM     29  C   UNL     1       5.811   0.574  24.295  0.00  0.00    +0.015 C 
ATOM     30  C   UNL     1       5.740  -0.346  21.987  0.00  0.00    +0.015 C 
ENDBRANCH  22  20
ENDBRANCH  18  21
ENDBRANCH  13  15
ENDBRANCH   9  13
BRANCH   8  14
ATOM     14  C   UNL     1      -4.682   0.220  23.911  0.00  0.00    +0.099 C 
BRANCH  14  16
ATOM      2  O   UNL     1      -4.907  -2.189  23.878  0.00  0.00    -0.276 OA
ATOM      5  N   UNL     1      -2.796  -1.243  24.110  0.00  0.00    -0.314 N 
ATOM     16  C   UNL     1      -4.175  -1.206  23.960  0.00  0.00    +0.213 C 
ATOM     34  H   UNL     1      -2.280  -0.370  24.160  0.00  0.00    +0.149 HD
BRANCH   5  19
ATOM     19  C   UNL     1      -2.044  -2.474  24.188  0.00  0.00    +0.123 C 
BRANCH  19  23
ATOM     23  C   UNL     1      -0.747  -2.301  24.960  0.00  0.00    +0.123 C 
BRANCH  23   7
ATOM      3  O   UNL     1      -1.872  -0.735  27.130  0.00  0.00    -0.276 OA
ATOM      7  N   UNL     1      -0.481  -0.923  25.273  0.00  0.00    -0.314 N 
ATOM     31  C   UNL     1      -1.069  -0.252  26.337  0.00  0.00    +0.210 C 
ATOM     32  C   UNL     1      -0.597   1.173  26.452  0.00  0.00    +0.109 C 
ATOM     35  H   UNL     1       0.186  -0.427  24.688  0.00  0.00    +0.149 HD
ENDBRANCH  23   7
ENDBRANCH  19  23
ENDBRANCH   5  19
ENDBRANCH  14  16
ENDBRANCH   8  14
TORSDOF 9
ENDMDL
MODEL 3
REMARK VINA RESULT:       4.0      2.779      3.963
REMARK  Name = 26743264
REMARK  13 active torsions:
REMARK  status: ('A' for Active; 'I' for Inactive)
REMARK    1  A    between atoms: N_5  and  C_19
REMARK    2  A    between atoms: N_7  and  C_23
REMARK    3  A    between atoms: C_8  and  C_14
REMARK    4  A    between atoms: C_9  and  C_13
REMARK    5  A    between atoms: C_13  and  C_15
REMARK    6  A    between atoms: C_14  and  C_16
REMARK    7  A    between atoms: C_18  and  C_21
REMARK    8  A    between atoms: C_19  and  C_23
REMARK    9  A    between atoms: C_20  and  C_22
REMARK   10  A    between atoms: C_20  and  C_28
REMARK   11  A    between atoms: C_20  and  C_29
REMARK   12  A    between atoms: C_20  and  C_30
REMARK   13  A    between atoms: C_31  and  C_32
REMARK                            x       y       z     vdW  Elec       q    Type
REMARK                         _______ _______ _______ _____ _____    ______ ____
ROOT
ATOM      4  N   UNL     1      -6.526   2.904  26.773  0.00  0.00    -0.316 NA
ATOM      8  C   UNL     1      -4.414   1.486  25.277  0.00  0.00    +0.004 C 
ATOM      9  C   UNL     1      -4.551   3.028  25.273  0.00  0.00    +0.012 C 
ATOM     10  C   UNL     1      -5.058   0.929  26.558  0.00  0.00    +0.019 C 
ATOM     11  C   UNL     1      -6.002   3.470  25.530  0.00  0.00    +0.085 C 
ATOM     12  C   UNL     1      -6.482   1.443  26.766  0.00  0.00    +0.081 C 
ATOM     33  H   UNL     1      -7.489   3.212  26.904  0.00  0.00    +0.122 HD
ENDROOT
BRANCH   9  13
ATOM     13  C   UNL     1      -4.010   3.674  23.997  0.00  0.00    +0.064 C 
BRANCH  13  15
ATOM      1  O   UNL     1      -1.517   1.888  22.111  0.00  0.00    -0.354 OA
ATOM      6  N   UNL     1      -2.765   2.483  22.245  0.00  0.00    -0.083 NA
ATOM     15  C   UNL     1      -2.792   2.956  23.494  0.00  0.00    +0.085 A 
ATOM     17  C   UNL     1      -1.600   2.691  24.190  0.00  0.00    +0.076 A 
ATOM     18  C   UNL     1      -0.832   2.018  23.276  0.00  0.00    +0.167 A 
BRANCH  18  21
ATOM     21  C   UNL     1       0.484   1.448  23.290  0.00  0.00    +0.020 A 
ATOM     22  C   UNL     1       3.044   0.340  23.315  0.00  0.00    -0.042 A 
ATOM     24  C   UNL     1       0.661   0.096  22.997  0.00  0.00    +0.012 A 
ATOM     25  C   UNL     1       1.587   2.246  23.596  0.00  0.00    +0.012 A 
ATOM     26  C   UNL     1       1.941  -0.458  23.010  0.00  0.00    +0.005 A 
ATOM     27  C   UNL     1       2.866   1.692  23.608  0.00  0.00    +0.005 A 
BRANCH  22  20
ATOM     20  C   UNL     1       4.413  -0.253  23.328  0.00  0.00    -0.013 C 
ATOM     28  C   UNL     1       5.097  -0.128  21.933  0.00  0.00    +0.015 C 
ATOM     29  C   UNL     1       4.369  -1.768  23.698  0.00  0.00    +0.015 C 
ATOM     30  C   UNL     1       5.414   0.393  24.342  0.00  0.00    +0.015 C 
ENDBRANCH  22  20
ENDBRANCH  18  21
ENDBRANCH  13  15
ENDBRANCH   9  13
BRANCH   8  14
ATOM     14  C   UNL     1      -4.997   0.805  24.034  0.00  0.00    +0.099 C 
BRANCH  14  16
ATOM      2  O   UNL     1      -3.189  -0.391  22.960  0.00  0.00    -0.276 OA
ATOM      5  N   UNL     1      -4.807  -1.580  24.130  0.00  0.00    -0.314 N 
ATOM     16  C   UNL     1      -4.213  -0.428  23.636  0.00  0.00    +0.213 C 
ATOM     34  H   UNL     1      -5.652  -1.503  24.687  0.00  0.00    +0.149 HD
BRANCH   5  19
ATOM     19  C   UNL     1      -4.273  -2.903  23.901  0.00  0.00    +0.123 C 
BRANCH  19  23
ATOM     23  C   UNL     1      -3.272  -3.306  24.971  0.00  0.00    +0.123 C 
BRANCH  23   7
ATOM      3  O   UNL     1      -0.607  -2.228  24.567  0.00  0.00    -0.276 OA
ATOM      7  N   UNL     1      -2.682  -2.167  25.620  0.00  0.00    -0.314 N 
ATOM     31  C   UNL     1      -1.393  -1.721  25.362  0.00  0.00    +0.210 C 
ATOM     32  C   UNL     1      -1.036  -0.496  26.160  0.00  0.00    +0.109 C 
ATOM     35  H   UNL     1      -3.253  -1.658  26.290  0.00  0.00    +0.149 HD
ENDBRANCH  23   7
ENDBRANCH  19  23
ENDBRANCH   5  19
ENDBRANCH  14  16
ENDBRANCH   8  14
TORSDOF 9
ENDMDL
MODEL 4
REMARK VINA RESULT:       5.6      2.962      4.279
REMARK  Name = 26743264
REMARK  13 active torsions:
REMARK  status: ('A' for Active; 'I' for Inactive)
REMARK    1  A    between atoms: N_5  and  C_19
REMARK    2  A    between atoms: N_7  and  C_23
REMARK    3  A    between atoms: C_8  and  C_14
REMARK    4  A    between atoms: C_9  and  C_13
REMARK    5  A    between atoms: C_13  and  C_15
REMARK    6  A    between atoms: C_14  and  C_16
REMARK    7  A    between atoms: C_18  and  C_21
REMARK    8  A    between atoms: C_19  and  C_23
REMARK    9  A    between atoms: C_20  and  C_22
REMARK   10  A    between atoms: C_20  and  C_28
REMARK   11  A    between atoms: C_20  and  C_29
REMARK   12  A    between atoms: C_20  and  C_30
REMARK   13  A    between atoms: C_31  and  C_32
REMARK                            x       y       z     vdW  Elec       q    Type
REMARK                         _______ _______ _______ _____ _____    ______ ____
ROOT
ATOM      4  N   UNL     1      -2.130   5.618  25.395  0.00  0.00    -0.316 NA
ATOM      8  C   UNL     1      -3.632   3.093  25.678  0.00  0.00    +0.004 C 
ATOM      9  C   UNL     1      -2.468   3.267  24.672  0.00  0.00    +0.012 C 
ATOM     10  C   UNL     1      -3.457   4.103  26.825  0.00  0.00    +0.019 C 
ATOM     11  C   UNL     1      -2.303   4.734  24.242  0.00  0.00    +0.085 C 
ATOM     12  C   UNL     1      -3.259   5.531  26.320  0.00  0.00    +0.081 C 
ATOM     33  H   UNL     1      -2.033   6.580  25.071  0.00  0.00    +0.122 HD
ENDROOT
BRANCH   9  13
ATOM     13  C   UNL     1      -2.594   2.358  23.448  0.00  0.00    +0.064 C 
BRANCH  13  15
ATOM      1  O   UNL     1      -0.049   0.015  22.450  0.00  0.00    -0.354 OA
ATOM      6  N   UNL     1      -1.360   0.475  22.464  0.00  0.00    -0.083 NA
ATOM     15  C   UNL     1      -1.332   1.582  23.211  0.00  0.00    +0.085 A 
ATOM     17  C   UNL     1      -0.042   1.868  23.692  0.00  0.00    +0.076 A 
ATOM     18  C   UNL     1       0.727   0.853  23.185  0.00  0.00    +0.167 A 
BRANCH  18  21
ATOM     21  C   UNL     1       2.116   0.505  23.263  0.00  0.00    +0.020 A 
ATOM     22  C   UNL     1       4.818  -0.173  23.412  0.00  0.00    -0.042 A 
ATOM     24  C   UNL     1       2.491  -0.801  23.579  0.00  0.00    +0.012 A 
ATOM     25  C   UNL     1       3.092   1.472  23.021  0.00  0.00    +0.012 A 
ATOM     26  C   UNL     1       3.841  -1.139  23.654  0.00  0.00    +0.005 A 
ATOM     27  C   UNL     1       4.443   1.133  23.096  0.00  0.00    +0.005 A 
BRANCH  22  20
ATOM     20  C   UNL     1       6.262  -0.536  23.493  0.00  0.00    -0.013 C 
ATOM     28  C   UNL     1       6.539  -1.492  24.693  0.00  0.00    +0.015 C 
ATOM     29  C   UNL     1       7.154   0.730  23.684  0.00  0.00    +0.015 C 
ATOM     30  C   UNL     1       6.842  -1.266  22.236  0.00  0.00    +0.015 C 
ENDBRANCH  22  20
ENDBRANCH  18  21
ENDBRANCH  13  15
ENDBRANCH   9  13
BRANCH   8  14
ATOM     14  C   UNL     1      -5.023   3.218  25.049  0.00  0.00    +0.099 C 
BRANCH  14  16
ATOM      2  O   UNL     1      -6.906   1.715  24.826  0.00  0.00    -0.276 OA
ATOM      5  N   UNL     1      -4.747   0.860  24.731  0.00  0.00    -0.314 N 
ATOM     16  C   UNL     1      -5.688   1.871  24.858  0.00  0.00    +0.213 C 
ATOM     34  H   UNL     1      -3.759   1.096  24.764  0.00  0.00    +0.149 HD
BRANCH   5  19
ATOM     19  C   UNL     1      -5.100  -0.527  24.540  0.00  0.00    +0.123 C 
BRANCH  19  23
ATOM     23  C   UNL     1      -3.947  -1.335  23.967  0.00  0.00    +0.123 C 
BRANCH  23   7
ATOM      3  O   UNL     1      -1.680  -3.139  24.154  0.00  0.00    -0.276 OA
ATOM      7  N   UNL     1      -2.726  -1.131  24.697  0.00  0.00    -0.314 N 
ATOM     31  C   UNL     1      -1.690  -2.054  24.730  0.00  0.00    +0.210 C 
ATOM     32  C   UNL     1      -0.519  -1.579  25.548  0.00  0.00    +0.109 C 
ATOM     35  H   UNL     1      -2.618  -0.254  25.200  0.00  0.00    +0.149 HD
ENDBRANCH  23   7
ENDBRANCH  19  23
ENDBRANCH   5  19
ENDBRANCH  14  16
ENDBRANCH   8  14
TORSDOF 9
ENDMDL
MODEL 5
REMARK VINA RESULT:       5.6      2.254      4.479
REMARK  Name = 26743264
REMARK  13 active torsions:
REMARK  status: ('A' for Active; 'I' for Inactive)
REMARK    1  A    between atoms: N_5  and  C_19
REMARK    2  A    between atoms: N_7  and  C_23
REMARK    3  A    between atoms: C_8  and  C_14
REMARK    4  A    between atoms: C_9  and  C_13
REMARK    5  A    between atoms: C_13  and  C_15
REMARK    6  A    between atoms: C_14  and  C_16
REMARK    7  A    between atoms: C_18  and  C_21
REMARK    8  A    between atoms: C_19  and  C_23
REMARK    9  A    between atoms: C_20  and  C_22
REMARK   10  A    between atoms: C_20  and  C_28
REMARK   11  A    between atoms: C_20  and  C_29
REMARK   12  A    between atoms: C_20  and  C_30
REMARK   13  A    between atoms: C_31  and  C_32
REMARK                            x       y       z     vdW  Elec       q    Type
REMARK                         _______ _______ _______ _____ _____    ______ ____
ROOT
ATOM      4  N   UNL     1      -3.785  -2.864  24.414  0.00  0.00    -0.316 NA
ATOM      8  C   UNL     1      -3.292  -0.150  25.462  0.00  0.00    +0.004 C 
ATOM      9  C   UNL     1      -3.818  -0.410  24.031  0.00  0.00    +0.012 C 
ATOM     10  C   UNL     1      -3.661  -1.345  26.358  0.00  0.00    +0.019 C 
ATOM     11  C   UNL     1      -3.381  -1.789  23.507  0.00  0.00    +0.085 C 
ATOM     12  C   UNL     1      -3.231  -2.681  25.754  0.00  0.00    +0.081 C 
ATOM     33  H   UNL     1      -3.471  -3.758  24.038  0.00  0.00    +0.122 HD
ENDROOT
BRANCH   9  13
ATOM     13  C   UNL     1      -3.431   0.689  23.040  0.00  0.00    +0.064 C 
BRANCH  13  15
ATOM      1  O   UNL     1      -0.116   2.091  23.023  0.00  0.00    -0.354 OA
ATOM      6  N   UNL     1      -1.499   2.205  22.965  0.00  0.00    -0.083 NA
ATOM     15  C   UNL     1      -1.954   0.953  23.066  0.00  0.00    +0.085 A 
ATOM     17  C   UNL     1      -0.914   0.016  23.190  0.00  0.00    +0.076 A 
ATOM     18  C   UNL     1       0.221   0.782  23.156  0.00  0.00    +0.167 A 
BRANCH  18  21
ATOM     21  C   UNL     1       1.627   0.507  23.231  0.00  0.00    +0.020 A 
ATOM     22  C   UNL     1       4.360  -0.028  23.378  0.00  0.00    -0.042 A 
ATOM     24  C   UNL     1       2.550   1.536  23.040  0.00  0.00    +0.012 A 
ATOM     25  C   UNL     1       2.070  -0.789  23.496  0.00  0.00    +0.012 A 
ATOM     26  C   UNL     1       3.916   1.267  23.113  0.00  0.00    +0.005 A 
ATOM     27  C   UNL     1       3.437  -1.056  23.569  0.00  0.00    +0.005 A 
BRANCH  22  20
ATOM     20  C   UNL     1       5.822  -0.314  23.456  0.00  0.00    -0.013 C 
ATOM     28  C   UNL     1       6.122  -1.453  24.478  0.00  0.00    +0.015 C 
ATOM     29  C   UNL     1       6.622   0.947  23.909  0.00  0.00    +0.015 C 
ATOM     30  C   UNL     1       6.490  -0.770  22.116  0.00  0.00    +0.015 C 
ENDBRANCH  22  20
ENDBRANCH  18  21
ENDBRANCH  13  15
ENDBRANCH   9  13
BRANCH   8  14
ATOM     14  C   UNL     1      -1.788   0.139  25.530  0.00  0.00    +0.099 C 
BRANCH  14  16
ATOM      2  O   UNL     1      -0.431   1.911  26.465  0.00  0.00    -0.276 OA
ATOM      5  N   UNL     1      -2.583   2.389  25.729  0.00  0.00    -0.314 N 
ATOM     16  C   UNL     1      -1.496   1.560  25.966  0.00  0.00    +0.213 C 
ATOM     34  H   UNL     1      -3.419   2.002  25.303  0.00  0.00    +0.149 HD
BRANCH   5  19
ATOM     19  C   UNL     1      -2.583   3.798  26.049  0.00  0.00    +0.123 C 
BRANCH  19  23
ATOM     23  C   UNL     1      -3.934   4.442  25.784  0.00  0.00    +0.123 C 
BRANCH  23   7
ATOM      3  O   UNL     1      -5.916   2.650  26.919  0.00  0.00    -0.276 OA
ATOM      7  N   UNL     1      -4.825   3.563  25.076  0.00  0.00    -0.314 N 
ATOM     31  C   UNL     1      -5.746   2.737  25.706  0.00  0.00    +0.210 C 
ATOM     32  C   UNL     1      -6.568   1.940  24.730  0.00  0.00    +0.109 C 
ATOM     35  H   UNL     1      -4.781   3.566  24.061  0.00  0.00    +0.149 HD
ENDBRANCH  23   7
ENDBRANCH  19  23
ENDBRANCH   5  19
ENDBRANCH  14  16
ENDBRANCH   8  14
TORSDOF 9
ENDMDL
MODEL 6
REMARK VINA RESULT:       5.7      2.066      4.185
REMARK  Name = 26743264
REMARK  13 active torsions:
REMARK  status: ('A' for Active; 'I' for Inactive)
REMARK    1  A    between atoms: N_5  and  C_19
REMARK    2  A    between atoms: N_7  and  C_23
REMARK    3  A    between atoms: C_8  and  C_14
REMARK    4  A    between atoms: C_9  and  C_13
REMARK    5  A    between atoms: C_13  and  C_15
REMARK    6  A    between atoms: C_14  and  C_16
REMARK    7  A    between atoms: C_18  and  C_21
REMARK    8  A    between atoms: C_19  and  C_23
REMARK    9  A    between atoms: C_20  and  C_22
REMARK   10  A    between atoms: C_20  and  C_28
REMARK   11  A    between atoms: C_20  and  C_29
REMARK   12  A    between atoms: C_20  and  C_30
REMARK   13  A    between atoms: C_31  and  C_32
REMARK                            x       y       z     vdW  Elec       q    Type
REMARK                         _______ _______ _______ _____ _____    ______ ____
ROOT
ATOM      4  N   UNL     1      -2.413  -2.842  24.220  0.00  0.00    -0.316 NA
ATOM      8  C   UNL     1      -4.613  -0.884  24.030  0.00  0.00    +0.004 C 
ATOM      9  C   UNL     1      -3.261  -0.696  23.301  0.00  0.00    +0.012 C 
ATOM     10  C   UNL     1      -4.839  -2.384  24.289  0.00  0.00    +0.019 C 
ATOM     11  C   UNL     1      -2.117  -1.421  24.030  0.00  0.00    +0.085 C 
ATOM     12  C   UNL     1      -3.646  -3.043  24.979  0.00  0.00    +0.081 C 
ATOM     33  H   UNL     1      -1.637  -3.285  24.713  0.00  0.00    +0.122 HD
ENDROOT
BRANCH   9  13
ATOM     13  C   UNL     1      -2.904   0.773  23.068  0.00  0.00    +0.064 C 
BRANCH  13  15
ATOM      1  O   UNL     1       0.425   2.092  23.430  0.00  0.00    -0.354 OA
ATOM      6  N   UNL     1      -0.955   2.237  23.370  0.00  0.00    -0.083 NA
ATOM     15  C   UNL     1      -1.426   1.002  23.182  0.00  0.00    +0.085 A 
ATOM     17  C   UNL     1      -0.399   0.044  23.116  0.00  0.00    +0.076 A 
ATOM     18  C   UNL     1       0.745   0.781  23.277  0.00  0.00    +0.167 A 
BRANCH  18  21
ATOM     21  C   UNL     1       2.145   0.474  23.318  0.00  0.00    +0.020 A 
ATOM     22  C   UNL     1       4.869  -0.122  23.398  0.00  0.00    -0.042 A 
ATOM     24  C   UNL     1       3.083   1.455  22.995  0.00  0.00    +0.012 A 
ATOM     25  C   UNL     1       2.569  -0.804  23.681  0.00  0.00    +0.012 A 
ATOM     26  C   UNL     1       4.445   1.156  23.035  0.00  0.00    +0.005 A 
ATOM     27  C   UNL     1       3.931  -1.102  23.721  0.00  0.00    +0.005 A 
BRANCH  22  20
ATOM     20  C   UNL     1       6.326  -0.440  23.441  0.00  0.00    -0.013 C 
ATOM     28  C   UNL     1       6.636  -1.525  24.518  0.00  0.00    +0.015 C 
ATOM     29  C   UNL     1       7.171   0.824  23.788  0.00  0.00    +0.015 C 
ATOM     30  C   UNL     1       6.931  -0.992  22.108  0.00  0.00    +0.015 C 
ENDBRANCH  22  20
ENDBRANCH  18  21
ENDBRANCH  13  15
ENDBRANCH   9  13
BRANCH   8  14
ATOM     14  C   UNL     1      -4.737  -0.082  25.330  0.00  0.00    +0.099 C 
BRANCH  14  16
ATOM      2  O   UNL     1      -6.417   1.532  24.676  0.00  0.00    -0.276 OA
ATOM      5  N   UNL     1      -4.341   2.279  25.406  0.00  0.00    -0.314 N 
ATOM     16  C   UNL     1      -5.284   1.310  25.094  0.00  0.00    +0.213 C 
ATOM     34  H   UNL     1      -3.431   1.991  25.753  0.00  0.00    +0.149 HD
BRANCH   5  19
ATOM     19  C   UNL     1      -4.593   3.695  25.274  0.00  0.00    +0.123 C 
BRANCH  19  23
ATOM     23  C   UNL     1      -3.418   4.530  25.757  0.00  0.00    +0.123 C 
BRANCH  23   7
ATOM      3  O   UNL     1      -0.625   4.844  25.031  0.00  0.00    -0.276 OA
ATOM      7  N   UNL     1      -2.309   3.716  26.175  0.00  0.00    -0.314 N 
ATOM     31  C   UNL     1      -1.000   3.942  25.775  0.00  0.00    +0.210 C 
ATOM     32  C   UNL     1      -0.034   2.958  26.378  0.00  0.00    +0.109 C 
ATOM     35  H   UNL     1      -2.503   2.946  26.810  0.00  0.00    +0.149 HD
ENDBRANCH  23   7
ENDBRANCH  19  23
ENDBRANCH   5  19
ENDBRANCH  14  16
ENDBRANCH   8  14
TORSDOF 9
ENDMDL
MODEL 7
REMARK VINA RESULT:       6.9      2.205      7.421
REMARK  Name = 26743264
REMARK  13 active torsions:
REMARK  status: ('A' for Active; 'I' for Inactive)
REMARK    1  A    between atoms: N_5  and  C_19
REMARK    2  A    between atoms: N_7  and  C_23
REMARK    3  A    between atoms: C_8  and  C_14
REMARK    4  A    between atoms: C_9  and  C_13
REMARK    5  A    between atoms: C_13  and  C_15
REMARK    6  A    between atoms: C_14  and  C_16
REMARK    7  A    between atoms: C_18  and  C_21
REMARK    8  A    between atoms: C_19  and  C_23
REMARK    9  A    between atoms: C_20  and  C_22
REMARK   10  A    between atoms: C_20  and  C_28
REMARK   11  A    between atoms: C_20  and  C_29
REMARK   12  A    between atoms: C_20  and  C_30
REMARK   13  A    between atoms: C_31  and  C_32
REMARK                            x       y       z     vdW  Elec       q    Type
REMARK                         _______ _______ _______ _____ _____    ______ ____
ROOT
ATOM      4  N   UNL     1       5.499  -0.137  22.385  0.00  0.00    -0.316 NA
ATOM      8  C   UNL     1       2.956   0.546  23.718  0.00  0.00    +0.004 C 
ATOM      9  C   UNL     1       3.047  -0.485  22.566  0.00  0.00    +0.012 C 
ATOM     10  C   UNL     1       4.324   0.642  24.413  0.00  0.00    +0.019 C 
ATOM     11  C   UNL     1       4.241  -0.197  21.640  0.00  0.00    +0.085 C 
ATOM     12  C   UNL     1       5.465   0.888  23.426  0.00  0.00    +0.081 C 
ATOM     33  H   UNL     1       6.264   0.064  21.740  0.00  0.00    +0.122 HD
ENDROOT
BRANCH   9  13
ATOM     13  C   UNL     1       1.754  -0.596  21.758  0.00  0.00    +0.064 C 
BRANCH  13  15
ATOM      1  O   UNL     1      -0.815  -0.851  24.266  0.00  0.00    -0.354 OA
ATOM      6  N   UNL     1       0.381  -1.255  23.686  0.00  0.00    -0.083 NA
ATOM     15  C   UNL     1       0.546  -0.447  22.635  0.00  0.00    +0.085 A 
ATOM     17  C   UNL     1      -0.505   0.478  22.503  0.00  0.00    +0.076 A 
ATOM     18  C   UNL     1      -1.334   0.182  23.553  0.00  0.00    +0.167 A 
BRANCH  18  21
ATOM     21  C   UNL     1      -2.577   0.709  24.037  0.00  0.00    +0.020 A 
ATOM     22  C   UNL     1      -4.994   1.734  24.979  0.00  0.00    -0.042 A 
ATOM     24  C   UNL     1      -3.450  -0.111  24.752  0.00  0.00    +0.012 A 
ATOM     25  C   UNL     1      -2.911   2.041  23.792  0.00  0.00    +0.012 A 
ATOM     26  C   UNL     1      -4.658   0.402  25.223  0.00  0.00    +0.005 A 
ATOM     27  C   UNL     1      -4.120   2.553  24.263  0.00  0.00    +0.005 A 
BRANCH  22  20
ATOM     20  C   UNL     1      -6.286   2.282  25.483  0.00  0.00    -0.013 C 
ATOM     28  C   UNL     1      -7.449   1.998  24.483  0.00  0.00    +0.015 C 
ATOM     29  C   UNL     1      -6.206   3.827  25.685  0.00  0.00    +0.015 C 
ATOM     30  C   UNL     1      -6.769   1.708  26.856  0.00  0.00    +0.015 C 
ENDBRANCH  22  20
ENDBRANCH  18  21
ENDBRANCH  13  15
ENDBRANCH   9  13
BRANCH   8  14
ATOM     14  C   UNL     1       2.469   1.930  23.277  0.00  0.00    +0.099 C 
BRANCH  14  16
ATOM      2  O   UNL     1       0.490   3.270  23.658  0.00  0.00    -0.276 OA
ATOM      5  N   UNL     1       1.083   1.643  25.209  0.00  0.00    -0.314 N 
ATOM     16  C   UNL     1       1.239   2.374  24.040  0.00  0.00    +0.213 C 
ATOM     34  H   UNL     1       1.756   0.916  25.433  0.00  0.00    +0.149 HD
BRANCH   5  19
ATOM     19  C   UNL     1      -0.007   1.857  26.133  0.00  0.00    +0.123 C 
BRANCH  19  23
ATOM     23  C   UNL     1       0.313   2.940  27.150  0.00  0.00    +0.123 C 
BRANCH  23   7
ATOM      3  O   UNL     1       2.836   3.188  28.566  0.00  0.00    -0.276 OA
ATOM      7  N   UNL     1       0.651   2.394  28.437  0.00  0.00    -0.314 N 
ATOM     31  C   UNL     1       1.889   2.565  29.040  0.00  0.00    +0.210 C 
ATOM     32  C   UNL     1       1.967   1.911  30.393  0.00  0.00    +0.109 C 
ATOM     35  H   UNL     1      -0.068   1.871  28.930  0.00  0.00    +0.149 HD
ENDBRANCH  23   7
ENDBRANCH  19  23
ENDBRANCH   5  19
ENDBRANCH  14  16
ENDBRANCH   8  14
TORSDOF 9
ENDMDL
MODEL 8
REMARK VINA RESULT:       7.3      2.289      7.709
REMARK  Name = 26743264
REMARK  13 active torsions:
REMARK  status: ('A' for Active; 'I' for Inactive)
REMARK    1  A    between atoms: N_5  and  C_19
REMARK    2  A    between atoms: N_7  and  C_23
REMARK    3  A    between atoms: C_8  and  C_14
REMARK    4  A    between atoms: C_9  and  C_13
REMARK    5  A    between atoms: C_13  and  C_15
REMARK    6  A    between atoms: C_14  and  C_16
REMARK    7  A    between atoms: C_18  and  C_21
REMARK    8  A    between atoms: C_19  and  C_23
REMARK    9  A    between atoms: C_20  and  C_22
REMARK   10  A    between atoms: C_20  and  C_28
REMARK   11  A    between atoms: C_20  and  C_29
REMARK   12  A    between atoms: C_20  and  C_30
REMARK   13  A    between atoms: C_31  and  C_32
REMARK                            x       y       z     vdW  Elec       q    Type
REMARK                         _______ _______ _______ _____ _____    ______ ____
ROOT
ATOM      4  N   UNL     1       5.533  -0.128  22.412  0.00  0.00    -0.316 NA
ATOM      8  C   UNL     1       2.966   0.479  23.734  0.00  0.00    +0.004 C 
ATOM      9  C   UNL     1       3.083  -0.510  22.550  0.00  0.00    +0.012 C 
ATOM     10  C   UNL     1       4.324   0.567  24.451  0.00  0.00    +0.019 C 
ATOM     11  C   UNL     1       4.285  -0.177  21.649  0.00  0.00    +0.085 C 
ATOM     12  C   UNL     1       5.473   0.860  23.487  0.00  0.00    +0.081 C 
ATOM     33  H   UNL     1       6.303   0.103  21.784  0.00  0.00    +0.122 HD
ENDROOT
BRANCH   9  13
ATOM     13  C   UNL     1       1.801  -0.607  21.721  0.00  0.00    +0.064 C 
BRANCH  13  15
ATOM      1  O   UNL     1      -0.804  -0.932  24.184  0.00  0.00    -0.354 OA
ATOM      6  N   UNL     1       0.400  -1.320  23.610  0.00  0.00    -0.083 NA
ATOM     15  C   UNL     1       0.581  -0.482  22.585  0.00  0.00    +0.085 A 
ATOM     17  C   UNL     1      -0.467   0.447  22.465  0.00  0.00    +0.076 A 
ATOM     18  C   UNL     1      -1.311   0.121  23.494  0.00  0.00    +0.167 A 
BRANCH  18  21
ATOM     21  C   UNL     1      -2.561   0.635  23.975  0.00  0.00    +0.020 A 
ATOM     22  C   UNL     1      -4.990   1.636  24.912  0.00  0.00    -0.042 A 
ATOM     24  C   UNL     1      -3.275  -0.066  24.947  0.00  0.00    +0.012 A 
ATOM     25  C   UNL     1      -3.060   1.836  23.471  0.00  0.00    +0.012 A 
ATOM     26  C   UNL     1      -4.490   0.435  25.414  0.00  0.00    +0.005 A 
ATOM     27  C   UNL     1      -4.275   2.337  23.940  0.00  0.00    +0.005 A 
BRANCH  22  20
ATOM     20  C   UNL     1      -6.289   2.171  25.412  0.00  0.00    -0.013 C 
ATOM     28  C   UNL     1      -7.453   1.843  24.427  0.00  0.00    +0.015 C 
ATOM     29  C   UNL     1      -6.237   3.721  25.579  0.00  0.00    +0.015 C 
ATOM     30  C   UNL     1      -6.752   1.619  26.802  0.00  0.00    +0.015 C 
ENDBRANCH  22  20
ENDBRANCH  18  21
ENDBRANCH  13  15
ENDBRANCH   9  13
BRANCH   8  14
ATOM     14  C   UNL     1       2.468   1.873  23.336  0.00  0.00    +0.099 C 
BRANCH  14  16
ATOM      2  O   UNL     1       0.419   3.120  23.655  0.00  0.00    -0.276 OA
ATOM      5  N   UNL     1       1.023   1.501  25.209  0.00  0.00    -0.314 N 
ATOM     16  C   UNL     1       1.191   2.253  24.056  0.00  0.00    +0.213 C 
ATOM     34  H   UNL     1       1.718   0.800  25.450  0.00  0.00    +0.149 HD
BRANCH   5  19
ATOM     19  C   UNL     1      -0.109   1.655  26.093  0.00  0.00    +0.123 C 
BRANCH  19  23
ATOM     23  C   UNL     1      -0.307   3.101  26.518  0.00  0.00    +0.123 C 
BRANCH  23   7
ATOM      3  O   UNL     1      -0.791   5.514  24.979  0.00  0.00    -0.276 OA
ATOM      7  N   UNL     1      -1.576   3.624  26.088  0.00  0.00    -0.314 N 
ATOM     31  C   UNL     1      -1.712   4.792  25.351  0.00  0.00    +0.210 C 
ATOM     32  C   UNL     1      -3.146   5.097  25.013  0.00  0.00    +0.109 C 
ATOM     35  H   UNL     1      -2.410   3.094  26.328  0.00  0.00    +0.149 HD
ENDBRANCH  23   7
ENDBRANCH  19  23
ENDBRANCH   5  19
ENDBRANCH  14  16
ENDBRANCH   8  14
TORSDOF 9
ENDMDL
