MODEL 1
REMARK VINA RESULT:       6.3      0.000      0.000
REMARK  Name = 25338519
REMARK  5 active torsions:
REMARK  status: ('A' for Active; 'I' for Inactive)
REMARK    1  A    between atoms: N_3  and  C_13
REMARK    2  A    between atoms: N_4  and  C_8
REMARK    3  A    between atoms: C_9  and  C_12
REMARK    4  A    between atoms: C_14  and  C_16
REMARK    5  A    between atoms: C_15  and  C_17
REMARK                            x       y       z     vdW  Elec       q    Type
REMARK                         _______ _______ _______ _____ _____    ______ ____
ROOT
ATOM      3  N   UNL     1      -3.973   3.580  23.840  0.00  0.00    -0.293 NA
ATOM      8  C   UNL     1      -4.878   2.502  25.699  0.00  0.00    +0.089 C 
ATOM      9  C   UNL     1      -2.970   3.802  24.898  0.00  0.00    +0.147 C 
ATOM     10  C   UNL     1      -3.477   2.969  26.092  0.00  0.00    +0.052 C 
ATOM     11  C   UNL     1      -5.254   3.402  24.532  0.00  0.00    +0.107 C 
ATOM     13  C   UNL     1      -4.027   4.661  22.863  0.00  0.00    +0.105 C 
ENDROOT
BRANCH   9  12
ATOM      1  O   UNL     1      -0.722   4.457  24.200  0.00  0.00    -0.336 OA
ATOM      5  N   UNL     1      -1.022   2.242  24.355  0.00  0.00    -0.190 NA
ATOM      6  N   UNL     1       0.500   3.872  23.847  0.00  0.00    -0.056 NA
ATOM     12  C   UNL     1      -1.563   3.429  24.485  0.00  0.00    +0.245 A 
ATOM     15  C   UNL     1       0.244   2.565  23.963  0.00  0.00    +0.202 A 
BRANCH  15  17
ATOM     17  C   UNL     1       1.229   1.559  23.695  0.00  0.00    +0.023 A 
ATOM     18  C   UNL     1       2.587   1.875  23.772  0.00  0.00    +0.020 A 
ATOM     19  C   UNL     1       0.832   0.268  23.360  0.00  0.00    +0.012 A 
ATOM     22  C   UNL     1       3.565   0.901  23.514  0.00  0.00    -0.017 A 
ATOM     23  C   UNL     1       3.161  -0.412  23.173  0.00  0.00    -0.018 A 
ATOM     24  C   UNL     1       1.791  -0.712  23.101  0.00  0.00    +0.009 A 
ATOM     26  C   UNL     1       4.935   1.201  23.586  0.00  0.00    +0.008 A 
ATOM     27  C   UNL     1       4.138  -1.387  22.915  0.00  0.00    +0.008 A 
ATOM     29  C   UNL     1       5.893   0.220  23.326  0.00  0.00    +0.001 A 
ATOM     30  C   UNL     1       5.495  -1.070  22.991  0.00  0.00    +0.001 A 
ENDBRANCH  15  17
ENDBRANCH   9  12
BRANCH   8   4
ATOM      2  O   UNL     1      -2.646   0.697  25.749  0.00  0.00    -0.270 OA
ATOM      4  N   UNL     1      -4.886   1.111  25.315  0.00  0.00    -0.307 N 
ATOM     14  C   UNL     1      -3.752   0.316  25.374  0.00  0.00    +0.246 C 
ATOM     31  H   UNL     1      -5.740   0.754  24.897  0.00  0.00    +0.149 HD
BRANCH  14  16
ATOM      7  N   UNL     1      -3.477  -3.439  25.266  0.00  0.00    -0.263 NA
ATOM     16  C   UNL     1      -3.919  -1.087  24.918  0.00  0.00    +0.055 A 
ATOM     20  C   UNL     1      -4.641  -1.387  23.768  0.00  0.00    +0.016 A 
ATOM     21  C   UNL     1      -3.362  -2.141  25.626  0.00  0.00    +0.123 A 
ATOM     25  C   UNL     1      -4.782  -2.710  23.366  0.00  0.00    +0.020 A 
ATOM     28  C   UNL     1      -4.185  -3.691  24.143  0.00  0.00    +0.111 A 
ENDBRANCH  14  16
ENDBRANCH   8   4
TORSDOF 4
ENDMDL
MODEL 2
REMARK VINA RESULT:       6.4      1.808      4.906
REMARK  Name = 25338519
REMARK  5 active torsions:
REMARK  status: ('A' for Active; 'I' for Inactive)
REMARK    1  A    between atoms: N_3  and  C_13
REMARK    2  A    between atoms: N_4  and  C_8
REMARK    3  A    between atoms: C_9  and  C_12
REMARK    4  A    between atoms: C_14  and  C_16
REMARK    5  A    between atoms: C_15  and  C_17
REMARK                            x       y       z     vdW  Elec       q    Type
REMARK                         _______ _______ _______ _____ _____    ______ ____
ROOT
ATOM      3  N   UNL     1      -3.657  -0.688  26.074  0.00  0.00    -0.293 NA
ATOM      8  C   UNL     1      -4.923   0.807  24.809  0.00  0.00    +0.089 C 
ATOM      9  C   UNL     1      -3.495  -1.172  24.690  0.00  0.00    +0.147 C 
ATOM     10  C   UNL     1      -4.199  -0.109  23.823  0.00  0.00    +0.052 C 
ATOM     11  C   UNL     1      -4.945   0.012  26.106  0.00  0.00    +0.107 C 
ATOM     13  C   UNL     1      -3.592  -1.754  27.067  0.00  0.00    +0.105 C 
ENDROOT
BRANCH   9  12
ATOM      1  O   UNL     1      -1.691  -2.657  23.976  0.00  0.00    -0.336 OA
ATOM      5  N   UNL     1      -1.077  -0.514  24.201  0.00  0.00    -0.190 NA
ATOM      6  N   UNL     1      -0.331  -2.604  23.645  0.00  0.00    -0.056 NA
ATOM     12  C   UNL     1      -2.051  -1.385  24.290  0.00  0.00    +0.245 A 
ATOM     15  C   UNL     1      -0.042  -1.309  23.802  0.00  0.00    +0.202 A 
BRANCH  15  17
ATOM     17  C   UNL     1       1.269  -0.777  23.566  0.00  0.00    +0.023 A 
ATOM     18  C   UNL     1       2.396  -1.512  23.936  0.00  0.00    +0.020 A 
ATOM     19  C   UNL     1       1.416   0.472  22.969  0.00  0.00    +0.012 A 
ATOM     22  C   UNL     1       3.687  -1.006  23.712  0.00  0.00    -0.017 A 
ATOM     23  C   UNL     1       3.837   0.264  23.105  0.00  0.00    -0.018 A 
ATOM     24  C   UNL     1       2.691   0.989  22.739  0.00  0.00    +0.009 A 
ATOM     26  C   UNL     1       4.832  -1.732  24.078  0.00  0.00    +0.008 A 
ATOM     27  C   UNL     1       5.127   0.770  22.880  0.00  0.00    +0.008 A 
ATOM     29  C   UNL     1       6.107  -1.212  23.848  0.00  0.00    +0.001 A 
ATOM     30  C   UNL     1       6.254   0.035  23.251  0.00  0.00    +0.001 A 
ENDBRANCH  15  17
ENDBRANCH   9  12
BRANCH   8   4
ATOM      2  O   UNL     1      -2.823   1.838  23.145  0.00  0.00    -0.270 OA
ATOM      4  N   UNL     1      -4.229   2.063  24.975  0.00  0.00    -0.307 N 
ATOM     14  C   UNL     1      -3.224   2.476  24.115  0.00  0.00    +0.246 C 
ATOM     31  H   UNL     1      -4.437   2.596  25.814  0.00  0.00    +0.149 HD
BRANCH  14  16
ATOM      7  N   UNL     1      -0.586   5.038  24.933  0.00  0.00    -0.263 NA
ATOM     16  C   UNL     1      -2.591   3.781  24.437  0.00  0.00    +0.055 A 
ATOM     20  C   UNL     1      -3.353   4.940  24.547  0.00  0.00    +0.016 A 
ATOM     21  C   UNL     1      -1.224   3.883  24.637  0.00  0.00    +0.123 A 
ATOM     25  C   UNL     1      -2.733   6.146  24.850  0.00  0.00    +0.020 A 
ATOM     28  C   UNL     1      -1.359   6.142  25.032  0.00  0.00    +0.111 A 
ENDBRANCH  14  16
ENDBRANCH   8   4
TORSDOF 4
ENDMDL
MODEL 3
REMARK VINA RESULT:       9.3      1.890      4.635
REMARK  Name = 25338519
REMARK  5 active torsions:
REMARK  status: ('A' for Active; 'I' for Inactive)
REMARK    1  A    between atoms: N_3  and  C_13
REMARK    2  A    between atoms: N_4  and  C_8
REMARK    3  A    between atoms: C_9  and  C_12
REMARK    4  A    between atoms: C_14  and  C_16
REMARK    5  A    between atoms: C_15  and  C_17
REMARK                            x       y       z     vdW  Elec       q    Type
REMARK                         _______ _______ _______ _____ _____    ______ ____
ROOT
ATOM      3  N   UNL     1      -2.513  -1.620  25.454  0.00  0.00    -0.293 NA
ATOM      8  C   UNL     1      -4.580  -0.903  24.649  0.00  0.00    +0.089 C 
ATOM      9  C   UNL     1      -2.332  -1.597  23.990  0.00  0.00    +0.147 C 
ATOM     10  C   UNL     1      -3.637  -0.981  23.449  0.00  0.00    +0.052 C 
ATOM     11  C   UNL     1      -3.947  -1.827  25.678  0.00  0.00    +0.107 C 
ATOM     13  C   UNL     1      -1.705  -2.637  26.117  0.00  0.00    +0.105 C 
ENDROOT
BRANCH   9  12
ATOM      1  O   UNL     1      -1.311   0.235  22.738  0.00  0.00    -0.336 OA
ATOM      5  N   UNL     1       0.159  -1.059  23.825  0.00  0.00    -0.190 NA
ATOM      6  N   UNL     1      -0.046   0.768  22.463  0.00  0.00    -0.056 NA
ATOM     12  C   UNL     1      -1.102  -0.836  23.546  0.00  0.00    +0.245 A 
ATOM     15  C   UNL     1       0.768  -0.049  23.138  0.00  0.00    +0.202 A 
BRANCH  15  17
ATOM     17  C   UNL     1       2.192   0.117  23.149  0.00  0.00    +0.023 A 
ATOM     18  C   UNL     1       3.010  -0.910  23.621  0.00  0.00    +0.020 A 
ATOM     19  C   UNL     1       2.758   1.302  22.689  0.00  0.00    +0.012 A 
ATOM     22  C   UNL     1       4.407  -0.765  23.638  0.00  0.00    -0.017 A 
ATOM     23  C   UNL     1       4.983   0.441  23.170  0.00  0.00    -0.018 A 
ATOM     24  C   UNL     1       4.144   1.464  22.699  0.00  0.00    +0.009 A 
ATOM     26  C   UNL     1       5.245  -1.788  24.110  0.00  0.00    +0.008 A 
ATOM     27  C   UNL     1       6.379   0.587  23.187  0.00  0.00    +0.008 A 
ATOM     29  C   UNL     1       6.631  -1.625  24.119  0.00  0.00    +0.001 A 
ATOM     30  C   UNL     1       7.196  -0.440  23.659  0.00  0.00    +0.001 A 
ENDBRANCH  15  17
ENDBRANCH   9  12
BRANCH   8   4
ATOM      2  O   UNL     1      -3.679   1.490  23.345  0.00  0.00    -0.270 OA
ATOM      4  N   UNL     1      -4.690   0.446  25.151  0.00  0.00    -0.307 N 
ATOM     14  C   UNL     1      -4.223   1.544  24.444  0.00  0.00    +0.246 C 
ATOM     31  H   UNL     1      -5.036   0.557  26.099  0.00  0.00    +0.149 HD
BRANCH  14  16
ATOM      7  N   UNL     1      -5.866   4.592  25.924  0.00  0.00    -0.263 NA
ATOM     16  C   UNL     1      -4.388   2.861  25.110  0.00  0.00    +0.055 A 
ATOM     20  C   UNL     1      -3.285   3.592  25.538  0.00  0.00    +0.016 A 
ATOM     21  C   UNL     1      -5.646   3.400  25.326  0.00  0.00    +0.123 A 
ATOM     25  C   UNL     1      -3.471   4.822  26.158  0.00  0.00    +0.020 A 
ATOM     28  C   UNL     1      -4.770   5.274  26.326  0.00  0.00    +0.111 A 
ENDBRANCH  14  16
ENDBRANCH   8   4
TORSDOF 4
ENDMDL
