MODEL 1
REMARK VINA RESULT:      -4.9      0.000      0.000
REMARK  Name = 51137359
REMARK  5 active torsions:
REMARK  status: ('A' for Active; 'I' for Inactive)
REMARK    1  A    between atoms: N_3  and  C_11
REMARK    2  A    between atoms: C_7  and  C_12
REMARK    3  A    between atoms: C_11  and  C_13
REMARK    4  A    between atoms: C_14  and  C_15
REMARK    5  A    between atoms: C_15  and  C_18
REMARK                            x       y       z     vdW  Elec       q    Type
REMARK                         _______ _______ _______ _____ _____    ______ ____
ROOT
ATOM      2  O   UNL     1      -2.003   3.071  25.081  0.00  0.00    -0.424 OA
ATOM      4  N   UNL     1      -0.311   4.534  25.157  0.00  0.00    -0.112 NA
ATOM      5  N   UNL     1      -1.492   5.250  25.096  0.00  0.00    -0.112 NA
ATOM     12  C   UNL     1      -0.657   3.268  25.147  0.00  0.00    +0.222 A 
ATOM     14  C   UNL     1      -2.452   4.356  25.053  0.00  0.00    +0.222 A 
ENDROOT
BRANCH  12   7
ATOM      3  N   UNL     1       0.267   0.405  23.465  0.00  0.00    -0.297 NA
ATOM      7  C   UNL     1       0.211   2.031  25.197  0.00  0.00    +0.092 C 
ATOM      8  C   UNL     1      -0.572   0.771  25.592  0.00  0.00    +0.029 C 
ATOM      9  C   UNL     1       0.894   1.668  23.866  0.00  0.00    +0.097 C 
ATOM     10  C   UNL     1       0.008  -0.319  24.708  0.00  0.00    +0.085 C 
BRANCH   3  11
ATOM     11  C   UNL     1       1.086  -0.356  22.534  0.00  0.00    +0.119 C 
BRANCH  11  13
ATOM      1 CL   UNL     1       6.938   0.014  23.876  0.00  0.00    -0.084 Cl
ATOM     13  C   UNL     1       2.550  -0.263  22.870  0.00  0.00    -0.033 A 
ATOM     16  C   UNL     1       3.185  -1.322  23.518  0.00  0.00    +0.006 A 
ATOM     17  C   UNL     1       3.272   0.883  22.534  0.00  0.00    +0.006 A 
ATOM     22  C   UNL     1       4.542  -1.236  23.830  0.00  0.00    +0.020 A 
ATOM     23  C   UNL     1       4.629   0.969  22.846  0.00  0.00    +0.020 A 
ATOM     24  C   UNL     1       5.263  -0.091  23.494  0.00  0.00    +0.041 A 
ENDBRANCH  11  13
ENDBRANCH   3  11
ENDBRANCH  12   7
BRANCH  14  15
ATOM     15  C   UNL     1      -3.906   4.548  24.983  0.00  0.00    +0.135 C 
BRANCH  15  18
ATOM      6  N   UNL     1      -6.317   1.876  25.837  0.00  0.00    -0.360 N 
ATOM     18  C   UNL     1      -4.727   3.277  25.176  0.00  0.00    -0.013 A 
ATOM     19  C   UNL     1      -4.436   1.991  24.643  0.00  0.00    +0.003 A 
ATOM     20  C   UNL     1      -5.449   1.130  25.073  0.00  0.00    +0.047 A 
ATOM     21  C   UNL     1      -5.889   3.176  25.906  0.00  0.00    +0.087 A 
ATOM     25  C   UNL     1      -3.406   1.474  23.834  0.00  0.00    +0.010 A 
ATOM     26  C   UNL     1      -5.483  -0.227  24.731  0.00  0.00    +0.026 A 
ATOM     27  C   UNL     1      -3.426   0.119  23.484  0.00  0.00    +0.001 A 
ATOM     28  C   UNL     1      -4.449  -0.717  23.928  0.00  0.00    +0.002 A 
ATOM     29  H   UNL     1      -7.150   1.517  26.283  0.00  0.00    +0.165 HD
ENDBRANCH  15  18
ENDBRANCH  14  15
TORSDOF 5
ENDMDL
MODEL 2
REMARK VINA RESULT:      -3.1      3.159      5.539
REMARK  Name = 51137359
REMARK  5 active torsions:
REMARK  status: ('A' for Active; 'I' for Inactive)
REMARK    1  A    between atoms: N_3  and  C_11
REMARK    2  A    between atoms: C_7  and  C_12
REMARK    3  A    between atoms: C_11  and  C_13
REMARK    4  A    between atoms: C_14  and  C_15
REMARK    5  A    between atoms: C_15  and  C_18
REMARK                            x       y       z     vdW  Elec       q    Type
REMARK                         _______ _______ _______ _____ _____    ______ ____
ROOT
ATOM      2  O   UNL     1      -2.506  -0.975  24.607  0.00  0.00    -0.424 OA
ATOM      4  N   UNL     1      -1.659  -3.017  24.254  0.00  0.00    -0.112 NA
ATOM      5  N   UNL     1      -3.038  -3.121  24.261  0.00  0.00    -0.112 NA
ATOM     12  C   UNL     1      -1.394  -1.747  24.460  0.00  0.00    +0.222 A 
ATOM     14  C   UNL     1      -3.489  -1.907  24.471  0.00  0.00    +0.222 A 
ENDROOT
BRANCH  12   7
ATOM      3  N   UNL     1       0.280   1.206  23.865  0.00  0.00    -0.297 NA
ATOM      7  C   UNL     1      -0.058  -1.044  24.550  0.00  0.00    +0.092 C 
ATOM      8  C   UNL     1       0.671  -0.977  23.201  0.00  0.00    +0.029 C 
ATOM      9  C   UNL     1      -0.130   0.417  25.031  0.00  0.00    +0.097 C 
ATOM     10  C   UNL     1       1.297   0.406  23.185  0.00  0.00    +0.085 C 
BRANCH   3  11
ATOM     11  C   UNL     1       0.760   2.531  24.228  0.00  0.00    +0.119 C 
BRANCH  11  13
ATOM      1 CL   UNL     1      -3.568   5.868  26.741  0.00  0.00    -0.084 Cl
ATOM     13  C   UNL     1      -0.323   3.366  24.857  0.00  0.00    -0.033 A 
ATOM     16  C   UNL     1      -0.473   4.703  24.491  0.00  0.00    +0.006 A 
ATOM     17  C   UNL     1      -1.176   2.802  25.807  0.00  0.00    +0.006 A 
ATOM     22  C   UNL     1      -1.476   5.477  25.075  0.00  0.00    +0.020 A 
ATOM     23  C   UNL     1      -2.179   3.576  26.390  0.00  0.00    +0.020 A 
ATOM     24  C   UNL     1      -2.328   4.914  26.024  0.00  0.00    +0.041 A 
ENDBRANCH  11  13
ENDBRANCH   3  11
ENDBRANCH  12   7
BRANCH  14  15
ATOM     15  C   UNL     1      -4.874  -1.428  24.572  0.00  0.00    +0.135 C 
BRANCH  15  18
ATOM      6  N   UNL     1      -5.716   2.111  25.242  0.00  0.00    -0.360 N 
ATOM     18  C   UNL     1      -5.020   0.088  24.648  0.00  0.00    -0.013 A 
ATOM     19  C   UNL     1      -4.297   1.048  23.888  0.00  0.00    +0.003 A 
ATOM     20  C   UNL     1      -4.753   2.309  24.280  0.00  0.00    +0.047 A 
ATOM     21  C   UNL     1      -5.886   0.771  25.471  0.00  0.00    +0.087 A 
ATOM     25  C   UNL     1      -3.294   0.966  22.902  0.00  0.00    +0.010 A 
ATOM     26  C   UNL     1      -4.254   3.497  23.732  0.00  0.00    +0.026 A 
ATOM     27  C   UNL     1      -2.785   2.146  22.345  0.00  0.00    +0.001 A 
ATOM     28  C   UNL     1      -3.259   3.391  22.755  0.00  0.00    +0.002 A 
ATOM     29  H   UNL     1      -6.226   2.847  25.711  0.00  0.00    +0.165 HD
ENDBRANCH  15  18
ENDBRANCH  14  15
TORSDOF 5
ENDMDL
MODEL 3
REMARK VINA RESULT:      -2.8      1.651      2.771
REMARK  Name = 51137359
REMARK  5 active torsions:
REMARK  status: ('A' for Active; 'I' for Inactive)
REMARK    1  A    between atoms: N_3  and  C_11
REMARK    2  A    between atoms: C_7  and  C_12
REMARK    3  A    between atoms: C_11  and  C_13
REMARK    4  A    between atoms: C_14  and  C_15
REMARK    5  A    between atoms: C_15  and  C_18
REMARK                            x       y       z     vdW  Elec       q    Type
REMARK                         _______ _______ _______ _____ _____    ______ ____
ROOT
ATOM      2  O   UNL     1      -2.875   1.860  24.698  0.00  0.00    -0.424 OA
ATOM      4  N   UNL     1      -2.880   4.025  25.263  0.00  0.00    -0.112 NA
ATOM      5  N   UNL     1      -4.114   3.496  25.588  0.00  0.00    -0.112 NA
ATOM     12  C   UNL     1      -2.189   3.035  24.747  0.00  0.00    +0.222 A 
ATOM     14  C   UNL     1      -4.067   2.232  25.241  0.00  0.00    +0.222 A 
ENDROOT
BRANCH  12   7
ATOM      3  N   UNL     1       0.351   1.036  23.551  0.00  0.00    -0.297 NA
ATOM      7  C   UNL     1      -0.773   3.022  24.215  0.00  0.00    +0.092 C 
ATOM      8  C   UNL     1       0.254   2.584  25.269  0.00  0.00    +0.029 C 
ATOM      9  C   UNL     1      -0.542   2.074  23.024  0.00  0.00    +0.097 C 
ATOM     10  C   UNL     1       1.232   1.716  24.498  0.00  0.00    +0.085 C 
BRANCH   3  11
ATOM     11  C   UNL     1       1.084   0.344  22.501  0.00  0.00    +0.119 C 
BRANCH  11  13
ATOM      1 CL   UNL     1       6.845  -0.524  23.997  0.00  0.00    -0.084 Cl
ATOM     13  C   UNL     1       2.525   0.126  22.875  0.00  0.00    -0.033 A 
ATOM     16  C   UNL     1       3.463   1.134  22.652  0.00  0.00    +0.006 A 
ATOM     17  C   UNL     1       2.924  -1.083  23.445  0.00  0.00    +0.006 A 
ATOM     22  C   UNL     1       4.799   0.932  22.998  0.00  0.00    +0.020 A 
ATOM     23  C   UNL     1       4.260  -1.285  23.791  0.00  0.00    +0.020 A 
ATOM     24  C   UNL     1       5.197  -0.277  23.567  0.00  0.00    +0.041 A 
ENDBRANCH  11  13
ENDBRANCH   3  11
ENDBRANCH  12   7
BRANCH  14  15
ATOM     15  C   UNL     1      -5.095   1.190  25.358  0.00  0.00    +0.135 C 
BRANCH  15  18
ATOM      6  N   UNL     1      -4.720  -2.155  23.825  0.00  0.00    -0.360 N 
ATOM     18  C   UNL     1      -4.675  -0.182  24.841  0.00  0.00    -0.013 A 
ATOM     19  C   UNL     1      -3.418  -0.817  25.047  0.00  0.00    +0.003 A 
ATOM     20  C   UNL     1      -3.473  -2.054  24.399  0.00  0.00    +0.047 A 
ATOM     21  C   UNL     1      -5.454  -1.029  24.087  0.00  0.00    +0.087 A 
ATOM     25  C   UNL     1      -2.236  -0.457  25.722  0.00  0.00    +0.010 A 
ATOM     26  C   UNL     1      -2.400  -2.952  24.395  0.00  0.00    +0.026 A 
ATOM     27  C   UNL     1      -1.154  -1.346  25.727  0.00  0.00    +0.001 A 
ATOM     28  C   UNL     1      -1.237  -2.574  25.072  0.00  0.00    +0.002 A 
ATOM     29  H   UNL     1      -5.046  -2.948  23.289  0.00  0.00    +0.165 HD
ENDBRANCH  15  18
ENDBRANCH  14  15
TORSDOF 5
ENDMDL
MODEL 4
REMARK VINA RESULT:      -1.5      2.710      5.413
REMARK  Name = 51137359
REMARK  5 active torsions:
REMARK  status: ('A' for Active; 'I' for Inactive)
REMARK    1  A    between atoms: N_3  and  C_11
REMARK    2  A    between atoms: C_7  and  C_12
REMARK    3  A    between atoms: C_11  and  C_13
REMARK    4  A    between atoms: C_14  and  C_15
REMARK    5  A    between atoms: C_15  and  C_18
REMARK                            x       y       z     vdW  Elec       q    Type
REMARK                         _______ _______ _______ _____ _____    ______ ____
ROOT
ATOM      2  O   UNL     1      -3.446   3.262  25.626  0.00  0.00    -0.424 OA
ATOM      4  N   UNL     1      -5.079   4.624  26.324  0.00  0.00    -0.112 NA
ATOM      5  N   UNL     1      -3.920   5.370  26.209  0.00  0.00    -0.112 NA
ATOM     12  C   UNL     1      -4.755   3.401  25.974  0.00  0.00    +0.222 A 
ATOM     14  C   UNL     1      -2.994   4.535  25.800  0.00  0.00    +0.222 A 
ENDROOT
BRANCH  12   7
ATOM      3  N   UNL     1      -5.175   0.351  24.426  0.00  0.00    -0.297 NA
ATOM      7  C   UNL     1      -5.614   2.158  25.904  0.00  0.00    +0.092 C 
ATOM      8  C   UNL     1      -6.579   2.170  24.710  0.00  0.00    +0.029 C 
ATOM      9  C   UNL     1      -4.831   0.840  25.764  0.00  0.00    +0.097 C 
ATOM     10  C   UNL     1      -6.569   0.736  24.210  0.00  0.00    +0.085 C 
BRANCH   3  11
ATOM     11  C   UNL     1      -4.961  -1.081  24.282  0.00  0.00    +0.119 C 
BRANCH  11  13
ATOM      1 CL   UNL     1       0.671  -2.657  25.691  0.00  0.00    -0.084 Cl
ATOM     13  C   UNL     1      -3.552  -1.475  24.634  0.00  0.00    -0.033 A 
ATOM     16  C   UNL     1      -2.850  -0.761  25.605  0.00  0.00    +0.006 A 
ATOM     17  C   UNL     1      -2.947  -2.555  23.990  0.00  0.00    +0.006 A 
ATOM     22  C   UNL     1      -1.544  -1.126  25.931  0.00  0.00    +0.020 A 
ATOM     23  C   UNL     1      -1.641  -2.920  24.315  0.00  0.00    +0.020 A 
ATOM     24  C   UNL     1      -0.940  -2.205  25.286  0.00  0.00    +0.041 A 
ENDBRANCH  11  13
ENDBRANCH   3  11
ENDBRANCH  12   7
BRANCH  14  15
ATOM     15  C   UNL     1      -1.576   4.781  25.508  0.00  0.00    +0.135 C 
BRANCH  15  18
ATOM      6  N   UNL     1       0.814   1.958  25.512  0.00  0.00    -0.360 N 
ATOM     18  C   UNL     1      -0.744   3.522  25.283  0.00  0.00    -0.013 A 
ATOM     19  C   UNL     1      -0.948   2.541  24.274  0.00  0.00    +0.003 A 
ATOM     20  C   UNL     1       0.043   1.570  24.440  0.00  0.00    +0.047 A 
ATOM     21  C   UNL     1       0.346   3.137  26.029  0.00  0.00    +0.087 A 
ATOM     25  C   UNL     1      -1.883   2.383  23.233  0.00  0.00    +0.010 A 
ATOM     26  C   UNL     1       0.145   0.446  23.613  0.00  0.00    +0.026 A 
ATOM     27  C   UNL     1      -1.794   1.264  22.397  0.00  0.00    +0.001 A 
ATOM     28  C   UNL     1      -0.794   0.311  22.586  0.00  0.00    +0.002 A 
ATOM     29  H   UNL     1       1.610   1.445  25.867  0.00  0.00    +0.165 HD
ENDBRANCH  15  18
ENDBRANCH  14  15
TORSDOF 5
ENDMDL
MODEL 5
REMARK VINA RESULT:      -1.1      2.113      4.399
REMARK  Name = 51137359
REMARK  5 active torsions:
REMARK  status: ('A' for Active; 'I' for Inactive)
REMARK    1  A    between atoms: N_3  and  C_11
REMARK    2  A    between atoms: C_7  and  C_12
REMARK    3  A    between atoms: C_11  and  C_13
REMARK    4  A    between atoms: C_14  and  C_15
REMARK    5  A    between atoms: C_15  and  C_18
REMARK                            x       y       z     vdW  Elec       q    Type
REMARK                         _______ _______ _______ _____ _____    ______ ____
ROOT
ATOM      2  O   UNL     1      -4.229   1.529  24.362  0.00  0.00    -0.424 OA
ATOM      4  N   UNL     1      -5.293   3.076  25.579  0.00  0.00    -0.112 NA
ATOM      5  N   UNL     1      -6.057   1.924  25.590  0.00  0.00    -0.112 NA
ATOM     12  C   UNL     1      -4.236   2.800  24.851  0.00  0.00    +0.222 A 
ATOM     14  C   UNL     1      -5.398   1.049  24.867  0.00  0.00    +0.222 A 
ENDROOT
BRANCH  12   7
ATOM      3  N   UNL     1      -0.850   3.278  25.280  0.00  0.00    -0.297 NA
ATOM      7  C   UNL     1      -3.057   3.675  24.493  0.00  0.00    +0.092 C 
ATOM      8  C   UNL     1      -2.681   4.655  25.614  0.00  0.00    +0.029 C 
ATOM      9  C   UNL     1      -1.756   2.911  24.187  0.00  0.00    +0.097 C 
ATOM     10  C   UNL     1      -1.162   4.669  25.602  0.00  0.00    +0.085 C 
BRANCH   3  11
ATOM     11  C   UNL     1       0.550   3.084  24.935  0.00  0.00    +0.119 C 
BRANCH  11  13
ATOM      1 CL   UNL     1       1.307  -1.548  21.172  0.00  0.00    -0.084 Cl
ATOM     13  C   UNL     1       0.740   1.924  23.994  0.00  0.00    -0.033 A 
ATOM     16  C   UNL     1      -0.369   1.237  23.502  0.00  0.00    +0.006 A 
ATOM     17  C   UNL     1       2.025   1.537  23.613  0.00  0.00    +0.006 A 
ATOM     22  C   UNL     1      -0.193   0.162  22.630  0.00  0.00    +0.020 A 
ATOM     23  C   UNL     1       2.201   0.463  22.741  0.00  0.00    +0.020 A 
ATOM     24  C   UNL     1       1.091  -0.225  22.251  0.00  0.00    +0.041 A 
ENDBRANCH  11  13
ENDBRANCH   3  11
ENDBRANCH  12   7
BRANCH  14  15
ATOM     15  C   UNL     1      -5.740  -0.341  24.541  0.00  0.00    +0.135 C 
BRANCH  15  18
ATOM      6  N   UNL     1      -3.259  -2.925  23.620  0.00  0.00    -0.360 N 
ATOM     18  C   UNL     1      -4.541  -1.263  24.340  0.00  0.00    -0.013 A 
ATOM     19  C   UNL     1      -3.265  -1.138  24.956  0.00  0.00    +0.003 A 
ATOM     20  C   UNL     1      -2.479  -2.194  24.486  0.00  0.00    +0.047 A 
ATOM     21  C   UNL     1      -4.507  -2.371  23.525  0.00  0.00    +0.087 A 
ATOM     25  C   UNL     1      -2.700  -0.226  25.868  0.00  0.00    +0.010 A 
ATOM     26  C   UNL     1      -1.151  -2.383  24.887  0.00  0.00    +0.026 A 
ATOM     27  C   UNL     1      -1.373  -0.402  26.278  0.00  0.00    +0.001 A 
ATOM     28  C   UNL     1      -0.612  -1.465  25.794  0.00  0.00    +0.002 A 
ATOM     29  H   UNL     1      -2.953  -3.753  23.126  0.00  0.00    +0.165 HD
ENDBRANCH  15  18
ENDBRANCH  14  15
TORSDOF 5
ENDMDL
MODEL 6
REMARK VINA RESULT:      -1.0      2.140      6.284
REMARK  Name = 51137359
REMARK  5 active torsions:
REMARK  status: ('A' for Active; 'I' for Inactive)
REMARK    1  A    between atoms: N_3  and  C_11
REMARK    2  A    between atoms: C_7  and  C_12
REMARK    3  A    between atoms: C_11  and  C_13
REMARK    4  A    between atoms: C_14  and  C_15
REMARK    5  A    between atoms: C_15  and  C_18
REMARK                            x       y       z     vdW  Elec       q    Type
REMARK                         _______ _______ _______ _____ _____    ______ ____
ROOT
ATOM      2  O   UNL     1      -1.723   3.373  24.954  0.00  0.00    -0.424 OA
ATOM      4  N   UNL     1      -2.338   5.441  25.547  0.00  0.00    -0.112 NA
ATOM      5  N   UNL     1      -1.082   5.516  24.976  0.00  0.00    -0.112 NA
ATOM     12  C   UNL     1      -2.673   4.172  25.512  0.00  0.00    +0.222 A 
ATOM     14  C   UNL     1      -0.762   4.287  24.645  0.00  0.00    +0.222 A 
ENDROOT
BRANCH  12   7
ATOM      3  N   UNL     1      -5.018   1.749  24.798  0.00  0.00    -0.297 NA
ATOM      7  C   UNL     1      -3.936   3.495  25.994  0.00  0.00    +0.092 C 
ATOM      8  C   UNL     1      -5.195   4.007  25.279  0.00  0.00    +0.029 C 
ATOM      9  C   UNL     1      -3.965   1.968  25.796  0.00  0.00    +0.097 C 
ATOM     10  C   UNL     1      -6.037   2.761  25.071  0.00  0.00    +0.085 C 
BRANCH   3  11
ATOM     11  C   UNL     1      -5.549   0.395  24.834  0.00  0.00    +0.119 C 
BRANCH  11  13
ATOM      1 CL   UNL     1      -1.177  -3.732  24.637  0.00  0.00    -0.084 Cl
ATOM     13  C   UNL     1      -4.455  -0.637  24.784  0.00  0.00    -0.033 A 
ATOM     16  C   UNL     1      -3.396  -0.575  25.689  0.00  0.00    +0.006 A 
ATOM     17  C   UNL     1      -4.500  -1.657  23.833  0.00  0.00    +0.006 A 
ATOM     22  C   UNL     1      -2.382  -1.532  25.643  0.00  0.00    +0.020 A 
ATOM     23  C   UNL     1      -3.486  -2.614  23.786  0.00  0.00    +0.020 A 
ATOM     24  C   UNL     1      -2.427  -2.550  24.692  0.00  0.00    +0.041 A 
ENDBRANCH  11  13
ENDBRANCH   3  11
ENDBRANCH  12   7
BRANCH  14  15
ATOM     15  C   UNL     1       0.456   3.777  24.003  0.00  0.00    +0.135 C 
BRANCH  15  18
ATOM      6  N   UNL     1      -0.073   0.119  23.864  0.00  0.00    -0.360 N 
ATOM     18  C   UNL     1       0.513   2.260  23.857  0.00  0.00    -0.013 A 
ATOM     19  C   UNL     1       1.634   1.491  23.437  0.00  0.00    +0.003 A 
ATOM     20  C   UNL     1       1.239   0.151  23.450  0.00  0.00    +0.047 A 
ATOM     21  C   UNL     1      -0.521   1.390  24.113  0.00  0.00    +0.087 A 
ATOM     25  C   UNL     1       2.949   1.807  23.046  0.00  0.00    +0.010 A 
ATOM     26  C   UNL     1       2.099  -0.893  23.089  0.00  0.00    +0.026 A 
ATOM     27  C   UNL     1       3.821   0.773  22.682  0.00  0.00    +0.001 A 
ATOM     28  C   UNL     1       3.400  -0.556  22.705  0.00  0.00    +0.002 A 
ATOM     29  H   UNL     1      -0.626  -0.721  23.969  0.00  0.00    +0.165 HD
ENDBRANCH  15  18
ENDBRANCH  14  15
TORSDOF 5
ENDMDL
MODEL 7
REMARK VINA RESULT:      -0.9      2.783      6.672
REMARK  Name = 51137359
REMARK  5 active torsions:
REMARK  status: ('A' for Active; 'I' for Inactive)
REMARK    1  A    between atoms: N_3  and  C_11
REMARK    2  A    between atoms: C_7  and  C_12
REMARK    3  A    between atoms: C_11  and  C_13
REMARK    4  A    between atoms: C_14  and  C_15
REMARK    5  A    between atoms: C_15  and  C_18
REMARK                            x       y       z     vdW  Elec       q    Type
REMARK                         _______ _______ _______ _____ _____    ______ ____
ROOT
ATOM      2  O   UNL     1      -3.044  -0.566  24.307  0.00  0.00    -0.424 OA
ATOM      4  N   UNL     1      -4.830  -1.905  24.155  0.00  0.00    -0.112 NA
ATOM      5  N   UNL     1      -3.698  -2.698  24.124  0.00  0.00    -0.112 NA
ATOM     12  C   UNL     1      -4.401  -0.669  24.263  0.00  0.00    +0.222 A 
ATOM     14  C   UNL     1      -2.680  -1.874  24.215  0.00  0.00    +0.222 A 
ENDROOT
BRANCH  12   7
ATOM      3  N   UNL     1      -4.535   2.462  25.697  0.00  0.00    -0.297 NA
ATOM      7  C   UNL     1      -5.187   0.621  24.343  0.00  0.00    +0.092 C 
ATOM      8  C   UNL     1      -6.049   0.713  25.610  0.00  0.00    +0.029 C 
ATOM      9  C   UNL     1      -4.328   1.898  24.359  0.00  0.00    +0.097 C 
ATOM     10  C   UNL     1      -5.924   2.164  26.041  0.00  0.00    +0.085 C 
BRANCH   3  11
ATOM     11  C   UNL     1      -4.236   3.885  25.756  0.00  0.00    +0.119 C 
BRANCH  11  13
ATOM      1 CL   UNL     1       0.827   5.236  22.803  0.00  0.00    -0.084 Cl
ATOM     13  C   UNL     1      -2.969   4.223  25.018  0.00  0.00    -0.033 A 
ATOM     16  C   UNL     1      -2.582   3.464  23.914  0.00  0.00    +0.006 A 
ATOM     17  C   UNL     1      -2.181   5.295  25.438  0.00  0.00    +0.006 A 
ATOM     22  C   UNL     1      -1.407   3.777  23.230  0.00  0.00    +0.020 A 
ATOM     23  C   UNL     1      -1.007   5.608  24.753  0.00  0.00    +0.020 A 
ATOM     24  C   UNL     1      -0.620   4.848  23.650  0.00  0.00    +0.041 A 
ENDBRANCH  11  13
ENDBRANCH   3  11
ENDBRANCH  12   7
BRANCH  14  15
ATOM     15  C   UNL     1      -1.241  -2.165  24.234  0.00  0.00    +0.135 C 
BRANCH  15  18
ATOM      6  N   UNL     1       1.196   0.460  23.313  0.00  0.00    -0.360 N 
ATOM     18  C   UNL     1      -0.342  -0.942  24.084  0.00  0.00    -0.013 A 
ATOM     19  C   UNL     1      -0.324   0.205  24.925  0.00  0.00    +0.003 A 
ATOM     20  C   UNL     1       0.650   1.070  24.419  0.00  0.00    +0.047 A 
ATOM     21  C   UNL     1       0.604  -0.756  23.102  0.00  0.00    +0.087 A 
ATOM     25  C   UNL     1      -1.046   0.593  26.070  0.00  0.00    +0.010 A 
ATOM     26  C   UNL     1       0.939   2.308  25.004  0.00  0.00    +0.026 A 
ATOM     27  C   UNL     1      -0.768   1.829  26.667  0.00  0.00    +0.001 A 
ATOM     28  C   UNL     1       0.210   2.671  26.141  0.00  0.00    +0.002 A 
ATOM     29  H   UNL     1       1.930   0.854  22.739  0.00  0.00    +0.165 HD
ENDBRANCH  15  18
ENDBRANCH  14  15
TORSDOF 5
ENDMDL
