MODEL 1
REMARK VINA RESULT:      -1.5      0.000      0.000
REMARK  Name = 11884011
REMARK  6 active torsions:
REMARK  status: ('A' for Active; 'I' for Inactive)
REMARK    1  A    between atoms: S_2  and  N_9
REMARK    2  A    between atoms: S_2  and  C_17
REMARK    3  A    between atoms: O_5  and  C_14
REMARK    4  A    between atoms: O_5  and  C_18
REMARK    5  A    between atoms: N_9  and  C_13
REMARK    6  A    between atoms: N_10  and  C_21
REMARK                            x       y       z     vdW  Elec       q    Type
REMARK                         _______ _______ _______ _____ _____    ______ ____
ROOT
ATOM      3  O   UNL     1      -4.514  -9.269  13.474  0.00  0.00    -0.369 OA
ATOM      4  O   UNL     1      -1.618 -10.304  13.481  0.00  0.00    -0.368 OA
ATOM     11  C   UNL     1      -2.807 -10.781  12.818  0.00  0.00    +0.171 C 
ATOM     12  C   UNL     1      -3.962 -10.561  13.776  0.00  0.00    +0.191 C 
ATOM     13  C   UNL     1      -3.132  -9.892  11.644  0.00  0.00    +0.133 C 
ATOM     14  C   UNL     1      -3.280 -10.578  15.122  0.00  0.00    +0.235 C 
ATOM     15  C   UNL     1      -3.895  -8.750  12.287  0.00  0.00    +0.183 C 
ATOM     16  C   UNL     1      -1.958  -9.911  14.819  0.00  0.00    +0.207 C 
ENDROOT
BRANCH  13   9
ATOM      9  N   UNL     1      -4.014 -10.611  10.693  0.00  0.00    -0.182 NA
ATOM     34  H   UNL     1      -4.151 -11.618  10.838  0.00  0.00    +0.148 HD
BRANCH   9   2
ATOM      2  S   UNL     1      -4.433  -9.886   9.217  0.00  0.00    +0.059 S 
ATOM      6  O   UNL     1      -4.095 -10.781   8.126  0.00  0.00    -0.153 OA
ATOM      7  O   UNL     1      -3.950  -8.518   9.215  0.00  0.00    -0.153 OA
BRANCH   2  17
ATOM      1 CL   UNL     1     -10.670  -9.620   9.631  0.00  0.00    -0.084 Cl
ATOM     17  C   UNL     1      -6.195  -9.811   9.333  0.00  0.00    +0.105 A 
ATOM     19  C   UNL     1      -6.964 -10.520   8.427  0.00  0.00    +0.030 A 
ATOM     20  C   UNL     1      -6.774  -9.043  10.329  0.00  0.00    +0.030 A 
ATOM     22  C   UNL     1      -8.355 -10.461   8.520  0.00  0.00    +0.022 A 
ATOM     23  C   UNL     1      -8.164  -8.984  10.422  0.00  0.00    +0.022 A 
ATOM     25  C   UNL     1      -8.954  -9.693   9.517  0.00  0.00    +0.041 A 
ENDBRANCH   2  17
ENDBRANCH   9   2
ENDBRANCH  13   9
BRANCH  14   5
ATOM      5  O   UNL     1      -4.000  -9.898  16.126  0.00  0.00    -0.442 OA
BRANCH   5  18
ATOM      8  O   UNL     1      -5.787 -10.780  17.247  0.00  0.00    -0.226 OA
ATOM     10  N   UNL     1      -6.024  -9.797  15.137  0.00  0.00    -0.251 N 
ATOM     18  C   UNL     1      -5.336 -10.215  16.259  0.00  0.00    +0.405 C 
ATOM     35  H   UNL     1      -5.444  -9.347  14.437  0.00  0.00    +0.158 HD
BRANCH  10  21
ATOM     21  C   UNL     1      -7.405  -9.924  14.864  0.00  0.00    +0.044 A 
ATOM     24  C   UNL     1      -8.368  -9.388  15.722  0.00  0.00    +0.003 A 
ATOM     26  C   UNL     1      -7.759 -10.605  13.706  0.00  0.00    +0.024 A 
ATOM     27  C   UNL     1      -9.736  -9.547  15.397  0.00  0.00    -0.016 A 
ATOM     28  C   UNL     1      -8.017  -8.697  16.894  0.00  0.00    +0.010 A 
ATOM     29  C   UNL     1      -9.104 -10.762  13.386  0.00  0.00    +0.002 A 
ATOM     30  C   UNL     1     -10.088 -10.237  14.226  0.00  0.00    +0.008 A 
ATOM     31  C   UNL     1     -10.713  -9.012  16.254  0.00  0.00    +0.008 A 
ATOM     32  C   UNL     1      -8.999  -8.173  17.733  0.00  0.00    +0.001 A 
ATOM     33  C   UNL     1     -10.345  -8.330  17.413  0.00  0.00    +0.001 A 
ENDBRANCH  10  21
ENDBRANCH   5  18
ENDBRANCH  14   5
TORSDOF 6
ENDMDL
MODEL 2
REMARK VINA RESULT:      -1.1     14.754     17.390
REMARK  Name = 11884011
REMARK  6 active torsions:
REMARK  status: ('A' for Active; 'I' for Inactive)
REMARK    1  A    between atoms: S_2  and  N_9
REMARK    2  A    between atoms: S_2  and  C_17
REMARK    3  A    between atoms: O_5  and  C_14
REMARK    4  A    between atoms: O_5  and  C_18
REMARK    5  A    between atoms: N_9  and  C_13
REMARK    6  A    between atoms: N_10  and  C_21
REMARK                            x       y       z     vdW  Elec       q    Type
REMARK                         _______ _______ _______ _____ _____    ______ ____
ROOT
ATOM      3  O   UNL     1      -1.949  -0.224  24.351  0.00  0.00    -0.369 OA
ATOM      4  O   UNL     1      -2.309  -3.006  25.610  0.00  0.00    -0.368 OA
ATOM     11  C   UNL     1      -1.414  -2.523  24.586  0.00  0.00    +0.171 C 
ATOM     12  C   UNL     1      -2.193  -1.513  23.765  0.00  0.00    +0.191 C 
ATOM     13  C   UNL     1      -0.307  -1.711  25.210  0.00  0.00    +0.133 C 
ATOM     14  C   UNL     1      -3.621  -1.958  23.964  0.00  0.00    +0.235 C 
ATOM     15  C   UNL     1      -0.941  -0.342  25.366  0.00  0.00    +0.183 C 
ATOM     16  C   UNL     1      -3.609  -2.438  25.398  0.00  0.00    +0.207 C 
ENDROOT
BRANCH  13   9
ATOM      9  N   UNL     1       0.845  -1.627  24.281  0.00  0.00    -0.182 NA
ATOM     34  H   UNL     1       1.564  -2.357  24.347  0.00  0.00    +0.148 HD
BRANCH   9   2
ATOM      2  S   UNL     1       1.155  -0.181  23.449  0.00  0.00    +0.059 S 
ATOM      6  O   UNL     1       0.750   0.945  24.270  0.00  0.00    -0.153 OA
ATOM      7  O   UNL     1       0.663  -0.309  22.091  0.00  0.00    -0.153 OA
BRANCH   2  17
ATOM      1 CL   UNL     1       7.404  -0.186  23.136  0.00  0.00    -0.084 Cl
ATOM     17  C   UNL     1       2.921  -0.182  23.360  0.00  0.00    +0.105 A 
ATOM     19  C   UNL     1       3.573   0.924  22.845  0.00  0.00    +0.030 A 
ATOM     20  C   UNL     1       3.619  -1.291  23.807  0.00  0.00    +0.030 A 
ATOM     22  C   UNL     1       4.966   0.923  22.775  0.00  0.00    +0.022 A 
ATOM     23  C   UNL     1       5.012  -1.292  23.738  0.00  0.00    +0.022 A 
ATOM     25  C   UNL     1       5.685  -0.185  23.222  0.00  0.00    +0.041 A 
ENDBRANCH   2  17
ENDBRANCH   9   2
ENDBRANCH  13   9
BRANCH  14   5
ATOM      5  O   UNL     1      -4.564  -0.930  23.756  0.00  0.00    -0.442 OA
BRANCH   5  18
ATOM      8  O   UNL     1      -4.878  -0.112  25.868  0.00  0.00    -0.226 OA
ATOM     10  N   UNL     1      -4.281   1.282  24.085  0.00  0.00    -0.251 N 
ATOM     18  C   UNL     1      -4.600   0.083  24.691  0.00  0.00    +0.405 C 
ATOM     35  H   UNL     1      -4.084   1.208  23.094  0.00  0.00    +0.158 HD
BRANCH  10  21
ATOM     21  C   UNL     1      -4.202   2.564  24.677  0.00  0.00    +0.044 A 
ATOM     24  C   UNL     1      -3.007   3.288  24.686  0.00  0.00    +0.003 A 
ATOM     26  C   UNL     1      -5.364   3.067  25.249  0.00  0.00    +0.024 A 
ATOM     27  C   UNL     1      -2.989   4.565  25.294  0.00  0.00    -0.016 A 
ATOM     28  C   UNL     1      -1.829   2.785  24.109  0.00  0.00    +0.010 A 
ATOM     29  C   UNL     1      -5.346   4.324  25.846  0.00  0.00    +0.002 A 
ATOM     30  C   UNL     1      -4.166   5.069  25.871  0.00  0.00    +0.008 A 
ATOM     31  C   UNL     1      -1.793   5.303  25.309  0.00  0.00    +0.008 A 
ATOM     32  C   UNL     1      -0.651   3.530  24.134  0.00  0.00    +0.001 A 
ATOM     33  C   UNL     1      -0.632   4.787  24.732  0.00  0.00    +0.001 A 
ENDBRANCH  10  21
ENDBRANCH   5  18
ENDBRANCH  14   5
TORSDOF 6
ENDMDL
MODEL 3
REMARK VINA RESULT:       1.4     14.728     17.389
REMARK  Name = 11884011
REMARK  6 active torsions:
REMARK  status: ('A' for Active; 'I' for Inactive)
REMARK    1  A    between atoms: S_2  and  N_9
REMARK    2  A    between atoms: S_2  and  C_17
REMARK    3  A    between atoms: O_5  and  C_14
REMARK    4  A    between atoms: O_5  and  C_18
REMARK    5  A    between atoms: N_9  and  C_13
REMARK    6  A    between atoms: N_10  and  C_21
REMARK                            x       y       z     vdW  Elec       q    Type
REMARK                         _______ _______ _______ _____ _____    ______ ____
ROOT
ATOM      3  O   UNL     1      -2.111   2.219  24.264  0.00  0.00    -0.369 OA
ATOM      4  O   UNL     1      -0.650   4.824  24.998  0.00  0.00    -0.368 OA
ATOM     11  C   UNL     1      -0.347   3.441  25.277  0.00  0.00    +0.171 C 
ATOM     12  C   UNL     1      -1.671   2.744  25.528  0.00  0.00    +0.191 C 
ATOM     13  C   UNL     1       0.190   2.771  24.038  0.00  0.00    +0.133 C 
ATOM     14  C   UNL     1      -2.553   3.874  26.001  0.00  0.00    +0.235 C 
ATOM     15  C   UNL     1      -1.072   2.390  23.287  0.00  0.00    +0.183 C 
ATOM     16  C   UNL     1      -2.058   5.035  25.169  0.00  0.00    +0.207 C 
ENDROOT
BRANCH  13   9
ATOM      9  N   UNL     1       0.941   1.548  24.408  0.00  0.00    -0.182 NA
ATOM     34  H   UNL     1       1.532   1.587  25.246  0.00  0.00    +0.148 HD
BRANCH   9   2
ATOM      2  S   UNL     1       1.129   0.297  23.276  0.00  0.00    +0.059 S 
ATOM      6  O   UNL     1       0.727   0.769  21.963  0.00  0.00    -0.153 OA
ATOM      7  O   UNL     1       0.555  -0.917  23.822  0.00  0.00    -0.153 OA
BRANCH   2  17
ATOM      1 CL   UNL     1       7.337  -0.480  23.227  0.00  0.00    -0.084 Cl
ATOM     17  C   UNL     1       2.883   0.078  23.262  0.00  0.00    +0.105 A 
ATOM     19  C   UNL     1       3.689   1.103  22.800  0.00  0.00    +0.030 A 
ATOM     20  C   UNL     1       3.418  -1.117  23.713  0.00  0.00    +0.030 A 
ATOM     22  C   UNL     1       5.074   0.930  22.789  0.00  0.00    +0.022 A 
ATOM     23  C   UNL     1       4.802  -1.290  23.703  0.00  0.00    +0.022 A 
ATOM     25  C   UNL     1       5.629  -0.267  23.241  0.00  0.00    +0.041 A 
ENDBRANCH   2  17
ENDBRANCH   9   2
ENDBRANCH  13   9
BRANCH  14   5
ATOM      5  O   UNL     1      -3.929   3.631  25.811  0.00  0.00    -0.442 OA
BRANCH   5  18
ATOM      8  O   UNL     1      -4.905   2.731  23.950  0.00  0.00    -0.226 OA
ATOM     10  N   UNL     1      -3.784   1.401  25.516  0.00  0.00    -0.251 N 
ATOM     18  C   UNL     1      -4.269   2.579  24.985  0.00  0.00    +0.405 C 
ATOM     35  H   UNL     1      -3.282   1.513  26.389  0.00  0.00    +0.158 HD
BRANCH  10  21
ATOM     21  C   UNL     1      -3.909   0.093  24.991  0.00  0.00    +0.044 A 
ATOM     24  C   UNL     1      -2.899  -0.857  25.160  0.00  0.00    +0.003 A 
ATOM     26  C   UNL     1      -5.079  -0.201  24.303  0.00  0.00    +0.024 A 
ATOM     27  C   UNL     1      -3.080  -2.149  24.612  0.00  0.00    -0.016 A 
ATOM     28  C   UNL     1      -1.714  -0.566  25.856  0.00  0.00    +0.010 A 
ATOM     29  C   UNL     1      -5.257  -1.472  23.765  0.00  0.00    +0.002 A 
ATOM     30  C   UNL     1      -4.264  -2.441  23.917  0.00  0.00    +0.008 A 
ATOM     31  C   UNL     1      -2.070  -3.112  24.776  0.00  0.00    +0.008 A 
ATOM     32  C   UNL     1      -0.722  -1.534  26.008  0.00  0.00    +0.001 A 
ATOM     33  C   UNL     1      -0.900  -2.805  25.469  0.00  0.00    +0.001 A 
ENDBRANCH  10  21
ENDBRANCH   5  18
ENDBRANCH  14   5
TORSDOF 6
ENDMDL
MODEL 4
REMARK VINA RESULT:       1.5     14.419     17.692
REMARK  Name = 11884011
REMARK  6 active torsions:
REMARK  status: ('A' for Active; 'I' for Inactive)
REMARK    1  A    between atoms: S_2  and  N_9
REMARK    2  A    between atoms: S_2  and  C_17
REMARK    3  A    between atoms: O_5  and  C_14
REMARK    4  A    between atoms: O_5  and  C_18
REMARK    5  A    between atoms: N_9  and  C_13
REMARK    6  A    between atoms: N_10  and  C_21
REMARK                            x       y       z     vdW  Elec       q    Type
REMARK                         _______ _______ _______ _____ _____    ______ ____
ROOT
ATOM      3  O   UNL     1      -2.411  -0.468  24.845  0.00  0.00    -0.369 OA
ATOM      4  O   UNL     1      -4.536  -2.404  23.752  0.00  0.00    -0.368 OA
ATOM     11  C   UNL     1      -4.501  -1.586  24.941  0.00  0.00    +0.171 C 
ATOM     12  C   UNL     1      -3.069  -1.599  25.440  0.00  0.00    +0.191 C 
ATOM     13  C   UNL     1      -4.750  -0.143  24.580  0.00  0.00    +0.133 C 
ATOM     14  C   UNL     1      -2.542  -2.903  24.894  0.00  0.00    +0.235 C 
ATOM     15  C   UNL     1      -3.377   0.339  24.154  0.00  0.00    +0.183 C 
ATOM     16  C   UNL     1      -3.245  -2.998  23.559  0.00  0.00    +0.207 C 
ENDROOT
BRANCH  13   9
ATOM      9  N   UNL     1      -5.196   0.609  25.778  0.00  0.00    -0.182 NA
ATOM     34  H   UNL     1      -5.351   0.078  26.643  0.00  0.00    +0.148 HD
BRANCH   9   2
ATOM      2  S   UNL     1      -5.809   2.182  25.607  0.00  0.00    +0.059 S 
ATOM      6  O   UNL     1      -6.401   2.609  26.862  0.00  0.00    -0.153 OA
ATOM      7  O   UNL     1      -6.575   2.254  24.378  0.00  0.00    -0.153 OA
BRANCH   2  17
ATOM      1 CL   UNL     1      -0.589   5.512  24.706  0.00  0.00    -0.084 Cl
ATOM     17  C   UNL     1      -4.334   3.123  25.353  0.00  0.00    +0.105 A 
ATOM     19  C   UNL     1      -3.567   3.487  26.446  0.00  0.00    +0.030 A 
ATOM     20  C   UNL     1      -3.974   3.479  24.065  0.00  0.00    +0.030 A 
ATOM     22  C   UNL     1      -2.403   4.229  26.245  0.00  0.00    +0.022 A 
ATOM     23  C   UNL     1      -2.811   4.221  23.863  0.00  0.00    +0.022 A 
ATOM     25  C   UNL     1      -2.025   4.596  24.953  0.00  0.00    +0.041 A 
ENDBRANCH   2  17
ENDBRANCH   9   2
ENDBRANCH  13   9
BRANCH  14   5
ATOM      5  O   UNL     1      -1.139  -2.931  24.759  0.00  0.00    -0.442 OA
BRANCH   5  18
ATOM      8  O   UNL     1      -0.315  -1.314  26.151  0.00  0.00    -0.226 OA
ATOM     10  N   UNL     1      -0.015  -1.209  23.832  0.00  0.00    -0.251 N 
ATOM     18  C   UNL     1      -0.464  -1.756  25.018  0.00  0.00    +0.405 C 
ATOM     35  H   UNL     1      -0.254  -1.749  23.009  0.00  0.00    +0.158 HD
BRANCH  10  21
ATOM     21  C   UNL     1       0.717  -0.014  23.646  0.00  0.00    +0.044 A 
ATOM     24  C   UNL     1       2.100  -0.033  23.448  0.00  0.00    +0.003 A 
ATOM     26  C   UNL     1      -0.000   1.175  23.669  0.00  0.00    +0.024 A 
ATOM     27  C   UNL     1       2.780   1.195  23.268  0.00  0.00    -0.016 A 
ATOM     28  C   UNL     1       2.831  -1.232  23.423  0.00  0.00    +0.010 A 
ATOM     29  C   UNL     1       0.668   2.383  23.492  0.00  0.00    +0.002 A 
ATOM     30  C   UNL     1       2.050   2.394  23.293  0.00  0.00    +0.008 A 
ATOM     31  C   UNL     1       4.170   1.189  23.068  0.00  0.00    +0.008 A 
ATOM     32  C   UNL     1       4.211  -1.220  23.224  0.00  0.00    +0.001 A 
ATOM     33  C   UNL     1       4.880  -0.012  23.047  0.00  0.00    +0.001 A 
ENDBRANCH  10  21
ENDBRANCH   5  18
ENDBRANCH  14   5
TORSDOF 6
ENDMDL
MODEL 5
REMARK VINA RESULT:       2.0     14.366     17.407
REMARK  Name = 11884011
REMARK  6 active torsions:
REMARK  status: ('A' for Active; 'I' for Inactive)
REMARK    1  A    between atoms: S_2  and  N_9
REMARK    2  A    between atoms: S_2  and  C_17
REMARK    3  A    between atoms: O_5  and  C_14
REMARK    4  A    between atoms: O_5  and  C_18
REMARK    5  A    between atoms: N_9  and  C_13
REMARK    6  A    between atoms: N_10  and  C_21
REMARK                            x       y       z     vdW  Elec       q    Type
REMARK                         _______ _______ _______ _____ _____    ______ ____
ROOT
ATOM      3  O   UNL     1      -2.659  -0.762  24.215  0.00  0.00    -0.369 OA
ATOM      4  O   UNL     1      -5.132  -2.533  23.763  0.00  0.00    -0.368 OA
ATOM     11  C   UNL     1      -4.752  -1.675  24.859  0.00  0.00    +0.171 C 
ATOM     12  C   UNL     1      -3.249  -1.801  25.014  0.00  0.00    +0.191 C 
ATOM     13  C   UNL     1      -4.960  -0.230  24.478  0.00  0.00    +0.133 C 
ATOM     14  C   UNL     1      -2.973  -3.171  24.442  0.00  0.00    +0.235 C 
ATOM     15  C   UNL     1      -3.691   0.104  23.718  0.00  0.00    +0.183 C 
ATOM     16  C   UNL     1      -3.976  -3.253  23.314  0.00  0.00    +0.207 C 
ENDROOT
BRANCH  13   9
ATOM      9  N   UNL     1      -5.048   0.608  25.698  0.00  0.00    -0.182 NA
ATOM     34  H   UNL     1      -4.866   0.155  26.601  0.00  0.00    +0.148 HD
BRANCH   9   2
ATOM      2  S   UNL     1      -5.812   2.121  25.629  0.00  0.00    +0.059 S 
ATOM      6  O   UNL     1      -6.392   2.430  26.923  0.00  0.00    -0.153 OA
ATOM      7  O   UNL     1      -6.629   2.178  24.432  0.00  0.00    -0.153 OA
BRANCH   2  17
ATOM      1 CL   UNL     1      -0.967   5.975  24.721  0.00  0.00    -0.084 Cl
ATOM     17  C   UNL     1      -4.443   3.210  25.372  0.00  0.00    +0.105 A 
ATOM     19  C   UNL     1      -3.903   3.330  24.103  0.00  0.00    +0.030 A 
ATOM     20  C   UNL     1      -3.936   3.922  26.445  0.00  0.00    +0.030 A 
ATOM     22  C   UNL     1      -2.823   4.190  23.901  0.00  0.00    +0.022 A 
ATOM     23  C   UNL     1      -2.856   4.781  26.243  0.00  0.00    +0.022 A 
ATOM     25  C   UNL     1      -2.300   4.915  24.971  0.00  0.00    +0.041 A 
ENDBRANCH   2  17
ENDBRANCH   9   2
ENDBRANCH  13   9
BRANCH  14   5
ATOM      5  O   UNL     1      -1.648  -3.335  23.989  0.00  0.00    -0.442 OA
BRANCH   5  18
ATOM      8  O   UNL     1      -0.246  -2.417  25.545  0.00  0.00    -0.226 OA
ATOM     10  N   UNL     1      -0.451  -1.518  23.393  0.00  0.00    -0.251 N 
ATOM     18  C   UNL     1      -0.722  -2.405  24.416  0.00  0.00    +0.405 C 
ATOM     35  H   UNL     1      -0.964  -1.700  22.538  0.00  0.00    +0.158 HD
BRANCH  10  21
ATOM     21  C   UNL     1       0.435  -0.416  23.407  0.00  0.00    +0.044 A 
ATOM     24  C   UNL     1       0.247   0.656  24.283  0.00  0.00    +0.003 A 
ATOM     26  C   UNL     1       1.496  -0.450  22.512  0.00  0.00    +0.024 A 
ATOM     27  C   UNL     1       1.166   1.731  24.252  0.00  0.00    -0.016 A 
ATOM     28  C   UNL     1      -0.824   0.694  25.191  0.00  0.00    +0.010 A 
ATOM     29  C   UNL     1       2.401   0.608  22.482  0.00  0.00    +0.002 A 
ATOM     30  C   UNL     1       2.237   1.693  23.345  0.00  0.00    +0.008 A 
ATOM     31  C   UNL     1       0.987   2.814  25.128  0.00  0.00    +0.008 A 
ATOM     32  C   UNL     1      -0.988   1.778  26.053  0.00  0.00    +0.001 A 
ATOM     33  C   UNL     1      -0.083   2.836  26.023  0.00  0.00    +0.001 A 
ENDBRANCH  10  21
ENDBRANCH   5  18
ENDBRANCH  14   5
TORSDOF 6
ENDMDL
MODEL 6
REMARK VINA RESULT:       2.2     15.168     18.089
REMARK  Name = 11884011
REMARK  6 active torsions:
REMARK  status: ('A' for Active; 'I' for Inactive)
REMARK    1  A    between atoms: S_2  and  N_9
REMARK    2  A    between atoms: S_2  and  C_17
REMARK    3  A    between atoms: O_5  and  C_14
REMARK    4  A    between atoms: O_5  and  C_18
REMARK    5  A    between atoms: N_9  and  C_13
REMARK    6  A    between atoms: N_10  and  C_21
REMARK                            x       y       z     vdW  Elec       q    Type
REMARK                         _______ _______ _______ _____ _____    ______ ____
ROOT
ATOM      3  O   UNL     1      -2.515   3.309  25.987  0.00  0.00    -0.369 OA
ATOM      4  O   UNL     1      -3.056   5.933  24.477  0.00  0.00    -0.368 OA
ATOM     11  C   UNL     1      -3.323   4.556  24.137  0.00  0.00    +0.171 C 
ATOM     12  C   UNL     1      -2.158   3.741  24.664  0.00  0.00    +0.191 C 
ATOM     13  C   UNL     1      -4.507   4.052  24.925  0.00  0.00    +0.133 C 
ATOM     14  C   UNL     1      -1.035   4.749  24.687  0.00  0.00    +0.235 C 
ATOM     15  C   UNL     1      -3.884   3.652  26.249  0.00  0.00    +0.183 C 
ATOM     16  C   UNL     1      -1.756   6.020  25.076  0.00  0.00    +0.207 C 
ENDROOT
BRANCH  13   9
ATOM      9  N   UNL     1      -5.086   2.859  24.263  0.00  0.00    -0.182 NA
ATOM     34  H   UNL     1      -5.153   2.869  23.238  0.00  0.00    +0.148 HD
BRANCH   9   2
ATOM      2  S   UNL     1      -5.961   1.728  25.176  0.00  0.00    +0.059 S 
ATOM      6  O   UNL     1      -7.217   1.438  24.511  0.00  0.00    -0.153 OA
ATOM      7  O   UNL     1      -5.950   2.141  26.566  0.00  0.00    -0.153 OA
BRANCH   2  17
ATOM      1 CL   UNL     1      -2.339  -3.357  24.750  0.00  0.00    -0.084 Cl
ATOM     17  C   UNL     1      -4.937   0.291  25.056  0.00  0.00    +0.105 A 
ATOM     19  C   UNL     1      -4.144  -0.065  26.132  0.00  0.00    +0.030 A 
ATOM     20  C   UNL     1      -4.947  -0.450  23.887  0.00  0.00    +0.030 A 
ATOM     22  C   UNL     1      -3.336  -1.200  26.037  0.00  0.00    +0.022 A 
ATOM     23  C   UNL     1      -4.141  -1.583  23.792  0.00  0.00    +0.022 A 
ATOM     25  C   UNL     1      -3.336  -1.958  24.867  0.00  0.00    +0.041 A 
ENDBRANCH   2  17
ENDBRANCH   9   2
ENDBRANCH  13   9
BRANCH  14   5
ATOM      5  O   UNL     1      -0.005   4.423  25.594  0.00  0.00    -0.442 OA
BRANCH   5  18
ATOM      8  O   UNL     1       0.791   2.573  26.677  0.00  0.00    -0.226 OA
ATOM     10  N   UNL     1       0.227   2.521  24.406  0.00  0.00    -0.251 N 
ATOM     18  C   UNL     1       0.382   3.100  25.650  0.00  0.00    +0.405 C 
ATOM     35  H   UNL     1      -0.130   3.149  23.696  0.00  0.00    +0.158 HD
BRANCH  10  21
ATOM     21  C   UNL     1       0.507   1.188  24.025  0.00  0.00    +0.044 A 
ATOM     24  C   UNL     1       1.739   0.833  23.472  0.00  0.00    +0.003 A 
ATOM     26  C   UNL     1      -0.499   0.251  24.226  0.00  0.00    +0.024 A 
ATOM     27  C   UNL     1       1.961  -0.516  23.110  0.00  0.00    -0.016 A 
ATOM     28  C   UNL     1       2.761   1.776  23.267  0.00  0.00    +0.010 A 
ATOM     29  C   UNL     1      -0.280  -1.077  23.870  0.00  0.00    +0.002 A 
ATOM     30  C   UNL     1       0.942  -1.459  23.315  0.00  0.00    +0.008 A 
ATOM     31  C   UNL     1       3.198  -0.884  22.552  0.00  0.00    +0.008 A 
ATOM     32  C   UNL     1       3.981   1.394  22.711  0.00  0.00    +0.001 A 
ATOM     33  C   UNL     1       4.200   0.066  22.355  0.00  0.00    +0.001 A 
ENDBRANCH  10  21
ENDBRANCH   5  18
ENDBRANCH  14   5
TORSDOF 6
ENDMDL
