MODEL 1
REMARK VINA RESULT:      -2.8      0.000      0.000
REMARK  Name = 45783947
REMARK  13 active torsions:
REMARK  status: ('A' for Active; 'I' for Inactive)
REMARK    1  A    between atoms: S_1  and  N_6
REMARK    2  A    between atoms: S_1  and  C_22
REMARK    3  A    between atoms: N_6  and  C_16
REMARK    4  A    between atoms: C_9  and  C_13
REMARK    5  A    between atoms: C_10  and  C_16
REMARK    6  A    between atoms: C_12  and  C_17
REMARK    7  A    between atoms: C_13  and  C_18
REMARK    8  A    between atoms: C_13  and  C_19
REMARK    9  A    between atoms: C_14  and  C_20
REMARK   10  A    between atoms: C_17  and  C_21
REMARK   11  A    between atoms: C_22  and  C_23
REMARK   12  A    between atoms: C_23  and  C_25
REMARK   13  A    between atoms: C_24  and  C_26
REMARK                            x       y       z     vdW  Elec       q    Type
REMARK                         _______ _______ _______ _____ _____    ______ ____
ROOT
ATOM      9  C   UNL     1      -1.510   2.053  23.749  0.00  0.00    +0.000 C 
ATOM     10  C   UNL     1      -0.132   2.759  23.705  0.00  0.00    +0.030 C 
ATOM     11  C   UNL     1      -2.634   3.053  23.437  0.00  0.00    +0.012 C 
ATOM     12  C   UNL     1      -2.658   4.231  24.428  0.00  0.00    +0.024 C 
ATOM     14  C   UNL     1      -1.275   4.812  24.644  0.00  0.00    -0.073 C 
ATOM     15  C   UNL     1      -0.159   4.146  24.302  0.00  0.00    -0.023 C 
ATOM     20  C   UNL     1      -1.207   6.200  25.219  0.00  0.00    +0.039 C 
ENDROOT
BRANCH   9  13
ATOM     13  C   UNL     1      -1.578   0.875  22.771  0.00  0.00    -0.013 C 
ATOM     18  C   UNL     1      -2.923   0.858  22.051  0.00  0.00    +0.007 C 
ATOM     19  C   UNL     1      -1.340  -0.441  23.505  0.00  0.00    +0.007 C 
ENDBRANCH   9  13
BRANCH  10  16
ATOM     16  C   UNL     1       0.941   1.920  24.408  0.00  0.00    +0.113 C 
BRANCH  16   6
ATOM      6  N   UNL     1       2.060   1.693  23.481  0.00  0.00    -0.194 NA
ATOM     32  H   UNL     1       2.234   2.479  22.840  0.00  0.00    +0.148 HD
BRANCH   6   1
ATOM      1  S   UNL     1       2.291   0.137  22.814  0.00  0.00    +0.029 S 
ATOM      4  O   UNL     1       1.499  -0.003  21.609  0.00  0.00    -0.158 OA
ATOM      5  O   UNL     1       2.198  -0.841  23.881  0.00  0.00    -0.158 OA
BRANCH   1  22
ATOM     22  C   UNL     1       4.001   0.239  22.336  0.00  0.00    +0.185 C 
BRANCH  22  23
ATOM     23  C   UNL     1       4.884   0.612  23.515  0.00  0.00    +0.021 C 
ATOM     25  C   UNL     1       5.561  -0.611  24.112  0.00  0.00    +0.005 C 
ENDBRANCH  22  23
ENDBRANCH   1  22
ENDBRANCH   6   1
ENDBRANCH  16   6
ENDBRANCH  10  16
BRANCH  12  17
ATOM     17  C   UNL     1      -3.293   3.819  25.760  0.00  0.00    +0.105 C 
BRANCH  17  21
ATOM      3  O   UNL     1      -3.505   1.425  25.337  0.00  0.00    -0.420 OA
ATOM      7  N   UNL     1      -5.453   2.469  25.689  0.00  0.00    -0.112 NA
ATOM      8  N   UNL     1      -5.720   1.132  25.465  0.00  0.00    -0.107 NA
ATOM     21  C   UNL     1      -4.148   2.594  25.605  0.00  0.00    +0.218 A 
ATOM     24  C   UNL     1      -4.554   0.561  25.264  0.00  0.00    +0.251 A 
BRANCH  24  26
ATOM      2  F   UNL     1      -3.038  -0.989  27.040  0.00  0.00    -0.205 F 
ATOM     26  C   UNL     1      -4.223  -0.806  24.985  0.00  0.00    +0.074 A 
ATOM     27  C   UNL     1      -3.466  -1.544  25.895  0.00  0.00    +0.136 A 
ATOM     28  C   UNL     1      -4.660  -1.398  23.800  0.00  0.00    +0.016 A 
ATOM     29  C   UNL     1      -3.145  -2.873  25.621  0.00  0.00    +0.039 A 
ATOM     30  C   UNL     1      -4.339  -2.728  23.525  0.00  0.00    +0.001 A 
ATOM     31  C   UNL     1      -3.582  -3.465  24.435  0.00  0.00    +0.003 A 
ENDBRANCH  24  26
ENDBRANCH  17  21
ENDBRANCH  12  17
TORSDOF 9
ENDMDL
MODEL 2
REMARK VINA RESULT:      -2.3      2.736      7.380
REMARK  Name = 45783947
REMARK  13 active torsions:
REMARK  status: ('A' for Active; 'I' for Inactive)
REMARK    1  A    between atoms: S_1  and  N_6
REMARK    2  A    between atoms: S_1  and  C_22
REMARK    3  A    between atoms: N_6  and  C_16
REMARK    4  A    between atoms: C_9  and  C_13
REMARK    5  A    between atoms: C_10  and  C_16
REMARK    6  A    between atoms: C_12  and  C_17
REMARK    7  A    between atoms: C_13  and  C_18
REMARK    8  A    between atoms: C_13  and  C_19
REMARK    9  A    between atoms: C_14  and  C_20
REMARK   10  A    between atoms: C_17  and  C_21
REMARK   11  A    between atoms: C_22  and  C_23
REMARK   12  A    between atoms: C_23  and  C_25
REMARK   13  A    between atoms: C_24  and  C_26
REMARK                            x       y       z     vdW  Elec       q    Type
REMARK                         _______ _______ _______ _____ _____    ______ ____
ROOT
ATOM      9  C   UNL     1      -3.356  -0.975  24.439  0.00  0.00    +0.000 C 
ATOM     10  C   UNL     1      -3.744  -0.024  25.599  0.00  0.00    +0.030 C 
ATOM     11  C   UNL     1      -1.871  -1.357  24.533  0.00  0.00    +0.012 C 
ATOM     12  C   UNL     1      -0.948  -0.126  24.483  0.00  0.00    +0.024 C 
ATOM     14  C   UNL     1      -1.424   0.972  25.412  0.00  0.00    -0.073 C 
ATOM     15  C   UNL     1      -2.673   0.994  25.911  0.00  0.00    -0.023 C 
ATOM     20  C   UNL     1      -0.417   2.022  25.791  0.00  0.00    +0.039 C 
ENDROOT
BRANCH   9  13
ATOM     13  C   UNL     1      -4.218  -2.242  24.430  0.00  0.00    -0.013 C 
ATOM     18  C   UNL     1      -3.435  -3.423  24.994  0.00  0.00    +0.007 C 
ATOM     19  C   UNL     1      -4.707  -2.543  23.016  0.00  0.00    +0.007 C 
ENDBRANCH   9  13
BRANCH  10  16
ATOM     16  C   UNL     1      -5.064   0.697  25.304  0.00  0.00    +0.113 C 
BRANCH  16   6
ATOM      6  N   UNL     1      -5.093   1.968  26.043  0.00  0.00    -0.194 NA
ATOM     32  H   UNL     1      -5.734   1.965  26.848  0.00  0.00    +0.148 HD
BRANCH   6   1
ATOM      1  S   UNL     1      -5.003   3.439  25.180  0.00  0.00    +0.029 S 
ATOM      4  O   UNL     1      -6.076   4.320  25.598  0.00  0.00    -0.158 OA
ATOM      5  O   UNL     1      -4.791   3.140  23.776  0.00  0.00    -0.158 OA
BRANCH   1  22
ATOM     22  C   UNL     1      -3.478   4.096  25.817  0.00  0.00    +0.185 C 
BRANCH  22  23
ATOM     23  C   UNL     1      -2.480   4.361  24.702  0.00  0.00    +0.021 C 
ATOM     25  C   UNL     1      -1.381   5.309  25.152  0.00  0.00    +0.005 C 
ENDBRANCH  22  23
ENDBRANCH   1  22
ENDBRANCH   6   1
ENDBRANCH  16   6
ENDBRANCH  10  16
BRANCH  12  17
ATOM     17  C   UNL     1      -0.799   0.395  23.049  0.00  0.00    +0.105 C 
BRANCH  17  21
ATOM      3  O   UNL     1       1.604   0.083  23.338  0.00  0.00    -0.420 OA
ATOM      7  N   UNL     1       0.878  -0.271  21.251  0.00  0.00    -0.112 NA
ATOM      8  N   UNL     1       2.244  -0.481  21.269  0.00  0.00    -0.107 NA
ATOM     21  C   UNL     1       0.549   0.056  22.479  0.00  0.00    +0.218 A 
ATOM     24  C   UNL     1       2.625  -0.262  22.507  0.00  0.00    +0.251 A 
BRANCH  24  26
ATOM      2  F   UNL     1       4.355   1.943  22.561  0.00  0.00    -0.205 F 
ATOM     26  C   UNL     1       3.926  -0.332  23.107  0.00  0.00    +0.074 A 
ATOM     27  C   UNL     1       4.757   0.788  23.113  0.00  0.00    +0.136 A 
ATOM     28  C   UNL     1       4.359  -1.525  23.685  0.00  0.00    +0.016 A 
ATOM     29  C   UNL     1       6.022   0.715  23.697  0.00  0.00    +0.039 A 
ATOM     30  C   UNL     1       5.624  -1.598  24.270  0.00  0.00    +0.001 A 
ATOM     31  C   UNL     1       6.455  -0.478  24.276  0.00  0.00    +0.003 A 
ENDBRANCH  24  26
ENDBRANCH  17  21
ENDBRANCH  12  17
TORSDOF 9
ENDMDL
MODEL 3
REMARK VINA RESULT:      -2.1      2.576      5.780
REMARK  Name = 45783947
REMARK  13 active torsions:
REMARK  status: ('A' for Active; 'I' for Inactive)
REMARK    1  A    between atoms: S_1  and  N_6
REMARK    2  A    between atoms: S_1  and  C_22
REMARK    3  A    between atoms: N_6  and  C_16
REMARK    4  A    between atoms: C_9  and  C_13
REMARK    5  A    between atoms: C_10  and  C_16
REMARK    6  A    between atoms: C_12  and  C_17
REMARK    7  A    between atoms: C_13  and  C_18
REMARK    8  A    between atoms: C_13  and  C_19
REMARK    9  A    between atoms: C_14  and  C_20
REMARK   10  A    between atoms: C_17  and  C_21
REMARK   11  A    between atoms: C_22  and  C_23
REMARK   12  A    between atoms: C_23  and  C_25
REMARK   13  A    between atoms: C_24  and  C_26
REMARK                            x       y       z     vdW  Elec       q    Type
REMARK                         _______ _______ _______ _____ _____    ______ ____
ROOT
ATOM      9  C   UNL     1      -4.001   3.032  25.215  0.00  0.00    +0.000 C 
ATOM     10  C   UNL     1      -3.711   3.149  23.698  0.00  0.00    +0.030 C 
ATOM     11  C   UNL     1      -3.368   4.207  25.974  0.00  0.00    +0.012 C 
ATOM     12  C   UNL     1      -1.843   4.277  25.773  0.00  0.00    +0.024 C 
ATOM     14  C   UNL     1      -1.460   4.128  24.315  0.00  0.00    -0.073 C 
ATOM     15  C   UNL     1      -2.313   3.635  23.400  0.00  0.00    -0.023 C 
ATOM     20  C   UNL     1      -0.088   4.604  23.924  0.00  0.00    +0.039 C 
ENDROOT
BRANCH   9  13
ATOM     13  C   UNL     1      -5.505   2.978  25.504  0.00  0.00    -0.013 C 
ATOM     18  C   UNL     1      -6.070   4.387  25.651  0.00  0.00    +0.007 C 
ATOM     19  C   UNL     1      -5.776   2.152  26.759  0.00  0.00    +0.007 C 
ENDBRANCH   9  13
BRANCH  10  16
ATOM     16  C   UNL     1      -3.951   1.814  22.985  0.00  0.00    +0.113 C 
BRANCH  16   6
ATOM      6  N   UNL     1      -3.367   0.728  23.786  0.00  0.00    -0.194 NA
ATOM     32  H   UNL     1      -2.508   0.330  23.383  0.00  0.00    +0.148 HD
BRANCH   6   1
ATOM      1  S   UNL     1      -4.401  -0.389  24.562  0.00  0.00    +0.029 S 
ATOM      4  O   UNL     1      -5.783  -0.046  24.293  0.00  0.00    -0.158 OA
ATOM      5  O   UNL     1      -3.935  -0.582  25.923  0.00  0.00    -0.158 OA
BRANCH   1  22
ATOM     22  C   UNL     1      -4.019  -1.870  23.656  0.00  0.00    +0.185 C 
BRANCH  22  23
ATOM     23  C   UNL     1      -3.302  -2.885  24.530  0.00  0.00    +0.021 C 
ATOM     25  C   UNL     1      -1.800  -2.853  24.304  0.00  0.00    +0.005 C 
ENDBRANCH  22  23
ENDBRANCH   1  22
ENDBRANCH   6   1
ENDBRANCH  16   6
ENDBRANCH  10  16
BRANCH  12  17
ATOM     17  C   UNL     1      -1.124   3.236  26.638  0.00  0.00    +0.105 C 
BRANCH  17  21
ATOM      3  O   UNL     1       0.329   2.149  25.006  0.00  0.00    -0.420 OA
ATOM      7  N   UNL     1      -1.293   0.833  25.807  0.00  0.00    -0.112 NA
ATOM      8  N   UNL     1      -0.553   0.096  24.901  0.00  0.00    -0.107 NA
ATOM     21  C   UNL     1      -0.742   2.025  25.836  0.00  0.00    +0.218 A 
ATOM     24  C   UNL     1       0.382   0.904  24.459  0.00  0.00    +0.251 A 
BRANCH  24  26
ATOM      2  F   UNL     1       0.094  -0.890  22.324  0.00  0.00    -0.205 F 
ATOM     26  C   UNL     1       1.432   0.681  23.507  0.00  0.00    +0.074 A 
ATOM     27  C   UNL     1       1.249  -0.220  22.459  0.00  0.00    +0.136 A 
ATOM     28  C   UNL     1       2.638   1.370  23.633  0.00  0.00    +0.016 A 
ATOM     29  C   UNL     1       2.272  -0.435  21.536  0.00  0.00    +0.039 A 
ATOM     30  C   UNL     1       3.663   1.155  22.709  0.00  0.00    +0.001 A 
ATOM     31  C   UNL     1       3.479   0.254  21.661  0.00  0.00    +0.003 A 
ENDBRANCH  24  26
ENDBRANCH  17  21
ENDBRANCH  12  17
TORSDOF 9
ENDMDL
MODEL 4
REMARK VINA RESULT:      -1.9      1.637      4.949
REMARK  Name = 45783947
REMARK  13 active torsions:
REMARK  status: ('A' for Active; 'I' for Inactive)
REMARK    1  A    between atoms: S_1  and  N_6
REMARK    2  A    between atoms: S_1  and  C_22
REMARK    3  A    between atoms: N_6  and  C_16
REMARK    4  A    between atoms: C_9  and  C_13
REMARK    5  A    between atoms: C_10  and  C_16
REMARK    6  A    between atoms: C_12  and  C_17
REMARK    7  A    between atoms: C_13  and  C_18
REMARK    8  A    between atoms: C_13  and  C_19
REMARK    9  A    between atoms: C_14  and  C_20
REMARK   10  A    between atoms: C_17  and  C_21
REMARK   11  A    between atoms: C_22  and  C_23
REMARK   12  A    between atoms: C_23  and  C_25
REMARK   13  A    between atoms: C_24  and  C_26
REMARK                            x       y       z     vdW  Elec       q    Type
REMARK                         _______ _______ _______ _____ _____    ______ ____
ROOT
ATOM      9  C   UNL     1      -1.248   0.263  24.864  0.00  0.00    +0.000 C 
ATOM     10  C   UNL     1      -0.395  -0.967  24.462  0.00  0.00    +0.030 C 
ATOM     11  C   UNL     1      -2.318  -0.140  25.889  0.00  0.00    +0.012 C 
ATOM     12  C   UNL     1      -3.261  -1.232  25.350  0.00  0.00    +0.024 C 
ATOM     14  C   UNL     1      -2.495  -2.361  24.693  0.00  0.00    -0.073 C 
ATOM     15  C   UNL     1      -1.211  -2.229  24.315  0.00  0.00    -0.023 C 
ATOM     20  C   UNL     1      -3.226  -3.664  24.521  0.00  0.00    +0.039 C 
ENDROOT
BRANCH   9  13
ATOM     13  C   UNL     1      -0.384   1.393  25.433  0.00  0.00    -0.013 C 
ATOM     18  C   UNL     1      -0.847   1.762  26.838  0.00  0.00    +0.007 C 
ATOM     19  C   UNL     1      -0.425   2.609  24.512  0.00  0.00    +0.007 C 
ENDBRANCH   9  13
BRANCH  10  16
ATOM     16  C   UNL     1       0.377  -0.703  23.165  0.00  0.00    +0.113 C 
BRANCH  16   6
ATOM      6  N   UNL     1       1.392   0.332  23.410  0.00  0.00    -0.194 NA
ATOM     32  H   UNL     1       0.998   1.265  23.590  0.00  0.00    +0.148 HD
BRANCH   6   1
ATOM      1  S   UNL     1       2.845   0.309  22.513  0.00  0.00    +0.029 S 
ATOM      4  O   UNL     1       3.564   1.552  22.710  0.00  0.00    -0.158 OA
ATOM      5  O   UNL     1       2.556  -0.178  21.177  0.00  0.00    -0.158 OA
BRANCH   1  22
ATOM     22  C   UNL     1       3.732  -0.976  23.364  0.00  0.00    +0.185 C 
BRANCH  22  23
ATOM     23  C   UNL     1       4.934  -0.420  24.110  0.00  0.00    +0.021 C 
ATOM     25  C   UNL     1       6.139  -0.274  23.195  0.00  0.00    +0.005 C 
ENDBRANCH  22  23
ENDBRANCH   1  22
ENDBRANCH   6   1
ENDBRANCH  16   6
ENDBRANCH  10  16
BRANCH  12  17
ATOM     17  C   UNL     1      -4.298  -0.640  24.390  0.00  0.00    +0.105 C 
BRANCH  17  21
ATOM      3  O   UNL     1      -3.714   1.728  24.468  0.00  0.00    -0.420 OA
ATOM      7  N   UNL     1      -5.724   1.251  25.327  0.00  0.00    -0.112 NA
ATOM      8  N   UNL     1      -5.526   2.615  25.436  0.00  0.00    -0.107 NA
ATOM     21  C   UNL     1      -4.642   0.775  24.756  0.00  0.00    +0.218 A 
ATOM     24  C   UNL     1      -4.340   2.848  24.922  0.00  0.00    +0.251 A 
BRANCH  24  26
ATOM      2  F   UNL     1      -2.653   3.840  26.929  0.00  0.00    -0.205 F 
ATOM     26  C   UNL     1      -3.617   4.077  24.768  0.00  0.00    +0.074 A 
ATOM     27  C   UNL     1      -2.788   4.537  25.791  0.00  0.00    +0.136 A 
ATOM     28  C   UNL     1      -3.746   4.813  23.590  0.00  0.00    +0.016 A 
ATOM     29  C   UNL     1      -2.087   5.733  25.637  0.00  0.00    +0.039 A 
ATOM     30  C   UNL     1      -3.045   6.010  23.436  0.00  0.00    +0.001 A 
ATOM     31  C   UNL     1      -2.215   6.469  24.459  0.00  0.00    +0.003 A 
ENDBRANCH  24  26
ENDBRANCH  17  21
ENDBRANCH  12  17
TORSDOF 9
ENDMDL
MODEL 5
REMARK VINA RESULT:      -1.7      2.442      5.829
REMARK  Name = 45783947
REMARK  13 active torsions:
REMARK  status: ('A' for Active; 'I' for Inactive)
REMARK    1  A    between atoms: S_1  and  N_6
REMARK    2  A    between atoms: S_1  and  C_22
REMARK    3  A    between atoms: N_6  and  C_16
REMARK    4  A    between atoms: C_9  and  C_13
REMARK    5  A    between atoms: C_10  and  C_16
REMARK    6  A    between atoms: C_12  and  C_17
REMARK    7  A    between atoms: C_13  and  C_18
REMARK    8  A    between atoms: C_13  and  C_19
REMARK    9  A    between atoms: C_14  and  C_20
REMARK   10  A    between atoms: C_17  and  C_21
REMARK   11  A    between atoms: C_22  and  C_23
REMARK   12  A    between atoms: C_23  and  C_25
REMARK   13  A    between atoms: C_24  and  C_26
REMARK                            x       y       z     vdW  Elec       q    Type
REMARK                         _______ _______ _______ _____ _____    ______ ____
ROOT
ATOM      9  C   UNL     1      -4.498   2.777  25.349  0.00  0.00    +0.000 C 
ATOM     10  C   UNL     1      -4.452   1.426  24.593  0.00  0.00    +0.030 C 
ATOM     11  C   UNL     1      -4.535   3.947  24.355  0.00  0.00    +0.012 C 
ATOM     12  C   UNL     1      -3.313   3.954  23.418  0.00  0.00    +0.024 C 
ATOM     14  C   UNL     1      -3.040   2.582  22.838  0.00  0.00    -0.073 C 
ATOM     15  C   UNL     1      -3.569   1.465  23.368  0.00  0.00    -0.023 C 
ATOM     20  C   UNL     1      -2.182   2.526  21.604  0.00  0.00    +0.039 C 
ENDROOT
BRANCH   9  13
ATOM     13  C   UNL     1      -5.703   2.860  26.292  0.00  0.00    -0.013 C 
ATOM     18  C   UNL     1      -6.611   1.650  26.104  0.00  0.00    +0.007 C 
ATOM     19  C   UNL     1      -6.474   4.157  26.057  0.00  0.00    +0.007 C 
ENDBRANCH   9  13
BRANCH  10  16
ATOM     16  C   UNL     1      -3.996   0.291  25.516  0.00  0.00    +0.113 C 
BRANCH  16   6
ATOM      6  N   UNL     1      -2.560   0.052  25.311  0.00  0.00    -0.194 NA
ATOM     32  H   UNL     1      -2.194   0.446  24.434  0.00  0.00    +0.148 HD
BRANCH   6   1
ATOM      1  S   UNL     1      -1.887  -1.447  25.780  0.00  0.00    +0.029 S 
ATOM      4  O   UNL     1      -2.661  -2.014  26.866  0.00  0.00    -0.158 OA
ATOM      5  O   UNL     1      -0.449  -1.292  25.896  0.00  0.00    -0.158 OA
BRANCH   1  22
ATOM     22  C   UNL     1      -2.199  -2.414  24.321  0.00  0.00    +0.185 C 
BRANCH  22  23
ATOM     23  C   UNL     1      -3.564  -3.080  24.380  0.00  0.00    +0.021 C 
ATOM     25  C   UNL     1      -4.578  -2.351  23.513  0.00  0.00    +0.005 C 
ENDBRANCH  22  23
ENDBRANCH   1  22
ENDBRANCH   6   1
ENDBRANCH  16   6
ENDBRANCH  10  16
BRANCH  12  17
ATOM     17  C   UNL     1      -2.073   4.504  24.132  0.00  0.00    +0.105 C 
BRANCH  17  21
ATOM      3  O   UNL     1      -0.317   2.901  23.583  0.00  0.00    -0.420 OA
ATOM      7  N   UNL     1      -0.994   2.824  25.714  0.00  0.00    -0.112 NA
ATOM      8  N   UNL     1      -0.006   1.872  25.545  0.00  0.00    -0.107 NA
ATOM     21  C   UNL     1      -1.142   3.400  24.543  0.00  0.00    +0.218 A 
ATOM     24  C   UNL     1       0.359   1.952  24.286  0.00  0.00    +0.251 A 
BRANCH  24  26
ATOM      2  F   UNL     1      -0.289  -0.385  22.881  0.00  0.00    -0.205 F 
ATOM     26  C   UNL     1       1.342   1.209  23.553  0.00  0.00    +0.074 A 
ATOM     27  C   UNL     1       0.979   0.050  22.867  0.00  0.00    +0.136 A 
ATOM     28  C   UNL     1       2.666   1.649  23.528  0.00  0.00    +0.016 A 
ATOM     29  C   UNL     1       1.939  -0.669  22.155  0.00  0.00    +0.039 A 
ATOM     30  C   UNL     1       3.627   0.929  22.816  0.00  0.00    +0.001 A 
ATOM     31  C   UNL     1       3.263  -0.229  22.130  0.00  0.00    +0.003 A 
ENDBRANCH  24  26
ENDBRANCH  17  21
ENDBRANCH  12  17
TORSDOF 9
ENDMDL
MODEL 6
REMARK VINA RESULT:      -0.8      2.677      7.108
REMARK  Name = 45783947
REMARK  13 active torsions:
REMARK  status: ('A' for Active; 'I' for Inactive)
REMARK    1  A    between atoms: S_1  and  N_6
REMARK    2  A    between atoms: S_1  and  C_22
REMARK    3  A    between atoms: N_6  and  C_16
REMARK    4  A    between atoms: C_9  and  C_13
REMARK    5  A    between atoms: C_10  and  C_16
REMARK    6  A    between atoms: C_12  and  C_17
REMARK    7  A    between atoms: C_13  and  C_18
REMARK    8  A    between atoms: C_13  and  C_19
REMARK    9  A    between atoms: C_14  and  C_20
REMARK   10  A    between atoms: C_17  and  C_21
REMARK   11  A    between atoms: C_22  and  C_23
REMARK   12  A    between atoms: C_23  and  C_25
REMARK   13  A    between atoms: C_24  and  C_26
REMARK                            x       y       z     vdW  Elec       q    Type
REMARK                         _______ _______ _______ _____ _____    ______ ____
ROOT
ATOM      9  C   UNL     1      -3.380   1.317  23.524  0.00  0.00    +0.000 C 
ATOM     10  C   UNL     1      -4.659   0.937  24.313  0.00  0.00    +0.030 C 
ATOM     11  C   UNL     1      -2.752   0.068  22.888  0.00  0.00    +0.012 C 
ATOM     12  C   UNL     1      -2.381  -0.996  23.937  0.00  0.00    +0.024 C 
ATOM     14  C   UNL     1      -3.507  -1.232  24.923  0.00  0.00    -0.073 C 
ATOM     15  C   UNL     1      -4.523  -0.364  25.067  0.00  0.00    -0.023 C 
ATOM     20  C   UNL     1      -3.462  -2.515  25.707  0.00  0.00    +0.039 C 
ENDROOT
BRANCH   9  13
ATOM     13  C   UNL     1      -3.669   2.361  22.441  0.00  0.00    -0.013 C 
ATOM     18  C   UNL     1      -2.588   2.326  21.366  0.00  0.00    +0.007 C 
ATOM     19  C   UNL     1      -3.774   3.753  23.058  0.00  0.00    +0.007 C 
ENDBRANCH   9  13
BRANCH  10  16
ATOM     16  C   UNL     1      -5.060   2.052  25.285  0.00  0.00    +0.113 C 
BRANCH  16   6
ATOM      6  N   UNL     1      -3.888   2.440  26.082  0.00  0.00    -0.194 NA
ATOM     32  H   UNL     1      -3.652   1.770  26.827  0.00  0.00    +0.148 HD
BRANCH   6   1
ATOM      1  S   UNL     1      -3.649   4.086  26.472  0.00  0.00    +0.029 S 
ATOM      4  O   UNL     1      -3.475   4.231  27.904  0.00  0.00    -0.158 OA
ATOM      5  O   UNL     1      -4.634   4.878  25.759  0.00  0.00    -0.158 OA
BRANCH   1  22
ATOM     22  C   UNL     1      -2.074   4.378  25.698  0.00  0.00    +0.185 C 
BRANCH  22  23
ATOM     23  C   UNL     1      -1.193   3.141  25.751  0.00  0.00    +0.021 C 
ATOM     25  C   UNL     1      -0.336   3.014  24.502  0.00  0.00    +0.005 C 
ENDBRANCH  22  23
ENDBRANCH   1  22
ENDBRANCH   6   1
ENDBRANCH  16   6
ENDBRANCH  10  16
BRANCH  12  17
ATOM     17  C   UNL     1      -1.084  -0.625  24.665  0.00  0.00    +0.105 C 
BRANCH  17  21
ATOM      3  O   UNL     1       1.317  -0.525  24.240  0.00  0.00    -0.420 OA
ATOM      7  N   UNL     1       0.053  -0.351  22.401  0.00  0.00    -0.112 NA
ATOM      8  N   UNL     1       1.379  -0.280  22.017  0.00  0.00    -0.107 NA
ATOM     21  C   UNL     1       0.066  -0.494  23.707  0.00  0.00    +0.218 A 
ATOM     24  C   UNL     1       2.080  -0.385  23.122  0.00  0.00    +0.251 A 
BRANCH  24  26
ATOM      2  F   UNL     1       3.636   1.898  22.647  0.00  0.00    -0.205 F 
ATOM     26  C   UNL     1       3.500  -0.376  23.328  0.00  0.00    +0.074 A 
ATOM     27  C   UNL     1       4.238   0.780  23.080  0.00  0.00    +0.136 A 
ATOM     28  C   UNL     1       4.141  -1.530  23.778  0.00  0.00    +0.016 A 
ATOM     29  C   UNL     1       5.619   0.784  23.282  0.00  0.00    +0.039 A 
ATOM     30  C   UNL     1       5.522  -1.527  23.980  0.00  0.00    +0.001 A 
ATOM     31  C   UNL     1       6.260  -0.370  23.732  0.00  0.00    +0.003 A 
ENDBRANCH  24  26
ENDBRANCH  17  21
ENDBRANCH  12  17
TORSDOF 9
ENDMDL
MODEL 7
REMARK VINA RESULT:       0.2      2.256      2.783
REMARK  Name = 45783947
REMARK  13 active torsions:
REMARK  status: ('A' for Active; 'I' for Inactive)
REMARK    1  A    between atoms: S_1  and  N_6
REMARK    2  A    between atoms: S_1  and  C_22
REMARK    3  A    between atoms: N_6  and  C_16
REMARK    4  A    between atoms: C_9  and  C_13
REMARK    5  A    between atoms: C_10  and  C_16
REMARK    6  A    between atoms: C_12  and  C_17
REMARK    7  A    between atoms: C_13  and  C_18
REMARK    8  A    between atoms: C_13  and  C_19
REMARK    9  A    between atoms: C_14  and  C_20
REMARK   10  A    between atoms: C_17  and  C_21
REMARK   11  A    between atoms: C_22  and  C_23
REMARK   12  A    between atoms: C_23  and  C_25
REMARK   13  A    between atoms: C_24  and  C_26
REMARK                            x       y       z     vdW  Elec       q    Type
REMARK                         _______ _______ _______ _____ _____    ______ ____
ROOT
ATOM      9  C   UNL     1      -1.626   2.347  23.702  0.00  0.00    +0.000 C 
ATOM     10  C   UNL     1      -0.324   3.186  23.724  0.00  0.00    +0.030 C 
ATOM     11  C   UNL     1      -2.833   3.236  23.368  0.00  0.00    +0.012 C 
ATOM     12  C   UNL     1      -3.009   4.383  24.380  0.00  0.00    +0.024 C 
ATOM     14  C   UNL     1      -1.701   5.094  24.659  0.00  0.00    -0.073 C 
ATOM     15  C   UNL     1      -0.511   4.550  24.346  0.00  0.00    -0.023 C 
ATOM     20  C   UNL     1      -1.792   6.468  25.264  0.00  0.00    +0.039 C 
ENDROOT
BRANCH   9  13
ATOM     13  C   UNL     1      -1.541   1.191  22.700  0.00  0.00    -0.013 C 
ATOM     18  C   UNL     1      -2.846   1.063  21.922  0.00  0.00    +0.007 C 
ATOM     19  C   UNL     1      -1.209  -0.114  23.418  0.00  0.00    +0.007 C 
ENDBRANCH   9  13
BRANCH  10  16
ATOM     16  C   UNL     1       0.801   2.443  24.451  0.00  0.00    +0.113 C 
BRANCH  16   6
ATOM      6  N   UNL     1       0.810   2.846  25.865  0.00  0.00    -0.194 NA
ATOM     32  H   UNL     1       1.751   3.024  26.240  0.00  0.00    +0.148 HD
BRANCH   6   1
ATOM      1  S   UNL     1      -0.288   2.114  26.950  0.00  0.00    +0.029 S 
ATOM      4  O   UNL     1      -0.557   0.752  26.531  0.00  0.00    -0.158 OA
ATOM      5  O   UNL     1      -1.375   3.041  27.205  0.00  0.00    -0.158 OA
BRANCH   1  22
ATOM     22  C   UNL     1       0.706   2.046  28.422  0.00  0.00    +0.185 C 
BRANCH  22  23
ATOM     23  C   UNL     1       1.767   3.134  28.426  0.00  0.00    +0.021 C 
ATOM     25  C   UNL     1       3.051   2.659  29.086  0.00  0.00    +0.005 C 
ENDBRANCH  22  23
ENDBRANCH   1  22
ENDBRANCH   6   1
ENDBRANCH  16   6
ENDBRANCH  10  16
BRANCH  12  17
ATOM     17  C   UNL     1      -3.647   3.880  25.680  0.00  0.00    +0.105 C 
BRANCH  17  21
ATOM      3  O   UNL     1      -3.693   1.475  25.267  0.00  0.00    -0.420 OA
ATOM      7  N   UNL     1      -5.717   2.418  25.413  0.00  0.00    -0.112 NA
ATOM      8  N   UNL     1      -5.892   1.067  25.180  0.00  0.00    -0.107 NA
ATOM     21  C   UNL     1      -4.419   2.610  25.456  0.00  0.00    +0.218 A 
ATOM     24  C   UNL     1      -4.684   0.557  25.101  0.00  0.00    +0.251 A 
BRANCH  24  26
ATOM      2  F   UNL     1      -3.156  -0.853  26.980  0.00  0.00    -0.205 F 
ATOM     26  C   UNL     1      -4.257  -0.793  24.873  0.00  0.00    +0.074 A 
ATOM     27  C   UNL     1      -3.497  -1.460  25.834  0.00  0.00    +0.136 A 
ATOM     28  C   UNL     1      -4.604  -1.439  23.687  0.00  0.00    +0.016 A 
ATOM     29  C   UNL     1      -3.084  -2.773  25.608  0.00  0.00    +0.039 A 
ATOM     30  C   UNL     1      -4.190  -2.753  23.461  0.00  0.00    +0.001 A 
ATOM     31  C   UNL     1      -3.430  -3.419  24.422  0.00  0.00    +0.003 A 
ENDBRANCH  24  26
ENDBRANCH  17  21
ENDBRANCH  12  17
TORSDOF 9
ENDMDL
MODEL 8
REMARK VINA RESULT:       0.4      2.780      5.197
REMARK  Name = 45783947
REMARK  13 active torsions:
REMARK  status: ('A' for Active; 'I' for Inactive)
REMARK    1  A    between atoms: S_1  and  N_6
REMARK    2  A    between atoms: S_1  and  C_22
REMARK    3  A    between atoms: N_6  and  C_16
REMARK    4  A    between atoms: C_9  and  C_13
REMARK    5  A    between atoms: C_10  and  C_16
REMARK    6  A    between atoms: C_12  and  C_17
REMARK    7  A    between atoms: C_13  and  C_18
REMARK    8  A    between atoms: C_13  and  C_19
REMARK    9  A    between atoms: C_14  and  C_20
REMARK   10  A    between atoms: C_17  and  C_21
REMARK   11  A    between atoms: C_22  and  C_23
REMARK   12  A    between atoms: C_23  and  C_25
REMARK   13  A    between atoms: C_24  and  C_26
REMARK                            x       y       z     vdW  Elec       q    Type
REMARK                         _______ _______ _______ _____ _____    ______ ____
ROOT
ATOM      9  C   UNL     1       0.866   0.558  23.274  0.00  0.00    +0.000 C 
ATOM     10  C   UNL     1       0.220  -0.185  24.470  0.00  0.00    +0.030 C 
ATOM     11  C   UNL     1       1.647   1.787  23.763  0.00  0.00    +0.012 C 
ATOM     12  C   UNL     1       0.751   2.780  24.528  0.00  0.00    +0.024 C 
ATOM     14  C   UNL     1      -0.120   2.080  25.550  0.00  0.00    -0.073 C 
ATOM     15  C   UNL     1      -0.335   0.752  25.517  0.00  0.00    -0.023 C 
ATOM     20  C   UNL     1      -0.702   2.934  26.642  0.00  0.00    +0.039 C 
ENDROOT
BRANCH   9  13
ATOM     13  C   UNL     1       1.794  -0.359  22.469  0.00  0.00    -0.013 C 
ATOM     18  C   UNL     1       3.183   0.260  22.351  0.00  0.00    +0.007 C 
ATOM     19  C   UNL     1       1.204  -0.634  21.089  0.00  0.00    +0.007 C 
ENDBRANCH   9  13
BRANCH  10  16
ATOM     16  C   UNL     1      -0.885  -1.136  23.998  0.00  0.00    +0.113 C 
BRANCH  16   6
ATOM      6  N   UNL     1      -2.189  -0.608  24.426  0.00  0.00    -0.194 NA
ATOM     32  H   UNL     1      -2.304   0.400  24.257  0.00  0.00    +0.148 HD
BRANCH   6   1
ATOM      1  S   UNL     1      -2.901  -1.200  25.861  0.00  0.00    +0.029 S 
ATOM      4  O   UNL     1      -4.177  -0.549  26.081  0.00  0.00    -0.158 OA
ATOM      5  O   UNL     1      -1.891  -1.224  26.903  0.00  0.00    -0.158 OA
BRANCH   1  22
ATOM     22  C   UNL     1      -3.221  -2.886  25.395  0.00  0.00    +0.185 C 
BRANCH  22  23
ATOM     23  C   UNL     1      -3.534  -3.001  23.912  0.00  0.00    +0.021 C 
ATOM     25  C   UNL     1      -4.789  -2.227  23.546  0.00  0.00    +0.005 C 
ENDBRANCH  22  23
ENDBRANCH   1  22
ENDBRANCH   6   1
ENDBRANCH  16   6
ENDBRANCH  10  16
BRANCH  12  17
ATOM     17  C   UNL     1      -0.098   3.613  23.562  0.00  0.00    +0.105 C 
BRANCH  17  21
ATOM      3  O   UNL     1      -2.356   3.115  24.343  0.00  0.00    -0.420 OA
ATOM      7  N   UNL     1      -1.898   2.325  22.300  0.00  0.00    -0.112 NA
ATOM      8  N   UNL     1      -3.198   1.973  22.612  0.00  0.00    -0.107 NA
ATOM     21  C   UNL     1      -1.446   2.990  23.338  0.00  0.00    +0.218 A 
ATOM     24  C   UNL     1      -3.422   2.454  23.813  0.00  0.00    +0.251 A 
BRANCH  24  26
ATOM      2  F   UNL     1      -3.743   4.097  26.062  0.00  0.00    -0.205 F 
ATOM     26  C   UNL     1      -4.594   2.393  24.637  0.00  0.00    +0.074 A 
ATOM     27  C   UNL     1      -4.716   3.228  25.747  0.00  0.00    +0.136 A 
ATOM     28  C   UNL     1      -5.615   1.496  24.323  0.00  0.00    +0.016 A 
ATOM     29  C   UNL     1      -5.858   3.166  26.546  0.00  0.00    +0.039 A 
ATOM     30  C   UNL     1      -6.758   1.433  25.122  0.00  0.00    +0.001 A 
ATOM     31  C   UNL     1      -6.879   2.268  26.232  0.00  0.00    +0.003 A 
ENDBRANCH  24  26
ENDBRANCH  17  21
ENDBRANCH  12  17
TORSDOF 9
ENDMDL
MODEL 9
REMARK VINA RESULT:       0.6      2.782      5.177
REMARK  Name = 45783947
REMARK  13 active torsions:
REMARK  status: ('A' for Active; 'I' for Inactive)
REMARK    1  A    between atoms: S_1  and  N_6
REMARK    2  A    between atoms: S_1  and  C_22
REMARK    3  A    between atoms: N_6  and  C_16
REMARK    4  A    between atoms: C_9  and  C_13
REMARK    5  A    between atoms: C_10  and  C_16
REMARK    6  A    between atoms: C_12  and  C_17
REMARK    7  A    between atoms: C_13  and  C_18
REMARK    8  A    between atoms: C_13  and  C_19
REMARK    9  A    between atoms: C_14  and  C_20
REMARK   10  A    between atoms: C_17  and  C_21
REMARK   11  A    between atoms: C_22  and  C_23
REMARK   12  A    between atoms: C_23  and  C_25
REMARK   13  A    between atoms: C_24  and  C_26
REMARK                            x       y       z     vdW  Elec       q    Type
REMARK                         _______ _______ _______ _____ _____    ______ ____
ROOT
ATOM      9  C   UNL     1      -3.516   2.131  23.912  0.00  0.00    +0.000 C 
ATOM     10  C   UNL     1      -4.355   3.304  24.478  0.00  0.00    +0.030 C 
ATOM     11  C   UNL     1      -4.383   0.871  23.771  0.00  0.00    +0.012 C 
ATOM     12  C   UNL     1      -4.995   0.430  25.114  0.00  0.00    +0.024 C 
ATOM     14  C   UNL     1      -5.611   1.596  25.861  0.00  0.00    -0.073 C 
ATOM     15  C   UNL     1      -5.324   2.873  25.553  0.00  0.00    -0.023 C 
ATOM     20  C   UNL     1      -6.603   1.260  26.940  0.00  0.00    +0.039 C 
ENDROOT
BRANCH   9  13
ATOM     13  C   UNL     1      -2.886   2.481  22.560  0.00  0.00    -0.013 C 
ATOM     18  C   UNL     1      -3.848   3.321  21.726  0.00  0.00    +0.007 C 
ATOM     19  C   UNL     1      -2.489   1.211  21.813  0.00  0.00    +0.007 C 
ENDBRANCH   9  13
BRANCH  10  16
ATOM     16  C   UNL     1      -3.453   4.418  25.019  0.00  0.00    +0.113 C 
BRANCH  16   6
ATOM      6  N   UNL     1      -2.214   3.822  25.543  0.00  0.00    -0.194 NA
ATOM     32  H   UNL     1      -2.219   3.682  26.562  0.00  0.00    +0.148 HD
BRANCH   6   1
ATOM      1  S   UNL     1      -0.713   4.288  24.872  0.00  0.00    +0.029 S 
ATOM      4  O   UNL     1      -0.599   5.733  24.882  0.00  0.00    -0.158 OA
ATOM      5  O   UNL     1      -0.499   3.535  23.651  0.00  0.00    -0.158 OA
BRANCH   1  22
ATOM     22  C   UNL     1       0.404   3.643  26.096  0.00  0.00    +0.185 C 
BRANCH  22  23
ATOM     23  C   UNL     1      -0.269   2.590  26.960  0.00  0.00    +0.021 C 
ATOM     25  C   UNL     1       0.523   2.321  28.229  0.00  0.00    +0.005 C 
ENDBRANCH  22  23
ENDBRANCH   1  22
ENDBRANCH   6   1
ENDBRANCH  16   6
ENDBRANCH  10  16
BRANCH  12  17
ATOM     17  C   UNL     1      -3.959  -0.291  25.982  0.00  0.00    +0.105 C 
BRANCH  17  21
ATOM      3  O   UNL     1      -1.861  -0.154  24.742  0.00  0.00    -0.420 OA
ATOM      7  N   UNL     1      -2.806  -2.182  24.722  0.00  0.00    -0.112 NA
ATOM      8  N   UNL     1      -1.636  -2.248  23.989  0.00  0.00    -0.107 NA
ATOM     21  C   UNL     1      -2.896  -0.941  25.143  0.00  0.00    +0.218 A 
ATOM     24  C   UNL     1      -1.119  -1.042  24.027  0.00  0.00    +0.251 A 
BRANCH  24  26
ATOM      2  F   UNL     1       0.361   1.005  25.242  0.00  0.00    -0.205 F 
ATOM     26  C   UNL     1       0.086  -0.527  23.444  0.00  0.00    +0.074 A 
ATOM     27  C   UNL     1       0.793   0.493  24.081  0.00  0.00    +0.136 A 
ATOM     28  C   UNL     1       0.550  -1.049  22.237  0.00  0.00    +0.016 A 
ATOM     29  C   UNL     1       1.965   0.991  23.510  0.00  0.00    +0.039 A 
ATOM     30  C   UNL     1       1.722  -0.550  21.666  0.00  0.00    +0.001 A 
ATOM     31  C   UNL     1       2.428   0.469  22.303  0.00  0.00    +0.003 A 
ENDBRANCH  24  26
ENDBRANCH  17  21
ENDBRANCH  12  17
TORSDOF 9
ENDMDL
MODEL 10
REMARK VINA RESULT:       1.0      2.703      6.817
REMARK  Name = 45783947
REMARK  13 active torsions:
REMARK  status: ('A' for Active; 'I' for Inactive)
REMARK    1  A    between atoms: S_1  and  N_6
REMARK    2  A    between atoms: S_1  and  C_22
REMARK    3  A    between atoms: N_6  and  C_16
REMARK    4  A    between atoms: C_9  and  C_13
REMARK    5  A    between atoms: C_10  and  C_16
REMARK    6  A    between atoms: C_12  and  C_17
REMARK    7  A    between atoms: C_13  and  C_18
REMARK    8  A    between atoms: C_13  and  C_19
REMARK    9  A    between atoms: C_14  and  C_20
REMARK   10  A    between atoms: C_17  and  C_21
REMARK   11  A    between atoms: C_22  and  C_23
REMARK   12  A    between atoms: C_23  and  C_25
REMARK   13  A    between atoms: C_24  and  C_26
REMARK                            x       y       z     vdW  Elec       q    Type
REMARK                         _______ _______ _______ _____ _____    ______ ____
ROOT
ATOM      9  C   UNL     1      -3.296  -2.132  24.272  0.00  0.00    +0.000 C 
ATOM     10  C   UNL     1      -3.743  -1.292  25.495  0.00  0.00    +0.030 C 
ATOM     11  C   UNL     1      -1.934  -2.790  24.543  0.00  0.00    +0.012 C 
ATOM     12  C   UNL     1      -0.837  -1.754  24.850  0.00  0.00    +0.024 C 
ATOM     14  C   UNL     1      -1.302  -0.724  25.858  0.00  0.00    -0.073 C 
ATOM     15  C   UNL     1      -2.603  -0.541  26.143  0.00  0.00    -0.023 C 
ATOM     20  C   UNL     1      -0.233   0.061  26.566  0.00  0.00    +0.039 C 
ENDROOT
BRANCH   9  13
ATOM     13  C   UNL     1      -4.328  -3.206  23.912  0.00  0.00    -0.013 C 
ATOM     18  C   UNL     1      -3.664  -4.576  23.827  0.00  0.00    +0.007 C 
ATOM     19  C   UNL     1      -5.021  -2.857  22.598  0.00  0.00    +0.007 C 
ENDBRANCH   9  13
BRANCH  10  16
ATOM     16  C   UNL     1      -4.853  -0.307  25.113  0.00  0.00    +0.113 C 
BRANCH  16   6
ATOM      6  N   UNL     1      -4.463   1.046  25.537  0.00  0.00    -0.194 NA
ATOM     32  H   UNL     1      -4.090   1.090  26.495  0.00  0.00    +0.148 HD
BRANCH   6   1
ATOM      1  S   UNL     1      -5.416   2.380  25.057  0.00  0.00    +0.029 S 
ATOM      4  O   UNL     1      -5.401   3.392  26.094  0.00  0.00    -0.158 OA
ATOM      5  O   UNL     1      -6.671   1.884  24.523  0.00  0.00    -0.158 OA
BRANCH   1  22
ATOM     22  C   UNL     1      -4.460   2.987  23.686  0.00  0.00    +0.185 C 
BRANCH  22  23
ATOM     23  C   UNL     1      -3.524   1.918  23.147  0.00  0.00    +0.021 C 
ATOM     25  C   UNL     1      -2.815   2.383  21.886  0.00  0.00    +0.005 C 
ENDBRANCH  22  23
ENDBRANCH   1  22
ENDBRANCH   6   1
ENDBRANCH  16   6
ENDBRANCH  10  16
BRANCH  12  17
ATOM     17  C   UNL     1      -0.339  -1.081  23.567  0.00  0.00    +0.105 C 
BRANCH  17  21
ATOM      3  O   UNL     1      -0.777   1.249  24.148  0.00  0.00    -0.420 OA
ATOM      7  N   UNL     1       1.385   0.779  23.811  0.00  0.00    -0.112 NA
ATOM      8  N   UNL     1       1.284   2.120  24.130  0.00  0.00    -0.107 NA
ATOM     21  C   UNL     1       0.158   0.311  23.834  0.00  0.00    +0.218 A 
ATOM     24  C   UNL     1       0.005   2.350  24.318  0.00  0.00    +0.251 A 
BRANCH  24  26
ATOM      2  F   UNL     1      -1.978   2.408  26.299  0.00  0.00    -0.205 F 
ATOM     26  C   UNL     1      -0.683   3.559  24.669  0.00  0.00    +0.074 A 
ATOM     27  C   UNL     1      -1.663   3.546  25.661  0.00  0.00    +0.136 A 
ATOM     28  C   UNL     1      -0.367   4.750  24.015  0.00  0.00    +0.016 A 
ATOM     29  C   UNL     1      -2.329   4.724  25.999  0.00  0.00    +0.039 A 
ATOM     30  C   UNL     1      -1.034   5.928  24.354  0.00  0.00    +0.001 A 
ATOM     31  C   UNL     1      -2.014   5.915  25.345  0.00  0.00    +0.003 A 
ENDBRANCH  24  26
ENDBRANCH  17  21
ENDBRANCH  12  17
TORSDOF 9
ENDMDL
