MODEL 1
REMARK VINA RESULT:      -1.4      0.000      0.000
REMARK  Name = 56775159
REMARK  3 active torsions:
REMARK  status: ('A' for Active; 'I' for Inactive)
REMARK    1  A    between atoms: N_7  and  C_16
REMARK    2  A    between atoms: C_16  and  C_18
REMARK    3  A    between atoms: C_21  and  C_27
REMARK                            x       y       z     vdW  Elec       q    Type
REMARK                         _______ _______ _______ _____ _____    ______ ____
ROOT
ATOM      4  O   UNL     1       0.561   2.474  23.579  0.00  0.00    -0.364 OA
ATOM      5  O   UNL     1       1.655  -0.728  22.474  0.00  0.00    -0.273 OA
ATOM      6  N   UNL     1      -1.885   2.416  25.308  0.00  0.00    -0.295 N 
ATOM      7  N   UNL     1       0.526  -0.170  24.431  0.00  0.00    -0.288 N 
ATOM      8  N   UNL     1      -4.178   2.101  25.193  0.00  0.00    -0.210 NA
ATOM      9  N   UNL     1      -3.235   4.235  25.791  0.00  0.00    -0.223 NA
ATOM     10  C   UNL     1      -0.107   0.867  25.236  0.00  0.00    +0.124 C 
ATOM     11  C   UNL     1       0.445   2.263  24.984  0.00  0.00    +0.158 C 
ATOM     12  C   UNL     1      -1.605   1.032  24.932  0.00  0.00    +0.133 C 
ATOM     13  C   UNL     1      -0.654   3.179  25.526  0.00  0.00    +0.141 C 
ATOM     14  C   UNL     1       1.219   0.116  23.258  0.00  0.00    +0.242 C 
ATOM     15  C   UNL     1       1.504   1.589  23.018  0.00  0.00    +0.256 C 
ATOM     17  C   UNL     1      -3.153   2.940  25.436  0.00  0.00    +0.218 A 
ATOM     21  C   UNL     1      -5.404   2.646  25.327  0.00  0.00    +0.149 A 
ATOM     22  C   UNL     1      -4.491   4.716  25.907  0.00  0.00    +0.116 A 
ATOM     23  C   UNL     1      -5.624   3.960  25.686  0.00  0.00    +0.052 A 
ENDROOT
BRANCH  21  27
ATOM      1  F   UNL     1      -7.501   2.297  24.229  0.00  0.00    -0.164 F 
ATOM      2  F   UNL     1      -7.246   1.427  26.205  0.00  0.00    -0.164 F 
ATOM      3  F   UNL     1      -6.227   0.561  24.491  0.00  0.00    -0.164 F 
ATOM     27  C   UNL     1      -6.569   1.751  25.066  0.00  0.00    +0.434 C 
ENDBRANCH  21  27
BRANCH   7  16
ATOM     16  C   UNL     1       0.267  -1.552  24.812  0.00  0.00    +0.143 C 
BRANCH  16  18
ATOM     18  C   UNL     1      -1.202  -1.842  24.912  0.00  0.00    -0.030 A 
ATOM     19  C   UNL     1      -1.924  -1.406  26.024  0.00  0.00    +0.005 A 
ATOM     20  C   UNL     1      -1.845  -2.546  23.896  0.00  0.00    +0.005 A 
ATOM     24  C   UNL     1      -3.290  -1.676  26.117  0.00  0.00    +0.000 A 
ATOM     25  C   UNL     1      -3.211  -2.815  23.988  0.00  0.00    +0.000 A 
ATOM     26  C   UNL     1      -3.933  -2.380  25.100  0.00  0.00    +0.000 A 
ENDBRANCH  16  18
ENDBRANCH   7  16
TORSDOF 3
ENDMDL
MODEL 2
REMARK VINA RESULT:       0.7      3.737      7.055
REMARK  Name = 56775159
REMARK  3 active torsions:
REMARK  status: ('A' for Active; 'I' for Inactive)
REMARK    1  A    between atoms: N_7  and  C_16
REMARK    2  A    between atoms: C_16  and  C_18
REMARK    3  A    between atoms: C_21  and  C_27
REMARK                            x       y       z     vdW  Elec       q    Type
REMARK                         _______ _______ _______ _____ _____    ______ ____
ROOT
ATOM      4  O   UNL     1      -5.811   1.182  24.653  0.00  0.00    -0.364 OA
ATOM      5  O   UNL     1      -6.030   4.711  25.063  0.00  0.00    -0.273 OA
ATOM      6  N   UNL     1      -3.067   0.057  25.070  0.00  0.00    -0.295 N 
ATOM      7  N   UNL     1      -4.573   3.213  26.088  0.00  0.00    -0.288 N 
ATOM      8  N   UNL     1      -0.992  -0.085  24.048  0.00  0.00    -0.210 NA
ATOM      9  N   UNL     1      -2.355  -2.041  24.392  0.00  0.00    -0.223 NA
ATOM     10  C   UNL     1      -4.107   1.838  26.214  0.00  0.00    +0.124 C 
ATOM     11  C   UNL     1      -5.160   0.797  25.861  0.00  0.00    +0.158 C 
ATOM     12  C   UNL     1      -2.958   1.503  25.250  0.00  0.00    +0.133 C 
ATOM     13  C   UNL     1      -4.334  -0.462  25.590  0.00  0.00    +0.141 C 
ATOM     14  C   UNL     1      -5.677   3.557  25.311  0.00  0.00    +0.242 C 
ATOM     15  C   UNL     1      -6.519   2.388  24.830  0.00  0.00    +0.256 C 
ATOM     17  C   UNL     1      -2.097  -0.723  24.478  0.00  0.00    +0.218 A 
ATOM     21  C   UNL     1      -0.064  -0.878  23.474  0.00  0.00    +0.149 A 
ATOM     22  C   UNL     1      -1.385  -2.775  23.808  0.00  0.00    +0.116 A 
ATOM     23  C   UNL     1      -0.207  -2.243  23.326  0.00  0.00    +0.052 A 
ENDROOT
BRANCH  21  27
ATOM      1  F   UNL     1       2.326  -0.808  23.417  0.00  0.00    -0.164 F 
ATOM      2  F   UNL     1       1.267   1.090  23.381  0.00  0.00    -0.164 F 
ATOM      3  F   UNL     1       1.281  -0.186  21.621  0.00  0.00    -0.164 F 
ATOM     27  C   UNL     1       1.177  -0.212  22.982  0.00  0.00    +0.434 C 
ENDBRANCH  21  27
BRANCH   7  16
ATOM     16  C   UNL     1      -3.738   4.251  26.676  0.00  0.00    +0.143 C 
BRANCH  16  18
ATOM     18  C   UNL     1      -2.421   4.382  25.967  0.00  0.00    -0.030 A 
ATOM     19  C   UNL     1      -1.446   3.396  26.119  0.00  0.00    +0.005 A 
ATOM     20  C   UNL     1      -2.173   5.490  25.157  0.00  0.00    +0.005 A 
ATOM     24  C   UNL     1      -0.223   3.518  25.460  0.00  0.00    +0.000 A 
ATOM     25  C   UNL     1      -0.950   5.611  24.498  0.00  0.00    +0.000 A 
ATOM     26  C   UNL     1       0.026   4.626  24.649  0.00  0.00    +0.000 A 
ENDBRANCH  16  18
ENDBRANCH   7  16
TORSDOF 3
ENDMDL
MODEL 3
REMARK VINA RESULT:       0.7      2.366      5.587
REMARK  Name = 56775159
REMARK  3 active torsions:
REMARK  status: ('A' for Active; 'I' for Inactive)
REMARK    1  A    between atoms: N_7  and  C_16
REMARK    2  A    between atoms: C_16  and  C_18
REMARK    3  A    between atoms: C_21  and  C_27
REMARK                            x       y       z     vdW  Elec       q    Type
REMARK                         _______ _______ _______ _____ _____    ______ ____
ROOT
ATOM      4  O   UNL     1       0.208   3.575  25.303  0.00  0.00    -0.364 OA
ATOM      5  O   UNL     1      -2.309   6.056  25.737  0.00  0.00    -0.273 OA
ATOM      6  N   UNL     1      -0.795   0.976  24.205  0.00  0.00    -0.295 N 
ATOM      7  N   UNL     1      -2.219   4.328  24.180  0.00  0.00    -0.288 N 
ATOM      8  N   UNL     1      -1.998  -0.907  24.820  0.00  0.00    -0.210 NA
ATOM      9  N   UNL     1       0.343  -1.042  24.270  0.00  0.00    -0.223 NA
ATOM     10  C   UNL     1      -1.508   3.160  23.675  0.00  0.00    +0.124 C 
ATOM     11  C   UNL     1      -0.012   3.184  23.950  0.00  0.00    +0.158 C 
ATOM     12  C   UNL     1      -1.958   1.850  24.340  0.00  0.00    +0.133 C 
ATOM     13  C   UNL     1       0.399   1.718  23.794  0.00  0.00    +0.141 C 
ATOM     14  C   UNL     1      -1.697   5.142  25.182  0.00  0.00    +0.242 C 
ATOM     15  C   UNL     1      -0.236   4.896  25.518  0.00  0.00    +0.256 C 
ATOM     17  C   UNL     1      -0.817  -0.382  24.442  0.00  0.00    +0.218 A 
ATOM     21  C   UNL     1      -1.985  -2.237  25.043  0.00  0.00    +0.149 A 
ATOM     22  C   UNL     1       0.286  -2.368  24.510  0.00  0.00    +0.116 A 
ATOM     23  C   UNL     1      -0.861  -3.027  24.902  0.00  0.00    +0.052 A 
ENDROOT
BRANCH  21  27
ATOM      1  F   UNL     1      -4.026  -3.316  24.420  0.00  0.00    -0.164 F 
ATOM      2  F   UNL     1      -4.077  -1.995  26.146  0.00  0.00    -0.164 F 
ATOM      3  F   UNL     1      -3.115  -3.940  26.287  0.00  0.00    -0.164 F 
ATOM     27  C   UNL     1      -3.273  -2.861  25.465  0.00  0.00    +0.434 C 
ENDBRANCH  21  27
BRANCH   7  16
ATOM     16  C   UNL     1      -3.584   4.525  23.712  0.00  0.00    +0.143 C 
BRANCH  16  18
ATOM     18  C   UNL     1      -4.551   3.599  24.392  0.00  0.00    -0.030 A 
ATOM     19  C   UNL     1      -4.747   2.309  23.896  0.00  0.00    +0.005 A 
ATOM     20  C   UNL     1      -5.252   4.027  25.519  0.00  0.00    +0.005 A 
ATOM     24  C   UNL     1      -5.645   1.449  24.528  0.00  0.00    +0.000 A 
ATOM     25  C   UNL     1      -6.149   3.166  26.151  0.00  0.00    +0.000 A 
ATOM     26  C   UNL     1      -6.347   1.877  25.655  0.00  0.00    +0.000 A 
ENDBRANCH  16  18
ENDBRANCH   7  16
TORSDOF 3
ENDMDL
