MODEL 1
REMARK VINA RESULT:       6.0      0.000      0.000
REMARK  Name = 75368570
REMARK  4 active torsions:
REMARK  status: ('A' for Active; 'I' for Inactive)
REMARK    1  A    between atoms: N_4  and  C_14
REMARK    2  A    between atoms: N_7  and  C_24
REMARK    3  A    between atoms: C_14  and  C_16
REMARK    4  A    between atoms: C_26  and  C_27
REMARK                            x       y       z     vdW  Elec       q    Type
REMARK                         _______ _______ _______ _____ _____    ______ ____
ROOT
ATOM      1  O   UNL     1      -1.895   3.977  25.654  0.00  0.00    -0.252 OA
ATOM      3  N   UNL     1      -0.913   1.938  25.096  0.00  0.00    -0.278 N 
ATOM      4  N   UNL     1       0.909   0.128  23.947  0.00  0.00    -0.295 NA
ATOM      5  N   UNL     1      -3.174   2.027  25.113  0.00  0.00    -0.238 N 
ATOM      6  N   UNL     1      -4.756   3.748  25.603  0.00  0.00    -0.240 NA
ATOM      8  C   UNL     1      -1.325   0.575  24.873  0.00  0.00    +0.109 C 
ATOM      9  C   UNL     1      -0.539  -0.043  23.717  0.00  0.00    +0.109 C 
ATOM     10  C   UNL     1      -2.826   0.693  24.637  0.00  0.00    +0.140 C 
ATOM     11  C   UNL     1       0.501   2.242  25.186  0.00  0.00    +0.125 C 
ATOM     12  C   UNL     1       1.260   1.558  24.047  0.00  0.00    +0.104 C 
ATOM     13  C   UNL     1      -1.995   2.798  25.336  0.00  0.00    +0.311 C 
ATOM     15  C   UNL     1      -4.524   2.466  25.237  0.00  0.00    +0.129 A 
ATOM     17  C   UNL     1      -5.524   1.544  24.970  0.00  0.00    +0.044 A 
ATOM     20  C   UNL     1      -6.844   1.964  25.088  0.00  0.00    +0.005 A 
ATOM     23  C   UNL     1      -6.051   4.118  25.706  0.00  0.00    +0.113 A 
ATOM     25  C   UNL     1      -7.121   3.273  25.462  0.00  0.00    +0.020 A 
ENDROOT
BRANCH   4  14
ATOM     14  C   UNL     1       1.675  -0.511  22.876  0.00  0.00    +0.119 C 
BRANCH  14  16
ATOM     16  C   UNL     1       3.158  -0.336  23.065  0.00  0.00    -0.033 A 
ATOM     18  C   UNL     1       3.797   0.794  22.555  0.00  0.00    +0.007 A 
ATOM     19  C   UNL     1       3.893  -1.304  23.749  0.00  0.00    +0.007 A 
ATOM     21  C   UNL     1       5.172   0.957  22.731  0.00  0.00    +0.023 A 
ATOM     22  C   UNL     1       5.268  -1.141  23.925  0.00  0.00    +0.023 A 
ATOM     24  C   UNL     1       5.907  -0.011  23.416  0.00  0.00    +0.033 A 
BRANCH  24   7
ATOM      2  O   UNL     1       8.226  -1.328  22.019  0.00  0.00    -0.276 OA
ATOM      7  N   UNL     1       7.281   0.153  23.592  0.00  0.00    -0.286 N 
ATOM     26  C   UNL     1       8.322  -0.491  22.911  0.00  0.00    +0.214 C 
ATOM     27  C   UNL     1       9.675  -0.033  23.397  0.00  0.00    +0.109 C 
ATOM     28  H   UNL     1       7.551   0.827  24.305  0.00  0.00    +0.155 HD
ENDBRANCH  24   7
ENDBRANCH  14  16
ENDBRANCH   4  14
TORSDOF 3
ENDMDL
