MODEL 1
REMARK VINA RESULT:      -1.0      0.000      0.000
REMARK  Name = 40586241
REMARK  8 active torsions:
REMARK  status: ('A' for Active; 'I' for Inactive)
REMARK    1  A    between atoms: S_1  and  N_9
REMARK    2  A    between atoms: S_1  and  C_25
REMARK    3  A    between atoms: O_4  and  C_15
REMARK    4  A    between atoms: O_4  and  C_24
REMARK    5  A    between atoms: N_9  and  C_14
REMARK    6  A    between atoms: N_10  and  C_18
REMARK    7  A    between atoms: N_11  and  C_30
REMARK    8  A    between atoms: C_31  and  C_32
REMARK                            x       y       z     vdW  Elec       q    Type
REMARK                         _______ _______ _______ _____ _____    ______ ____
ROOT
ATOM      2  O   UNL     1      -2.153   2.215  25.518  0.00  0.00    -0.369 OA
ATOM      3  O   UNL     1      -1.442   5.147  24.919  0.00  0.00    -0.368 OA
ATOM     12  C   UNL     1      -2.442   4.268  24.364  0.00  0.00    +0.171 C 
ATOM     13  C   UNL     1      -1.823   2.887  24.290  0.00  0.00    +0.191 C 
ATOM     14  C   UNL     1      -3.582   4.106  25.340  0.00  0.00    +0.133 C 
ATOM     15  C   UNL     1      -0.347   3.193  24.201  0.00  0.00    +0.235 C 
ATOM     16  C   UNL     1      -3.077   3.018  26.267  0.00  0.00    +0.183 C 
ATOM     17  C   UNL     1      -0.221   4.412  25.085  0.00  0.00    +0.207 C 
ENDROOT
BRANCH  14   9
ATOM      9  N   UNL     1      -4.794   3.635  24.628  0.00  0.00    -0.182 NA
ATOM     33  H   UNL     1      -5.162   4.225  23.872  0.00  0.00    +0.148 HD
BRANCH   9   1
ATOM      1  S   UNL     1      -5.748   2.405  25.305  0.00  0.00    +0.059 S 
ATOM      5  O   UNL     1      -6.949   2.230  24.509  0.00  0.00    -0.153 OA
ATOM      6  O   UNL     1      -5.848   2.624  26.736  0.00  0.00    -0.153 OA
BRANCH   1  25
ATOM     25  C   UNL     1      -4.728   0.980  25.072  0.00  0.00    +0.105 A 
ATOM     26  C   UNL     1      -4.190   0.707  23.814  0.00  0.00    +0.030 A 
ATOM     27  C   UNL     1      -4.460   0.131  26.145  0.00  0.00    +0.030 A 
ATOM     28  C   UNL     1      -3.384  -0.417  23.629  0.00  0.00    +0.025 A 
ATOM     29  C   UNL     1      -3.654  -0.993  25.960  0.00  0.00    +0.025 A 
ATOM     30  C   UNL     1      -3.116  -1.267  24.702  0.00  0.00    +0.033 A 
BRANCH  30  11
ATOM      8  O   UNL     1      -0.258  -1.772  25.506  0.00  0.00    -0.276 OA
ATOM     11  N   UNL     1      -2.309  -2.390  24.519  0.00  0.00    -0.286 N 
ATOM     31  C   UNL     1      -0.976  -2.572  24.914  0.00  0.00    +0.214 C 
ATOM     32  C   UNL     1      -0.460  -3.935  24.528  0.00  0.00    +0.109 C 
ATOM     35  H   UNL     1      -2.752  -3.169  24.037  0.00  0.00    +0.155 HD
ENDBRANCH  30  11
ENDBRANCH   1  25
ENDBRANCH   9   1
ENDBRANCH  14   9
BRANCH  15   4
ATOM      4  O   UNL     1       0.475   2.133  24.635  0.00  0.00    -0.442 OA
BRANCH   4  24
ATOM      7  O   UNL     1       0.121   0.441  23.123  0.00  0.00    -0.226 OA
ATOM     10  N   UNL     1       2.232   1.349  23.442  0.00  0.00    -0.278 N 
ATOM     24  C   UNL     1       0.878   1.232  23.678  0.00  0.00    +0.401 C 
ATOM     34  H   UNL     1       2.748   2.016  24.008  0.00  0.00    +0.152 HD
BRANCH  10  18
ATOM     18  C   UNL     1       2.955   0.537  22.488  0.00  0.00    +0.076 C 
ATOM     19  C   UNL     1       4.411   0.998  22.365  0.00  0.00    +0.022 C 
ATOM     20  C   UNL     1       2.872  -0.949  22.855  0.00  0.00    +0.022 C 
ATOM     21  C   UNL     1       5.242   0.649  23.599  0.00  0.00    +0.002 C 
ATOM     22  C   UNL     1       3.705  -1.295  24.089  0.00  0.00    +0.002 C 
ATOM     23  C   UNL     1       5.153  -0.837  23.938  0.00  0.00    +0.000 C 
ENDBRANCH  10  18
ENDBRANCH   4  24
ENDBRANCH  15   4
TORSDOF 7
ENDMDL
MODEL 2
REMARK VINA RESULT:      -0.2      2.148      5.450
REMARK  Name = 40586241
REMARK  8 active torsions:
REMARK  status: ('A' for Active; 'I' for Inactive)
REMARK    1  A    between atoms: S_1  and  N_9
REMARK    2  A    between atoms: S_1  and  C_25
REMARK    3  A    between atoms: O_4  and  C_15
REMARK    4  A    between atoms: O_4  and  C_24
REMARK    5  A    between atoms: N_9  and  C_14
REMARK    6  A    between atoms: N_10  and  C_18
REMARK    7  A    between atoms: N_11  and  C_30
REMARK    8  A    between atoms: C_31  and  C_32
REMARK                            x       y       z     vdW  Elec       q    Type
REMARK                         _______ _______ _______ _____ _____    ______ ____
ROOT
ATOM      2  O   UNL     1      -3.646   1.811  24.677  0.00  0.00    -0.369 OA
ATOM      3  O   UNL     1      -6.151   1.364  26.405  0.00  0.00    -0.368 OA
ATOM     12  C   UNL     1      -5.713   0.756  25.172  0.00  0.00    +0.171 C 
ATOM     13  C   UNL     1      -5.047   1.846  24.355  0.00  0.00    +0.191 C 
ATOM     14  C   UNL     1      -4.599  -0.224  25.450  0.00  0.00    +0.133 C 
ATOM     15  C   UNL     1      -5.709   3.098  24.878  0.00  0.00    +0.235 C 
ATOM     16  C   UNL     1      -3.373   0.666  25.499  0.00  0.00    +0.183 C 
ATOM     17  C   UNL     1      -5.892   2.774  26.343  0.00  0.00    +0.207 C 
ENDROOT
BRANCH  14   9
ATOM      9  N   UNL     1      -4.477  -1.184  24.327  0.00  0.00    -0.182 NA
ATOM     33  H   UNL     1      -5.199  -1.158  23.597  0.00  0.00    +0.148 HD
BRANCH   9   1
ATOM      1  S   UNL     1      -3.436  -2.518  24.465  0.00  0.00    +0.059 S 
ATOM      5  O   UNL     1      -3.685  -3.441  23.373  0.00  0.00    -0.153 OA
ATOM      6  O   UNL     1      -3.457  -2.989  25.836  0.00  0.00    -0.153 OA
BRANCH   1  25
ATOM     25  C   UNL     1      -1.853  -1.775  24.199  0.00  0.00    +0.105 A 
ATOM     26  C   UNL     1      -0.752  -2.195  24.945  0.00  0.00    +0.030 A 
ATOM     27  C   UNL     1      -1.707  -0.770  23.244  0.00  0.00    +0.030 A 
ATOM     28  C   UNL     1       0.496  -1.610  24.735  0.00  0.00    +0.025 A 
ATOM     29  C   UNL     1      -0.457  -0.184  23.034  0.00  0.00    +0.025 A 
ATOM     30  C   UNL     1       0.644  -0.605  23.779  0.00  0.00    +0.033 A 
BRANCH  30  11
ATOM      8  O   UNL     1       2.224  -0.235  21.243  0.00  0.00    -0.276 OA
ATOM     11  N   UNL     1       1.893  -0.020  23.568  0.00  0.00    -0.286 N 
ATOM     31  C   UNL     1       2.587   0.125  22.358  0.00  0.00    +0.214 C 
ATOM     32  C   UNL     1       3.913   0.816  22.554  0.00  0.00    +0.109 C 
ATOM     35  H   UNL     1       2.349   0.344  24.402  0.00  0.00    +0.155 HD
ENDBRANCH  30  11
ENDBRANCH   1  25
ENDBRANCH   9   1
ENDBRANCH  14   9
BRANCH  15   4
ATOM      4  O   UNL     1      -4.941   4.264  24.683  0.00  0.00    -0.442 OA
BRANCH   4  24
ATOM      7  O   UNL     1      -4.049   4.633  26.766  0.00  0.00    -0.226 OA
ATOM     10  N   UNL     1      -2.697   4.477  24.888  0.00  0.00    -0.278 N 
ATOM     24  C   UNL     1      -3.901   4.474  25.559  0.00  0.00    +0.401 C 
ATOM     34  H   UNL     1      -2.725   4.379  23.878  0.00  0.00    +0.152 HD
BRANCH  10  18
ATOM     18  C   UNL     1      -1.417   4.673  25.534  0.00  0.00    +0.076 C 
ATOM     19  C   UNL     1      -1.111   3.532  26.509  0.00  0.00    +0.022 C 
ATOM     20  C   UNL     1      -0.298   4.837  24.500  0.00  0.00    +0.022 C 
ATOM     21  C   UNL     1      -0.777   2.224  25.792  0.00  0.00    +0.002 C 
ATOM     22  C   UNL     1       0.035   3.527  23.786  0.00  0.00    +0.002 C 
ATOM     23  C   UNL     1       0.347   2.409  24.777  0.00  0.00    +0.000 C 
ENDBRANCH  10  18
ENDBRANCH   4  24
ENDBRANCH  15   4
TORSDOF 7
ENDMDL
MODEL 3
REMARK VINA RESULT:       0.6      2.634      7.502
REMARK  Name = 40586241
REMARK  8 active torsions:
REMARK  status: ('A' for Active; 'I' for Inactive)
REMARK    1  A    between atoms: S_1  and  N_9
REMARK    2  A    between atoms: S_1  and  C_25
REMARK    3  A    between atoms: O_4  and  C_15
REMARK    4  A    between atoms: O_4  and  C_24
REMARK    5  A    between atoms: N_9  and  C_14
REMARK    6  A    between atoms: N_10  and  C_18
REMARK    7  A    between atoms: N_11  and  C_30
REMARK    8  A    between atoms: C_31  and  C_32
REMARK                            x       y       z     vdW  Elec       q    Type
REMARK                         _______ _______ _______ _____ _____    ______ ____
ROOT
ATOM      2  O   UNL     1      -2.441  -0.302  26.016  0.00  0.00    -0.369 OA
ATOM      3  O   UNL     1      -2.752  -2.442  23.829  0.00  0.00    -0.368 OA
ATOM     12  C   UNL     1      -1.857  -1.317  23.952  0.00  0.00    +0.171 C 
ATOM     13  C   UNL     1      -2.646  -0.195  24.598  0.00  0.00    +0.191 C 
ATOM     14  C   UNL     1      -0.777  -1.628  24.959  0.00  0.00    +0.133 C 
ATOM     15  C   UNL     1      -4.067  -0.529  24.212  0.00  0.00    +0.235 C 
ATOM     16  C   UNL     1      -1.443  -1.300  26.280  0.00  0.00    +0.183 C 
ATOM     17  C   UNL     1      -4.062  -2.040  24.256  0.00  0.00    +0.207 C 
ENDROOT
BRANCH  14   9
ATOM      9  N   UNL     1       0.385  -0.733  24.748  0.00  0.00    -0.182 NA
ATOM     33  H   UNL     1       0.770  -0.248  25.568  0.00  0.00    +0.148 HD
BRANCH   9   1
ATOM      1  S   UNL     1       0.787  -0.224  23.179  0.00  0.00    +0.059 S 
ATOM      5  O   UNL     1       0.254   1.107  22.951  0.00  0.00    -0.153 OA
ATOM      6  O   UNL     1       0.490  -1.296  22.248  0.00  0.00    -0.153 OA
BRANCH   1  25
ATOM     25  C   UNL     1       2.547  -0.096  23.274  0.00  0.00    +0.105 A 
ATOM     26  C   UNL     1       3.187   1.065  22.842  0.00  0.00    +0.030 A 
ATOM     27  C   UNL     1       3.296  -1.157  23.783  0.00  0.00    +0.030 A 
ATOM     28  C   UNL     1       4.576   1.166  22.918  0.00  0.00    +0.025 A 
ATOM     29  C   UNL     1       4.686  -1.056  23.859  0.00  0.00    +0.025 A 
ATOM     30  C   UNL     1       5.326   0.105  23.427  0.00  0.00    +0.033 A 
BRANCH  30  11
ATOM      8  O   UNL     1       7.478  -1.431  21.987  0.00  0.00    -0.276 OA
ATOM     11  N   UNL     1       6.715   0.206  23.504  0.00  0.00    -0.286 N 
ATOM     31  C   UNL     1       7.676  -0.541  22.808  0.00  0.00    +0.214 C 
ATOM     32  C   UNL     1       9.079  -0.126  23.174  0.00  0.00    +0.109 C 
ATOM     35  H   UNL     1       7.064   0.911  24.149  0.00  0.00    +0.155 HD
ENDBRANCH  30  11
ENDBRANCH   1  25
ENDBRANCH   9   1
ENDBRANCH  14   9
BRANCH  15   4
ATOM      4  O   UNL     1      -5.031   0.024  25.079  0.00  0.00    -0.442 OA
BRANCH   4  24
ATOM      7  O   UNL     1      -6.300   1.888  24.642  0.00  0.00    -0.226 OA
ATOM     10  N   UNL     1      -4.095   2.069  25.339  0.00  0.00    -0.278 N 
ATOM     24  C   UNL     1      -5.237   1.381  24.989  0.00  0.00    +0.401 C 
ATOM     34  H   UNL     1      -3.270   1.520  25.562  0.00  0.00    +0.152 HD
BRANCH  10  18
ATOM     18  C   UNL     1      -3.994   3.512  25.344  0.00  0.00    +0.076 C 
ATOM     19  C   UNL     1      -3.037   3.993  26.439  0.00  0.00    +0.022 C 
ATOM     20  C   UNL     1      -3.576   4.039  23.968  0.00  0.00    +0.022 C 
ATOM     21  C   UNL     1      -1.575   3.690  26.111  0.00  0.00    +0.002 C 
ATOM     22  C   UNL     1      -2.113   3.736  23.644  0.00  0.00    +0.002 C 
ATOM     23  C   UNL     1      -1.178   4.235  24.742  0.00  0.00    +0.000 C 
ENDBRANCH  10  18
ENDBRANCH   4  24
ENDBRANCH  15   4
TORSDOF 7
ENDMDL
MODEL 4
REMARK VINA RESULT:       1.5      2.565      7.129
REMARK  Name = 40586241
REMARK  8 active torsions:
REMARK  status: ('A' for Active; 'I' for Inactive)
REMARK    1  A    between atoms: S_1  and  N_9
REMARK    2  A    between atoms: S_1  and  C_25
REMARK    3  A    between atoms: O_4  and  C_15
REMARK    4  A    between atoms: O_4  and  C_24
REMARK    5  A    between atoms: N_9  and  C_14
REMARK    6  A    between atoms: N_10  and  C_18
REMARK    7  A    between atoms: N_11  and  C_30
REMARK    8  A    between atoms: C_31  and  C_32
REMARK                            x       y       z     vdW  Elec       q    Type
REMARK                         _______ _______ _______ _____ _____    ______ ____
ROOT
ATOM      2  O   UNL     1      -2.339   2.082  23.982  0.00  0.00    -0.369 OA
ATOM      3  O   UNL     1      -0.606   4.434  24.945  0.00  0.00    -0.368 OA
ATOM     12  C   UNL     1      -0.552   3.021  25.230  0.00  0.00    +0.171 C 
ATOM     13  C   UNL     1      -1.985   2.531  25.301  0.00  0.00    +0.191 C 
ATOM     14  C   UNL     1       0.029   2.280  24.050  0.00  0.00    +0.133 C 
ATOM     15  C   UNL     1      -2.740   3.781  25.687  0.00  0.00    +0.235 C 
ATOM     16  C   UNL     1      -1.173   2.097  23.145  0.00  0.00    +0.183 C 
ATOM     17  C   UNL     1      -1.977   4.855  24.947  0.00  0.00    +0.207 C 
ENDROOT
BRANCH  14   9
ATOM      9  N   UNL     1       0.536   0.957  24.484  0.00  0.00    -0.182 NA
ATOM     33  H   UNL     1       0.831   0.856  25.462  0.00  0.00    +0.148 HD
BRANCH   9   1
ATOM      1  S   UNL     1       0.989  -0.197  23.323  0.00  0.00    +0.059 S 
ATOM      5  O   UNL     1       0.544   0.237  22.011  0.00  0.00    -0.153 OA
ATOM      6  O   UNL     1       0.637  -1.516  23.812  0.00  0.00    -0.153 OA
BRANCH   1  25
ATOM     25  C   UNL     1       2.753  -0.085  23.365  0.00  0.00    +0.105 A 
ATOM     26  C   UNL     1       3.387   1.080  22.934  0.00  0.00    +0.030 A 
ATOM     27  C   UNL     1       3.509  -1.161  23.829  0.00  0.00    +0.030 A 
ATOM     28  C   UNL     1       4.779   1.169  22.967  0.00  0.00    +0.025 A 
ATOM     29  C   UNL     1       4.901  -1.072  23.862  0.00  0.00    +0.025 A 
ATOM     30  C   UNL     1       5.536   0.093  23.432  0.00  0.00    +0.033 A 
BRANCH  30  11
ATOM      8  O   UNL     1       7.632  -1.532  22.007  0.00  0.00    -0.276 OA
ATOM     11  N   UNL     1       6.928   0.182  23.466  0.00  0.00    -0.286 N 
ATOM     31  C   UNL     1       7.862  -0.607  22.779  0.00  0.00    +0.214 C 
ATOM     32  C   UNL     1       9.278  -0.191  23.088  0.00  0.00    +0.109 C 
ATOM     35  H   UNL     1       7.302   0.912  24.067  0.00  0.00    +0.155 HD
ENDBRANCH  30  11
ENDBRANCH   1  25
ENDBRANCH   9   1
ENDBRANCH  14   9
BRANCH  15   4
ATOM      4  O   UNL     1      -4.102   3.750  25.325  0.00  0.00    -0.442 OA
BRANCH   4  24
ATOM      7  O   UNL     1      -5.814   2.685  26.424  0.00  0.00    -0.226 OA
ATOM     10  N   UNL     1      -4.260   1.497  25.178  0.00  0.00    -0.278 N 
ATOM     24  C   UNL     1      -4.818   2.640  25.708  0.00  0.00    +0.401 C 
ATOM     34  H   UNL     1      -3.406   1.601  24.639  0.00  0.00    +0.152 HD
BRANCH  10  18
ATOM     18  C   UNL     1      -4.786   0.167  25.399  0.00  0.00    +0.076 C 
ATOM     19  C   UNL     1      -4.973  -0.579  24.075  0.00  0.00    +0.022 C 
ATOM     20  C   UNL     1      -3.894  -0.624  26.362  0.00  0.00    +0.022 C 
ATOM     21  C   UNL     1      -3.643  -0.990  23.443  0.00  0.00    +0.002 C 
ATOM     22  C   UNL     1      -2.566  -1.035  25.727  0.00  0.00    +0.002 C 
ATOM     23  C   UNL     1      -2.778  -1.786  24.415  0.00  0.00    +0.000 C 
ENDBRANCH  10  18
ENDBRANCH   4  24
ENDBRANCH  15   4
TORSDOF 7
ENDMDL
MODEL 5
REMARK VINA RESULT:       1.5      2.073      5.262
REMARK  Name = 40586241
REMARK  8 active torsions:
REMARK  status: ('A' for Active; 'I' for Inactive)
REMARK    1  A    between atoms: S_1  and  N_9
REMARK    2  A    between atoms: S_1  and  C_25
REMARK    3  A    between atoms: O_4  and  C_15
REMARK    4  A    between atoms: O_4  and  C_24
REMARK    5  A    between atoms: N_9  and  C_14
REMARK    6  A    between atoms: N_10  and  C_18
REMARK    7  A    between atoms: N_11  and  C_30
REMARK    8  A    between atoms: C_31  and  C_32
REMARK                            x       y       z     vdW  Elec       q    Type
REMARK                         _______ _______ _______ _____ _____    ______ ____
ROOT
ATOM      2  O   UNL     1      -4.384   2.402  22.933  0.00  0.00    -0.369 OA
ATOM      3  O   UNL     1      -5.877   3.191  25.504  0.00  0.00    -0.368 OA
ATOM     12  C   UNL     1      -4.504   3.368  25.097  0.00  0.00    +0.171 C 
ATOM     13  C   UNL     1      -4.112   2.129  24.318  0.00  0.00    +0.191 C 
ATOM     14  C   UNL     1      -4.409   4.482  24.083  0.00  0.00    +0.133 C 
ATOM     15  C   UNL     1      -5.047   1.082  24.875  0.00  0.00    +0.235 C 
ATOM     16  C   UNL     1      -4.751   3.782  22.783  0.00  0.00    +0.183 C 
ATOM     17  C   UNL     1      -6.308   1.878  25.118  0.00  0.00    +0.207 C 
ENDROOT
BRANCH  14   9
ATOM      9  N   UNL     1      -3.020   4.997  24.025  0.00  0.00    -0.182 NA
ATOM     33  H   UNL     1      -2.641   5.244  23.102  0.00  0.00    +0.148 HD
BRANCH   9   1
ATOM      1  S   UNL     1      -1.987   4.793  25.356  0.00  0.00    +0.059 S 
ATOM      5  O   UNL     1      -2.751   4.320  26.495  0.00  0.00    -0.153 OA
ATOM      6  O   UNL     1      -1.146   5.969  25.480  0.00  0.00    -0.153 OA
BRANCH   1  25
ATOM     25  C   UNL     1      -0.946   3.471  24.812  0.00  0.00    +0.105 A 
ATOM     26  C   UNL     1      -1.131   2.913  23.547  0.00  0.00    +0.030 A 
ATOM     27  C   UNL     1       0.060   2.987  25.648  0.00  0.00    +0.030 A 
ATOM     28  C   UNL     1      -0.311   1.871  23.118  0.00  0.00    +0.025 A 
ATOM     29  C   UNL     1       0.881   1.944  25.218  0.00  0.00    +0.025 A 
ATOM     30  C   UNL     1       0.696   1.386  23.953  0.00  0.00    +0.033 A 
BRANCH  30  11
ATOM      8  O   UNL     1       3.541   1.422  22.968  0.00  0.00    -0.276 OA
ATOM     11  N   UNL     1       1.519   0.344  23.524  0.00  0.00    -0.286 N 
ATOM     31  C   UNL     1       2.844   0.418  23.071  0.00  0.00    +0.214 C 
ATOM     32  C   UNL     1       3.383  -0.939  22.698  0.00  0.00    +0.109 C 
ATOM     35  H   UNL     1       1.095  -0.580  23.546  0.00  0.00    +0.155 HD
ENDBRANCH  30  11
ENDBRANCH   1  25
ENDBRANCH   9   1
ENDBRANCH  14   9
BRANCH  15   4
ATOM      4  O   UNL     1      -5.262  -0.002  24.000  0.00  0.00    -0.442 OA
BRANCH   4  24
ATOM      7  O   UNL     1      -4.614  -2.161  23.563  0.00  0.00    -0.226 OA
ATOM     10  N   UNL     1      -3.888  -1.048  25.464  0.00  0.00    -0.278 N 
ATOM     24  C   UNL     1      -4.586  -1.167  24.281  0.00  0.00    +0.401 C 
ATOM     34  H   UNL     1      -3.992  -0.181  25.981  0.00  0.00    +0.152 HD
BRANCH  10  18
ATOM     18  C   UNL     1      -3.078  -2.105  26.029  0.00  0.00    +0.076 C 
ATOM     19  C   UNL     1      -2.411  -2.936  24.928  0.00  0.00    +0.022 C 
ATOM     20  C   UNL     1      -2.040  -1.541  27.005  0.00  0.00    +0.022 C 
ATOM     21  C   UNL     1      -1.288  -2.176  24.221  0.00  0.00    +0.002 C 
ATOM     22  C   UNL     1      -0.918  -0.783  26.295  0.00  0.00    +0.002 C 
ATOM     23  C   UNL     1      -0.262  -1.634  25.212  0.00  0.00    +0.000 C 
ENDBRANCH  10  18
ENDBRANCH   4  24
ENDBRANCH  15   4
TORSDOF 7
ENDMDL
MODEL 6
REMARK VINA RESULT:       2.1      1.619      4.428
REMARK  Name = 40586241
REMARK  8 active torsions:
REMARK  status: ('A' for Active; 'I' for Inactive)
REMARK    1  A    between atoms: S_1  and  N_9
REMARK    2  A    between atoms: S_1  and  C_25
REMARK    3  A    between atoms: O_4  and  C_15
REMARK    4  A    between atoms: O_4  and  C_24
REMARK    5  A    between atoms: N_9  and  C_14
REMARK    6  A    between atoms: N_10  and  C_18
REMARK    7  A    between atoms: N_11  and  C_30
REMARK    8  A    between atoms: C_31  and  C_32
REMARK                            x       y       z     vdW  Elec       q    Type
REMARK                         _______ _______ _______ _____ _____    ______ ____
ROOT
ATOM      2  O   UNL     1      -2.618   0.954  24.486  0.00  0.00    -0.369 OA
ATOM      3  O   UNL     1      -2.665  -2.121  24.526  0.00  0.00    -0.368 OA
ATOM     12  C   UNL     1      -3.200  -1.140  25.438  0.00  0.00    +0.171 C 
ATOM     13  C   UNL     1      -2.209   0.005  25.485  0.00  0.00    +0.191 C 
ATOM     14  C   UNL     1      -4.446  -0.520  24.853  0.00  0.00    +0.133 C 
ATOM     15  C   UNL     1      -0.910  -0.670  25.115  0.00  0.00    +0.235 C 
ATOM     16  C   UNL     1      -3.889   0.561  23.948  0.00  0.00    +0.183 C 
ATOM     17  C   UNL     1      -1.362  -1.696  24.101  0.00  0.00    +0.207 C 
ENDROOT
BRANCH  14   9
ATOM      9  N   UNL     1      -5.258   0.097  25.929  0.00  0.00    -0.182 NA
ATOM     33  H   UNL     1      -5.496  -0.486  26.740  0.00  0.00    +0.148 HD
BRANCH   9   1
ATOM      1  S   UNL     1      -6.087   1.549  25.636  0.00  0.00    +0.059 S 
ATOM      5  O   UNL     1      -6.829   1.931  26.823  0.00  0.00    -0.153 OA
ATOM      6  O   UNL     1      -6.762   1.452  24.355  0.00  0.00    -0.153 OA
BRANCH   1  25
ATOM     25  C   UNL     1      -4.757   2.696  25.432  0.00  0.00    +0.105 A 
ATOM     26  C   UNL     1      -3.953   3.031  26.522  0.00  0.00    +0.030 A 
ATOM     27  C   UNL     1      -4.511   3.264  24.183  0.00  0.00    +0.030 A 
ATOM     28  C   UNL     1      -2.903   3.935  26.361  0.00  0.00    +0.025 A 
ATOM     29  C   UNL     1      -3.460   4.168  24.023  0.00  0.00    +0.025 A 
ATOM     30  C   UNL     1      -2.656   4.503  25.112  0.00  0.00    +0.033 A 
BRANCH  30  11
ATOM      8  O   UNL     1       0.123   4.093  24.030  0.00  0.00    -0.276 OA
ATOM     11  N   UNL     1      -1.606   5.407  24.950  0.00  0.00    -0.286 N 
ATOM     31  C   UNL     1      -0.323   5.160  24.440  0.00  0.00    +0.214 C 
ATOM     32  C   UNL     1       0.524   6.407  24.430  0.00  0.00    +0.109 C 
ATOM     35  H   UNL     1      -1.804   6.361  25.242  0.00  0.00    +0.155 HD
ENDBRANCH  30  11
ENDBRANCH   1  25
ENDBRANCH   9   1
ENDBRANCH  14   9
BRANCH  15   4
ATOM      4  O   UNL     1       0.053   0.212  24.585  0.00  0.00    -0.442 OA
BRANCH   4  24
ATOM      7  O   UNL     1       0.262  -0.400  22.382  0.00  0.00    -0.226 OA
ATOM     10  N   UNL     1       2.081  -0.441  23.821  0.00  0.00    -0.278 N 
ATOM     24  C   UNL     1       0.759  -0.228  23.490  0.00  0.00    +0.401 C 
ATOM     34  H   UNL     1       2.347  -0.303  24.791  0.00  0.00    +0.152 HD
BRANCH  10  18
ATOM     18  C   UNL     1       3.079  -0.907  22.884  0.00  0.00    +0.076 C 
ATOM     19  C   UNL     1       3.580   0.238  21.997  0.00  0.00    +0.022 C 
ATOM     20  C   UNL     1       4.239  -1.595  23.611  0.00  0.00    +0.022 C 
ATOM     21  C   UNL     1       4.463   1.224  22.761  0.00  0.00    +0.002 C 
ATOM     22  C   UNL     1       5.122  -0.606  24.372  0.00  0.00    +0.002 C 
ATOM     23  C   UNL     1       5.617   0.518  23.467  0.00  0.00    +0.000 C 
ENDBRANCH  10  18
ENDBRANCH   4  24
ENDBRANCH  15   4
TORSDOF 7
ENDMDL
MODEL 7
REMARK VINA RESULT:       2.3      2.338      4.490
REMARK  Name = 40586241
REMARK  8 active torsions:
REMARK  status: ('A' for Active; 'I' for Inactive)
REMARK    1  A    between atoms: S_1  and  N_9
REMARK    2  A    between atoms: S_1  and  C_25
REMARK    3  A    between atoms: O_4  and  C_15
REMARK    4  A    between atoms: O_4  and  C_24
REMARK    5  A    between atoms: N_9  and  C_14
REMARK    6  A    between atoms: N_10  and  C_18
REMARK    7  A    between atoms: N_11  and  C_30
REMARK    8  A    between atoms: C_31  and  C_32
REMARK                            x       y       z     vdW  Elec       q    Type
REMARK                         _______ _______ _______ _____ _____    ______ ____
ROOT
ATOM      2  O   UNL     1      -2.057   0.420  24.244  0.00  0.00    -0.369 OA
ATOM      3  O   UNL     1      -4.155  -1.721  24.935  0.00  0.00    -0.368 OA
ATOM     12  C   UNL     1      -4.004  -0.351  25.361  0.00  0.00    +0.171 C 
ATOM     13  C   UNL     1      -2.517  -0.096  25.505  0.00  0.00    +0.191 C 
ATOM     14  C   UNL     1      -4.428   0.582  24.253  0.00  0.00    +0.133 C 
ATOM     15  C   UNL     1      -1.972  -1.478  25.775  0.00  0.00    +0.235 C 
ATOM     16  C   UNL     1      -3.185   0.666  23.390  0.00  0.00    +0.183 C 
ATOM     17  C   UNL     1      -2.864  -2.345  24.917  0.00  0.00    +0.207 C 
ENDROOT
BRANCH  14   9
ATOM      9  N   UNL     1      -4.743   1.919  24.809  0.00  0.00    -0.182 NA
ATOM     33  H   UNL     1      -5.615   2.020  25.344  0.00  0.00    +0.148 HD
BRANCH   9   1
ATOM      1  S   UNL     1      -3.917   3.288  24.240  0.00  0.00    +0.059 S 
ATOM      5  O   UNL     1      -4.589   4.488  24.706  0.00  0.00    -0.153 OA
ATOM      6  O   UNL     1      -3.636   3.112  22.828  0.00  0.00    -0.153 OA
BRANCH   1  25
ATOM     25  C   UNL     1      -2.373   3.164  25.093  0.00  0.00    +0.105 A 
ATOM     26  C   UNL     1      -2.350   3.070  26.484  0.00  0.00    +0.030 A 
ATOM     27  C   UNL     1      -1.178   3.159  24.373  0.00  0.00    +0.030 A 
ATOM     28  C   UNL     1      -1.133   2.971  27.157  0.00  0.00    +0.025 A 
ATOM     29  C   UNL     1       0.040   3.060  25.047  0.00  0.00    +0.025 A 
ATOM     30  C   UNL     1       0.063   2.966  26.438  0.00  0.00    +0.033 A 
BRANCH  30  11
ATOM      8  O   UNL     1       0.654   2.634  29.371  0.00  0.00    -0.276 OA
ATOM     11  N   UNL     1       1.281   2.866  27.110  0.00  0.00    -0.286 N 
ATOM     31  C   UNL     1       1.500   2.713  28.487  0.00  0.00    +0.214 C 
ATOM     32  C   UNL     1       2.971   2.645  28.814  0.00  0.00    +0.109 C 
ATOM     35  H   UNL     1       2.108   2.910  26.519  0.00  0.00    +0.155 HD
ENDBRANCH  30  11
ENDBRANCH   1  25
ENDBRANCH   9   1
ENDBRANCH  14   9
BRANCH  15   4
ATOM      4  O   UNL     1      -0.610  -1.621  25.441  0.00  0.00    -0.442 OA
BRANCH   4  24
ATOM      7  O   UNL     1      -0.771  -2.132  23.208  0.00  0.00    -0.226 OA
ATOM     10  N   UNL     1       0.669  -0.478  23.964  0.00  0.00    -0.278 N 
ATOM     24  C   UNL     1      -0.279  -1.468  24.115  0.00  0.00    +0.401 C 
ATOM     34  H   UNL     1       1.024  -0.040  24.808  0.00  0.00    +0.152 HD
BRANCH  10  18
ATOM     18  C   UNL     1       1.221  -0.082  22.687  0.00  0.00    +0.076 C 
ATOM     19  C   UNL     1       1.755   1.353  22.740  0.00  0.00    +0.022 C 
ATOM     20  C   UNL     1       2.305  -1.062  22.228  0.00  0.00    +0.022 C 
ATOM     21  C   UNL     1       3.040   1.469  23.560  0.00  0.00    +0.002 C 
ATOM     22  C   UNL     1       3.589  -0.943  23.049  0.00  0.00    +0.002 C 
ATOM     23  C   UNL     1       4.108   0.492  23.078  0.00  0.00    +0.000 C 
ENDBRANCH  10  18
ENDBRANCH   4  24
ENDBRANCH  15   4
TORSDOF 7
ENDMDL
