MODEL 1
REMARK VINA RESULT:       1.8      0.000      0.000
REMARK  Name = 40481337
REMARK  6 active torsions:
REMARK  status: ('A' for Active; 'I' for Inactive)
REMARK    1  A    between atoms: O_3  and  C_11
REMARK    2  A    between atoms: O_3  and  C_15
REMARK    3  A    between atoms: N_4  and  C_10
REMARK    4  A    between atoms: C_14  and  C_16
REMARK    5  A    between atoms: C_15  and  C_17
REMARK    6  A    between atoms: C_24  and  C_28
REMARK                            x       y       z     vdW  Elec       q    Type
REMARK                         _______ _______ _______ _____ _____    ______ ____
ROOT
ATOM      4  N   UNL     1      -3.678  -1.520  24.673  0.00  0.00    -0.217 N 
ATOM      5  N   UNL     1      -4.830  -2.202  24.599  0.00  0.00    -0.043 NA
ATOM      6  N   UNL     1      -3.225  -3.284  23.494  0.00  0.00    -0.108 NA
ATOM      7  N   UNL     1      -4.547  -3.278  23.877  0.00  0.00    -0.023 NA
ATOM     14  C   UNL     1      -2.706  -2.187  23.998  0.00  0.00    +0.182 A 
ENDROOT
BRANCH   4  10
ATOM      1  O   UNL     1      -2.529   1.520  24.177  0.00  0.00    -0.369 OA
ATOM      2  O   UNL     1      -4.993   1.688  26.009  0.00  0.00    -0.369 OA
ATOM      8  C   UNL     1      -4.648   0.776  24.944  0.00  0.00    +0.176 C 
ATOM      9  C   UNL     1      -3.935   1.592  23.884  0.00  0.00    +0.180 C 
ATOM     10  C   UNL     1      -3.600  -0.209  25.431  0.00  0.00    +0.168 C 
ATOM     11  C   UNL     1      -4.484   2.980  24.111  0.00  0.00    +0.175 C 
ATOM     12  C   UNL     1      -2.313   0.588  25.246  0.00  0.00    +0.190 C 
ATOM     13  C   UNL     1      -4.636   3.021  25.615  0.00  0.00    +0.194 C 
BRANCH  11   3
ATOM      3  O   UNL     1      -3.640   4.004  23.635  0.00  0.00    -0.367 OA
BRANCH   3  15
ATOM     15  C   UNL     1      -2.971   4.681  24.696  0.00  0.00    +0.195 C 
BRANCH  15  17
ATOM     17  C   UNL     1      -1.708   3.943  25.029  0.00  0.00    -0.022 A 
ATOM     20  C   UNL     1      -1.465   3.529  26.339  0.00  0.00    +0.006 A 
ATOM     21  C   UNL     1      -0.775   3.670  24.028  0.00  0.00    +0.006 A 
ATOM     25  C   UNL     1      -0.291   2.843  26.648  0.00  0.00    +0.000 A 
ATOM     26  C   UNL     1       0.399   2.985  24.337  0.00  0.00    +0.000 A 
ATOM     27  C   UNL     1       0.641   2.571  25.647  0.00  0.00    +0.000 A 
ENDBRANCH  15  17
ENDBRANCH   3  15
ENDBRANCH  11   3
ENDBRANCH   4  10
BRANCH  14  16
ATOM     16  C   UNL     1      -1.344  -1.737  23.874  0.00  0.00    +0.021 A 
ATOM     18  C   UNL     1      -0.386  -2.150  24.801  0.00  0.00    +0.012 A 
ATOM     19  C   UNL     1      -0.981  -0.889  22.828  0.00  0.00    +0.012 A 
ATOM     22  C   UNL     1       0.934  -1.715  24.682  0.00  0.00    +0.009 A 
ATOM     23  C   UNL     1       0.339  -0.453  22.710  0.00  0.00    +0.009 A 
ATOM     24  C   UNL     1       1.295  -0.866  23.635  0.00  0.00    -0.018 A 
BRANCH  24  28
ATOM     28  C   UNL     1       2.665  -0.415  23.511  0.00  0.00    -0.018 A 
ATOM     29  C   UNL     1       3.709  -1.229  23.950  0.00  0.00    +0.008 A 
ATOM     30  C   UNL     1       2.940   0.832  22.951  0.00  0.00    +0.008 A 
ATOM     31  C   UNL     1       5.030  -0.795  23.830  0.00  0.00    +0.001 A 
ATOM     32  C   UNL     1       4.261   1.267  22.831  0.00  0.00    +0.001 A 
ATOM     33  C   UNL     1       5.306   0.452  23.271  0.00  0.00    +0.000 A 
ENDBRANCH  24  28
ENDBRANCH  14  16
TORSDOF 6
ENDMDL
MODEL 2
REMARK VINA RESULT:       3.6      2.446      3.991
REMARK  Name = 40481337
REMARK  6 active torsions:
REMARK  status: ('A' for Active; 'I' for Inactive)
REMARK    1  A    between atoms: O_3  and  C_11
REMARK    2  A    between atoms: O_3  and  C_15
REMARK    3  A    between atoms: N_4  and  C_10
REMARK    4  A    between atoms: C_14  and  C_16
REMARK    5  A    between atoms: C_15  and  C_17
REMARK    6  A    between atoms: C_24  and  C_28
REMARK                            x       y       z     vdW  Elec       q    Type
REMARK                         _______ _______ _______ _____ _____    ______ ____
ROOT
ATOM      4  N   UNL     1      -5.150   2.597  25.221  0.00  0.00    -0.217 N 
ATOM      5  N   UNL     1      -6.460   2.518  25.491  0.00  0.00    -0.043 NA
ATOM      6  N   UNL     1      -5.760   0.636  24.522  0.00  0.00    -0.108 NA
ATOM      7  N   UNL     1      -6.828   1.317  25.061  0.00  0.00    -0.023 NA
ATOM     14  C   UNL     1      -4.732   1.447  24.632  0.00  0.00    +0.182 A 
ENDROOT
BRANCH   4  10
ATOM      1  O   UNL     1      -2.336   3.354  26.744  0.00  0.00    -0.369 OA
ATOM      2  O   UNL     1      -2.854   5.440  24.545  0.00  0.00    -0.369 OA
ATOM      8  C   UNL     1      -3.182   4.036  24.635  0.00  0.00    +0.176 C 
ATOM      9  C   UNL     1      -2.023   3.361  25.341  0.00  0.00    +0.180 C 
ATOM     10  C   UNL     1      -4.360   3.843  25.573  0.00  0.00    +0.168 C 
ATOM     11  C   UNL     1      -0.866   4.280  25.030  0.00  0.00    +0.175 C 
ATOM     12  C   UNL     1      -3.675   3.831  26.936  0.00  0.00    +0.190 C 
ATOM     13  C   UNL     1      -1.525   5.640  25.050  0.00  0.00    +0.194 C 
BRANCH  11   3
ATOM      3  O   UNL     1       0.190   4.189  25.959  0.00  0.00    -0.367 OA
BRANCH   3  15
ATOM     15  C   UNL     1       0.548   2.836  26.230  0.00  0.00    +0.195 C 
BRANCH  15  17
ATOM     17  C   UNL     1       1.107   2.745  27.619  0.00  0.00    -0.022 A 
ATOM     20  C   UNL     1       2.458   3.005  27.846  0.00  0.00    +0.006 A 
ATOM     21  C   UNL     1       0.274   2.401  28.684  0.00  0.00    +0.006 A 
ATOM     25  C   UNL     1       2.978   2.921  29.138  0.00  0.00    +0.000 A 
ATOM     26  C   UNL     1       0.794   2.316  29.976  0.00  0.00    +0.000 A 
ATOM     27  C   UNL     1       2.145   2.576  30.202  0.00  0.00    +0.000 A 
ENDBRANCH  15  17
ENDBRANCH   3  15
ENDBRANCH  11   3
ENDBRANCH   4  10
BRANCH  14  16
ATOM     16  C   UNL     1      -3.379   1.192  24.210  0.00  0.00    +0.021 A 
ATOM     18  C   UNL     1      -2.910   1.726  23.009  0.00  0.00    +0.012 A 
ATOM     19  C   UNL     1      -2.536   0.411  25.001  0.00  0.00    +0.012 A 
ATOM     22  C   UNL     1      -1.600   1.479  22.599  0.00  0.00    +0.009 A 
ATOM     23  C   UNL     1      -1.226   0.164  24.591  0.00  0.00    +0.009 A 
ATOM     24  C   UNL     1      -0.758   0.698  23.391  0.00  0.00    -0.018 A 
BRANCH  24  28
ATOM     28  C   UNL     1       0.602   0.443  22.967  0.00  0.00    -0.018 A 
ATOM     29  C   UNL     1       1.658   1.138  23.557  0.00  0.00    +0.008 A 
ATOM     30  C   UNL     1       0.857  -0.499  21.970  0.00  0.00    +0.008 A 
ATOM     31  C   UNL     1       2.969   0.892  23.149  0.00  0.00    +0.001 A 
ATOM     32  C   UNL     1       2.168  -0.745  21.562  0.00  0.00    +0.001 A 
ATOM     33  C   UNL     1       3.224  -0.048  22.151  0.00  0.00    +0.000 A 
ENDBRANCH  24  28
ENDBRANCH  14  16
TORSDOF 6
ENDMDL
MODEL 3
REMARK VINA RESULT:       4.1      2.764      5.940
REMARK  Name = 40481337
REMARK  6 active torsions:
REMARK  status: ('A' for Active; 'I' for Inactive)
REMARK    1  A    between atoms: O_3  and  C_11
REMARK    2  A    between atoms: O_3  and  C_15
REMARK    3  A    between atoms: N_4  and  C_10
REMARK    4  A    between atoms: C_14  and  C_16
REMARK    5  A    between atoms: C_15  and  C_17
REMARK    6  A    between atoms: C_24  and  C_28
REMARK                            x       y       z     vdW  Elec       q    Type
REMARK                         _______ _______ _______ _____ _____    ______ ____
ROOT
ATOM      4  N   UNL     1      -4.366   4.410  25.767  0.00  0.00    -0.217 N 
ATOM      5  N   UNL     1      -5.141   5.481  25.992  0.00  0.00    -0.043 NA
ATOM      6  N   UNL     1      -6.388   3.752  25.341  0.00  0.00    -0.108 NA
ATOM      7  N   UNL     1      -6.376   5.072  25.729  0.00  0.00    -0.023 NA
ATOM     14  C   UNL     1      -5.134   3.362  25.373  0.00  0.00    +0.182 A 
ENDROOT
BRANCH   4  10
ATOM      1  O   UNL     1      -1.826   2.334  25.987  0.00  0.00    -0.369 OA
ATOM      2  O   UNL     1      -0.847   4.951  24.702  0.00  0.00    -0.369 OA
ATOM      8  C   UNL     1      -2.123   4.275  24.655  0.00  0.00    +0.176 C 
ATOM      9  C   UNL     1      -1.829   2.789  24.624  0.00  0.00    +0.180 C 
ATOM     10  C   UNL     1      -2.864   4.486  25.963  0.00  0.00    +0.168 C 
ATOM     11  C   UNL     1      -0.449   2.738  24.013  0.00  0.00    +0.175 C 
ATOM     12  C   UNL     1      -2.254   3.401  26.845  0.00  0.00    +0.190 C 
ATOM     13  C   UNL     1       0.200   3.976  24.588  0.00  0.00    +0.194 C 
BRANCH  11   3
ATOM      3  O   UNL     1       0.265   1.566  24.334  0.00  0.00    -0.367 OA
BRANCH   3  15
ATOM     15  C   UNL     1       0.571   0.792  23.176  0.00  0.00    +0.195 C 
BRANCH  15  17
ATOM     17  C   UNL     1       2.032   0.455  23.184  0.00  0.00    -0.022 A 
ATOM     20  C   UNL     1       2.976   1.433  22.873  0.00  0.00    +0.006 A 
ATOM     21  C   UNL     1       2.447  -0.839  23.502  0.00  0.00    +0.006 A 
ATOM     25  C   UNL     1       4.335   1.118  22.880  0.00  0.00    +0.000 A 
ATOM     26  C   UNL     1       3.806  -1.153  23.509  0.00  0.00    +0.000 A 
ATOM     27  C   UNL     1       4.749  -0.175  23.198  0.00  0.00    +0.000 A 
ENDBRANCH  15  17
ENDBRANCH   3  15
ENDBRANCH  11   3
ENDBRANCH   4  10
BRANCH  14  16
ATOM     16  C   UNL     1      -4.625   2.054  25.049  0.00  0.00    +0.021 A 
ATOM     18  C   UNL     1      -4.067   1.814  23.793  0.00  0.00    +0.012 A 
ATOM     19  C   UNL     1      -4.689   1.027  25.991  0.00  0.00    +0.012 A 
ATOM     22  C   UNL     1      -3.574   0.548  23.479  0.00  0.00    +0.009 A 
ATOM     23  C   UNL     1      -4.196  -0.238  25.677  0.00  0.00    +0.009 A 
ATOM     24  C   UNL     1      -3.639  -0.478  24.422  0.00  0.00    -0.018 A 
BRANCH  24  28
ATOM     28  C   UNL     1      -3.126  -1.793  24.097  0.00  0.00    -0.018 A 
ATOM     29  C   UNL     1      -1.754  -2.037  24.149  0.00  0.00    +0.008 A 
ATOM     30  C   UNL     1      -4.004  -2.813  23.732  0.00  0.00    +0.008 A 
ATOM     31  C   UNL     1      -1.259  -3.303  23.836  0.00  0.00    +0.001 A 
ATOM     32  C   UNL     1      -3.509  -4.079  23.419  0.00  0.00    +0.001 A 
ATOM     33  C   UNL     1      -2.136  -4.324  23.471  0.00  0.00    +0.000 A 
ENDBRANCH  24  28
ENDBRANCH  14  16
TORSDOF 6
ENDMDL
MODEL 4
REMARK VINA RESULT:       4.5      2.782      4.786
REMARK  Name = 40481337
REMARK  6 active torsions:
REMARK  status: ('A' for Active; 'I' for Inactive)
REMARK    1  A    between atoms: O_3  and  C_11
REMARK    2  A    between atoms: O_3  and  C_15
REMARK    3  A    between atoms: N_4  and  C_10
REMARK    4  A    between atoms: C_14  and  C_16
REMARK    5  A    between atoms: C_15  and  C_17
REMARK    6  A    between atoms: C_24  and  C_28
REMARK                            x       y       z     vdW  Elec       q    Type
REMARK                         _______ _______ _______ _____ _____    ______ ____
ROOT
ATOM      4  N   UNL     1      -4.117   4.086  25.759  0.00  0.00    -0.217 N 
ATOM      5  N   UNL     1      -4.790   4.889  26.595  0.00  0.00    -0.043 NA
ATOM      6  N   UNL     1      -2.615   4.922  27.082  0.00  0.00    -0.108 NA
ATOM      7  N   UNL     1      -3.867   5.397  27.402  0.00  0.00    -0.023 NA
ATOM     14  C   UNL     1      -2.794   4.113  26.063  0.00  0.00    +0.182 A 
ENDROOT
BRANCH   4  10
ATOM      1  O   UNL     1      -3.602   1.425  23.898  0.00  0.00    -0.369 OA
ATOM      2  O   UNL     1      -6.621   1.687  24.422  0.00  0.00    -0.369 OA
ATOM      8  C   UNL     1      -5.472   2.046  25.221  0.00  0.00    +0.176 C 
ATOM      9  C   UNL     1      -4.426   0.974  24.987  0.00  0.00    +0.180 C 
ATOM     10  C   UNL     1      -4.842   3.314  24.673  0.00  0.00    +0.168 C 
ATOM     11  C   UNL     1      -5.260  -0.223  24.599  0.00  0.00    +0.175 C 
ATOM     12  C   UNL     1      -3.966   2.768  23.550  0.00  0.00    +0.190 C 
ATOM     13  C   UNL     1      -6.381   0.412  23.809  0.00  0.00    +0.194 C 
BRANCH  11   3
ATOM      3  O   UNL     1      -4.554  -1.180  23.844  0.00  0.00    -0.367 OA
BRANCH   3  15
ATOM     15  C   UNL     1      -4.155  -2.297  24.635  0.00  0.00    +0.195 C 
BRANCH  15  17
ATOM     17  C   UNL     1      -2.729  -2.113  25.059  0.00  0.00    -0.022 A 
ATOM     20  C   UNL     1      -2.432  -1.403  26.223  0.00  0.00    +0.006 A 
ATOM     21  C   UNL     1      -1.697  -2.651  24.289  0.00  0.00    +0.006 A 
ATOM     25  C   UNL     1      -1.105  -1.231  26.617  0.00  0.00    +0.000 A 
ATOM     26  C   UNL     1      -0.370  -2.479  24.683  0.00  0.00    +0.000 A 
ATOM     27  C   UNL     1      -0.075  -1.769  25.847  0.00  0.00    +0.000 A 
ENDBRANCH  15  17
ENDBRANCH   3  15
ENDBRANCH  11   3
ENDBRANCH   4  10
BRANCH  14  16
ATOM     16  C   UNL     1      -1.781   3.366  25.362  0.00  0.00    +0.021 A 
ATOM     18  C   UNL     1      -1.365   2.126  25.851  0.00  0.00    +0.012 A 
ATOM     19  C   UNL     1      -1.214   3.880  24.196  0.00  0.00    +0.012 A 
ATOM     22  C   UNL     1      -0.385   1.402  25.173  0.00  0.00    +0.009 A 
ATOM     23  C   UNL     1      -0.234   3.156  23.519  0.00  0.00    +0.009 A 
ATOM     24  C   UNL     1       0.181   1.918  24.007  0.00  0.00    -0.018 A 
BRANCH  24  28
ATOM     28  C   UNL     1       1.198   1.167  23.302  0.00  0.00    -0.018 A 
ATOM     29  C   UNL     1       0.841   0.052  22.544  0.00  0.00    +0.008 A 
ATOM     30  C   UNL     1       2.534   1.558  23.382  0.00  0.00    +0.008 A 
ATOM     31  C   UNL     1       1.820  -0.673  21.866  0.00  0.00    +0.001 A 
ATOM     32  C   UNL     1       3.514   0.833  22.703  0.00  0.00    +0.001 A 
ATOM     33  C   UNL     1       3.157  -0.283  21.945  0.00  0.00    +0.000 A 
ENDBRANCH  24  28
ENDBRANCH  14  16
TORSDOF 6
ENDMDL
MODEL 5
REMARK VINA RESULT:       5.5      2.811      5.781
REMARK  Name = 40481337
REMARK  6 active torsions:
REMARK  status: ('A' for Active; 'I' for Inactive)
REMARK    1  A    between atoms: O_3  and  C_11
REMARK    2  A    between atoms: O_3  and  C_15
REMARK    3  A    between atoms: N_4  and  C_10
REMARK    4  A    between atoms: C_14  and  C_16
REMARK    5  A    between atoms: C_15  and  C_17
REMARK    6  A    between atoms: C_24  and  C_28
REMARK                            x       y       z     vdW  Elec       q    Type
REMARK                         _______ _______ _______ _____ _____    ______ ____
ROOT
ATOM      4  N   UNL     1      -3.580   2.735  23.586  0.00  0.00    -0.217 N 
ATOM      5  N   UNL     1      -4.475   3.295  22.760  0.00  0.00    -0.043 NA
ATOM      6  N   UNL     1      -3.462   4.866  23.974  0.00  0.00    -0.108 NA
ATOM      7  N   UNL     1      -4.399   4.598  23.002  0.00  0.00    -0.023 NA
ATOM     14  C   UNL     1      -2.968   3.700  24.321  0.00  0.00    +0.182 A 
ENDROOT
BRANCH   4  10
ATOM      1  O   UNL     1      -1.427   0.556  22.392  0.00  0.00    -0.369 OA
ATOM      2  O   UNL     1      -2.527  -0.510  25.058  0.00  0.00    -0.369 OA
ATOM      8  C   UNL     1      -2.287   0.834  24.586  0.00  0.00    +0.176 C 
ATOM      9  C   UNL     1      -1.023   0.784  23.752  0.00  0.00    +0.180 C 
ATOM     10  C   UNL     1      -3.373   1.233  23.602  0.00  0.00    +0.168 C 
ATOM     11  C   UNL     1      -0.294  -0.407  24.327  0.00  0.00    +0.175 C 
ATOM     12  C   UNL     1      -2.858   0.620  22.304  0.00  0.00    +0.190 C 
ATOM     13  C   UNL     1      -1.431  -1.347  24.658  0.00  0.00    +0.194 C 
BRANCH  11   3
ATOM      3  O   UNL     1       0.630  -0.987  23.434  0.00  0.00    -0.367 OA
BRANCH   3  15
ATOM     15  C   UNL     1       1.350  -0.002  22.696  0.00  0.00    +0.195 C 
BRANCH  15  17
ATOM     17  C   UNL     1       2.805  -0.095  23.045  0.00  0.00    -0.022 A 
ATOM     20  C   UNL     1       3.323  -1.280  23.569  0.00  0.00    +0.006 A 
ATOM     21  C   UNL     1       3.642   1.004  22.846  0.00  0.00    +0.006 A 
ATOM     25  C   UNL     1       4.677  -1.366  23.893  0.00  0.00    +0.000 A 
ATOM     26  C   UNL     1       4.995   0.917  23.171  0.00  0.00    +0.000 A 
ATOM     27  C   UNL     1       5.513  -0.268  23.694  0.00  0.00    +0.000 A 
ENDBRANCH  15  17
ENDBRANCH   3  15
ENDBRANCH  11   3
ENDBRANCH   4  10
BRANCH  14  16
ATOM     16  C   UNL     1      -1.949   3.450  25.309  0.00  0.00    +0.021 A 
ATOM     18  C   UNL     1      -2.303   3.275  26.647  0.00  0.00    +0.012 A 
ATOM     19  C   UNL     1      -0.609   3.382  24.928  0.00  0.00    +0.012 A 
ATOM     22  C   UNL     1      -1.318   3.033  27.604  0.00  0.00    +0.009 A 
ATOM     23  C   UNL     1       0.376   3.140  25.885  0.00  0.00    +0.009 A 
ATOM     24  C   UNL     1       0.022   2.965  27.222  0.00  0.00    -0.018 A 
BRANCH  24  28
ATOM     28  C   UNL     1       1.045   2.713  28.214  0.00  0.00    -0.018 A 
ATOM     29  C   UNL     1       2.379   3.001  27.928  0.00  0.00    +0.008 A 
ATOM     30  C   UNL     1       0.696   2.183  29.456  0.00  0.00    +0.008 A 
ATOM     31  C   UNL     1       3.365   2.758  28.884  0.00  0.00    +0.001 A 
ATOM     32  C   UNL     1       1.682   1.940  30.413  0.00  0.00    +0.001 A 
ATOM     33  C   UNL     1       3.017   2.228  30.126  0.00  0.00    +0.000 A 
ENDBRANCH  24  28
ENDBRANCH  14  16
TORSDOF 6
ENDMDL
