MODEL 1
REMARK VINA RESULT:       2.5      0.000      0.000
REMARK  Name = 7134370
REMARK  13 active torsions:
REMARK  status: ('A' for Active; 'I' for Inactive)
REMARK    1  A    between atoms: S_1  and  N_12
REMARK    2  A    between atoms: S_1  and  C_24
REMARK    3  A    between atoms: O_7  and  C_23
REMARK    4  A    between atoms: O_7  and  C_30
REMARK    5  A    between atoms: O_9  and  C_37
REMARK    6  A    between atoms: N_12  and  C_15
REMARK    7  A    between atoms: N_13  and  C_22
REMARK    8  A    between atoms: C_17  and  C_20
REMARK    9  A    between atoms: C_21  and  C_23
REMARK   10  A    between atoms: C_22  and  C_25
REMARK   11  A    between atoms: C_22  and  C_26
REMARK   12  A    between atoms: C_25  and  C_27
REMARK   13  A    between atoms: C_30  and  C_37
REMARK                            x       y       z     vdW  Elec       q    Type
REMARK                         _______ _______ _______ _____ _____    ______ ____
ROOT
ATOM      4  O   UNL     1       2.791  -1.696  23.434  0.00  0.00    -0.273 OA
ATOM     11  N   UNL     1       0.870  -0.381  23.444  0.00  0.00    -0.288 N 
ATOM     15  C   UNL     1      -1.981  -0.160  24.003  0.00  0.00    +0.080 C 
ATOM     16  C   UNL     1      -1.347   0.630  22.857  0.00  0.00    +0.052 C 
ATOM     17  C   UNL     1       0.158   0.841  23.034  0.00  0.00    +0.163 C 
ATOM     18  C   UNL     1      -1.216  -1.458  24.246  0.00  0.00    +0.039 C 
ATOM     19  C   UNL     1       0.255  -1.171  24.518  0.00  0.00    +0.110 C 
ATOM     21  C   UNL     1       2.142  -0.745  22.989  0.00  0.00    +0.242 C 
ENDROOT
BRANCH  17  20
ATOM      3  O   UNL     1       1.578   2.404  24.151  0.00  0.00    -0.274 OA
ATOM     13  N   UNL     1      -0.624   2.167  24.870  0.00  0.00    -0.302 N 
ATOM     20  C   UNL     1       0.464   1.891  24.062  0.00  0.00    +0.234 C 
ATOM     39  H   UNL     1      -1.514   1.718  24.670  0.00  0.00    +0.150 HD
BRANCH  13  22
ATOM     22  C   UNL     1      -0.582   3.124  25.952  0.00  0.00    +0.163 C 
BRANCH  22  26
ATOM      8  O   UNL     1      -2.730   4.158  26.428  0.00  0.00    -0.274 OA
ATOM     14  N   UNL     1      -1.484   4.970  24.679  0.00  0.00    -0.328 N 
ATOM     26  C   UNL     1      -1.722   4.106  25.726  0.00  0.00    +0.231 C 
ATOM     40  H   UNL     1      -2.158   5.685  24.428  0.00  0.00    +0.145 HD
ATOM     41  H   UNL     1      -0.635   4.931  24.122  0.00  0.00    +0.145 HD
ENDBRANCH  22  26
BRANCH  22  25
ATOM     25  C   UNL     1      -0.719   2.454  27.324  0.00  0.00    +0.067 C 
BRANCH  25  27
ATOM     27  C   UNL     1       0.543   2.545  28.147  0.00  0.00    -0.045 A 
ATOM     32  C   UNL     1       1.728   2.985  27.558  0.00  0.00    +0.004 A 
ATOM     33  C   UNL     1       0.524   2.189  29.495  0.00  0.00    +0.004 A 
ATOM     34  C   UNL     1       2.895   3.069  28.319  0.00  0.00    +0.000 A 
ATOM     35  C   UNL     1       1.690   2.273  30.255  0.00  0.00    +0.000 A 
ATOM     36  C   UNL     1       2.875   2.713  29.667  0.00  0.00    +0.000 A 
ENDBRANCH  25  27
ENDBRANCH  22  25
ENDBRANCH  13  22
ENDBRANCH  17  20
BRANCH  15  12
ATOM     12  N   UNL     1      -3.390  -0.475  23.659  0.00  0.00    -0.186 NA
ATOM     38  H   UNL     1      -3.512  -1.353  23.138  0.00  0.00    +0.148 HD
BRANCH  12   1
ATOM      1  S   UNL     1      -4.591  -0.128  24.827  0.00  0.00    +0.065 S 
ATOM      5  O   UNL     1      -4.078  -0.427  26.150  0.00  0.00    -0.153 OA
ATOM      6  O   UNL     1      -5.857  -0.666  24.371  0.00  0.00    -0.153 OA
BRANCH   1  24
ATOM      2  S   UNL     1      -5.879   2.234  26.044  0.00  0.00    -0.077 S 
ATOM     24  C   UNL     1      -4.853   1.645  24.807  0.00  0.00    +0.142 A 
ATOM     28  C   UNL     1      -4.396   2.656  23.990  0.00  0.00    +0.036 A 
ATOM     29  C   UNL     1      -4.893   3.931  24.387  0.00  0.00    +0.010 A 
ATOM     31  C   UNL     1      -5.713   3.846  25.491  0.00  0.00    +0.047 A 
ENDBRANCH   1  24
ENDBRANCH  12   1
ENDBRANCH  15  12
BRANCH  21  23
ATOM     23  C   UNL     1       2.731   0.089  21.877  0.00  0.00    +0.256 C 
BRANCH  23   7
ATOM      7  O   UNL     1       3.705   0.916  22.467  0.00  0.00    -0.359 OA
BRANCH   7  30
ATOM     30  C   UNL     1       4.968   0.262  22.573  0.00  0.00    +0.280 C 
BRANCH  30  37
ATOM     10  O   UNL     1       5.516   0.914  24.850  0.00  0.00    -0.248 OA
ATOM     37  C   UNL     1       5.306   0.040  24.022  0.00  0.00    +0.331 C 
BRANCH  37   9
ATOM      9  O   UNL     1       5.344  -1.289  24.295  0.00  0.00    -0.479 OA
ATOM     42  H   UNL     1       5.031  -1.484  25.204  0.00  0.00    +0.295 HD
ENDBRANCH  37   9
ENDBRANCH  30  37
ENDBRANCH   7  30
ENDBRANCH  23   7
ENDBRANCH  21  23
TORSDOF 13
ENDMDL
MODEL 2
REMARK VINA RESULT:       2.6      3.115      7.746
REMARK  Name = 7134370
REMARK  13 active torsions:
REMARK  status: ('A' for Active; 'I' for Inactive)
REMARK    1  A    between atoms: S_1  and  N_12
REMARK    2  A    between atoms: S_1  and  C_24
REMARK    3  A    between atoms: O_7  and  C_23
REMARK    4  A    between atoms: O_7  and  C_30
REMARK    5  A    between atoms: O_9  and  C_37
REMARK    6  A    between atoms: N_12  and  C_15
REMARK    7  A    between atoms: N_13  and  C_22
REMARK    8  A    between atoms: C_17  and  C_20
REMARK    9  A    between atoms: C_21  and  C_23
REMARK   10  A    between atoms: C_22  and  C_25
REMARK   11  A    between atoms: C_22  and  C_26
REMARK   12  A    between atoms: C_25  and  C_27
REMARK   13  A    between atoms: C_30  and  C_37
REMARK                            x       y       z     vdW  Elec       q    Type
REMARK                         _______ _______ _______ _____ _____    ______ ____
ROOT
ATOM      4  O   UNL     1      -1.637   4.519  26.081  0.00  0.00    -0.273 OA
ATOM     11  N   UNL     1      -1.524   2.643  24.707  0.00  0.00    -0.288 N 
ATOM     15  C   UNL     1      -0.216   0.123  24.052  0.00  0.00    +0.080 C 
ATOM     16  C   UNL     1      -0.827   0.994  22.953  0.00  0.00    +0.052 C 
ATOM     17  C   UNL     1      -1.911   1.942  23.470  0.00  0.00    +0.163 C 
ATOM     18  C   UNL     1       0.248   0.985  25.222  0.00  0.00    +0.039 C 
ATOM     19  C   UNL     1      -0.902   1.828  25.757  0.00  0.00    +0.110 C 
ATOM     21  C   UNL     1      -1.844   3.975  24.992  0.00  0.00    +0.242 C 
ENDROOT
BRANCH  17  20
ATOM      3  O   UNL     1      -3.859   0.701  22.866  0.00  0.00    -0.274 OA
ATOM     13  N   UNL     1      -3.528   1.262  25.101  0.00  0.00    -0.302 N 
ATOM     20  C   UNL     1      -3.197   1.226  23.758  0.00  0.00    +0.234 C 
ATOM     39  H   UNL     1      -2.877   1.681  25.760  0.00  0.00    +0.150 HD
BRANCH  13  22
ATOM     22  C   UNL     1      -4.731   0.665  25.635  0.00  0.00    +0.163 C 
BRANCH  22  26
ATOM      8  O   UNL     1      -6.213   2.092  24.341  0.00  0.00    -0.274 OA
ATOM     14  N   UNL     1      -6.467   2.027  26.622  0.00  0.00    -0.328 N 
ATOM     26  C   UNL     1      -5.855   1.672  25.439  0.00  0.00    +0.231 C 
ATOM     40  H   UNL     1      -7.242   2.682  26.633  0.00  0.00    +0.145 HD
ATOM     41  H   UNL     1      -6.176   1.653  27.521  0.00  0.00    +0.145 HD
ENDBRANCH  22  26
BRANCH  22  25
ATOM     25  C   UNL     1      -5.076  -0.660  24.946  0.00  0.00    +0.067 C 
BRANCH  25  27
ATOM     27  C   UNL     1      -3.883  -1.574  24.809  0.00  0.00    -0.045 A 
ATOM     32  C   UNL     1      -2.805  -1.449  25.685  0.00  0.00    +0.004 A 
ATOM     33  C   UNL     1      -3.858  -2.544  23.807  0.00  0.00    +0.004 A 
ATOM     34  C   UNL     1      -1.702  -2.294  25.559  0.00  0.00    +0.000 A 
ATOM     35  C   UNL     1      -2.756  -3.389  23.681  0.00  0.00    +0.000 A 
ATOM     36  C   UNL     1      -1.678  -3.264  24.557  0.00  0.00    +0.000 A 
ENDBRANCH  25  27
ENDBRANCH  22  25
ENDBRANCH  13  22
ENDBRANCH  17  20
BRANCH  15  12
ATOM     12  N   UNL     1       0.941  -0.622  23.499  0.00  0.00    -0.186 NA
ATOM     38  H   UNL     1       0.697  -1.523  23.067  0.00  0.00    +0.148 HD
BRANCH  12   1
ATOM      1  S   UNL     1       2.164   0.276  22.709  0.00  0.00    +0.065 S 
ATOM      5  O   UNL     1       2.102   1.659  23.143  0.00  0.00    -0.153 OA
ATOM      6  O   UNL     1       2.166  -0.071  21.302  0.00  0.00    -0.153 OA
BRANCH   1  24
ATOM      2  S   UNL     1       5.028   0.786  23.214  0.00  0.00    -0.077 S 
ATOM     24  C   UNL     1       3.740  -0.339  23.300  0.00  0.00    +0.142 A 
ATOM     28  C   UNL     1       4.145  -1.549  23.818  0.00  0.00    +0.036 A 
ATOM     29  C   UNL     1       5.530  -1.553  24.150  0.00  0.00    +0.010 A 
ATOM     31  C   UNL     1       6.132  -0.345  23.873  0.00  0.00    +0.047 A 
ENDBRANCH   1  24
ENDBRANCH  12   1
ENDBRANCH  15  12
BRANCH  21  23
ATOM     23  C   UNL     1      -2.471   4.778  23.879  0.00  0.00    +0.256 C 
BRANCH  23   7
ATOM      7  O   UNL     1      -3.808   4.348  23.778  0.00  0.00    -0.359 OA
BRANCH   7  30
ATOM     30  C   UNL     1      -4.711   5.257  24.405  0.00  0.00    +0.280 C 
BRANCH  30  37
ATOM     10  O   UNL     1      -4.537   4.079  26.523  0.00  0.00    -0.248 OA
ATOM     37  C   UNL     1      -5.214   4.666  25.693  0.00  0.00    +0.331 C 
BRANCH  37   9
ATOM      9  O   UNL     1      -6.549   4.879  25.816  0.00  0.00    -0.479 OA
ATOM     42  H   UNL     1      -6.951   5.178  24.972  0.00  0.00    +0.295 HD
ENDBRANCH  37   9
ENDBRANCH  30  37
ENDBRANCH   7  30
ENDBRANCH  23   7
ENDBRANCH  21  23
TORSDOF 13
ENDMDL
MODEL 3
REMARK VINA RESULT:       3.7      3.139      7.816
REMARK  Name = 7134370
REMARK  13 active torsions:
REMARK  status: ('A' for Active; 'I' for Inactive)
REMARK    1  A    between atoms: S_1  and  N_12
REMARK    2  A    between atoms: S_1  and  C_24
REMARK    3  A    between atoms: O_7  and  C_23
REMARK    4  A    between atoms: O_7  and  C_30
REMARK    5  A    between atoms: O_9  and  C_37
REMARK    6  A    between atoms: N_12  and  C_15
REMARK    7  A    between atoms: N_13  and  C_22
REMARK    8  A    between atoms: C_17  and  C_20
REMARK    9  A    between atoms: C_21  and  C_23
REMARK   10  A    between atoms: C_22  and  C_25
REMARK   11  A    between atoms: C_22  and  C_26
REMARK   12  A    between atoms: C_25  and  C_27
REMARK   13  A    between atoms: C_30  and  C_37
REMARK                            x       y       z     vdW  Elec       q    Type
REMARK                         _______ _______ _______ _____ _____    ______ ____
ROOT
ATOM      4  O   UNL     1      -2.814   5.359  26.019  0.00  0.00    -0.273 OA
ATOM     11  N   UNL     1      -2.133   3.466  24.845  0.00  0.00    -0.288 N 
ATOM     15  C   UNL     1       0.052   1.789  23.895  0.00  0.00    +0.080 C 
ATOM     16  C   UNL     1      -1.231   1.938  23.075  0.00  0.00    +0.052 C 
ATOM     17  C   UNL     1      -2.436   2.363  23.917  0.00  0.00    +0.163 C 
ATOM     18  C   UNL     1       0.308   3.047  24.720  0.00  0.00    +0.039 C 
ATOM     19  C   UNL     1      -0.887   3.357  25.612  0.00  0.00    +0.110 C 
ATOM     21  C   UNL     1      -3.015   4.511  25.144  0.00  0.00    +0.242 C 
ENDROOT
BRANCH  17  20
ATOM      3  O   UNL     1      -2.660   1.085  25.922  0.00  0.00    -0.274 OA
ATOM     13  N   UNL     1      -3.817   0.409  24.018  0.00  0.00    -0.302 N 
ATOM     20  C   UNL     1      -2.975   1.233  24.744  0.00  0.00    +0.234 C 
ATOM     39  H   UNL     1      -4.048   0.658  23.061  0.00  0.00    +0.150 HD
BRANCH  13  22
ATOM     22  C   UNL     1      -4.448  -0.765  24.578  0.00  0.00    +0.163 C 
BRANCH  22  26
ATOM      8  O   UNL     1      -3.904  -1.699  22.400  0.00  0.00    -0.274 OA
ATOM     14  N   UNL     1      -4.771  -3.091  24.007  0.00  0.00    -0.328 N 
ATOM     26  C   UNL     1      -4.351  -1.867  23.533  0.00  0.00    +0.231 C 
ATOM     40  H   UNL     1      -4.746  -3.916  23.416  0.00  0.00    +0.145 HD
ATOM     41  H   UNL     1      -5.116  -3.221  24.953  0.00  0.00    +0.145 HD
ENDBRANCH  22  26
BRANCH  22  25
ATOM     25  C   UNL     1      -3.786  -1.211  25.887  0.00  0.00    +0.067 C 
BRANCH  25  27
ATOM     27  C   UNL     1      -2.371  -1.698  25.688  0.00  0.00    -0.045 A 
ATOM     32  C   UNL     1      -2.118  -2.778  24.842  0.00  0.00    +0.004 A 
ATOM     33  C   UNL     1      -1.318  -1.070  26.351  0.00  0.00    +0.004 A 
ATOM     34  C   UNL     1      -0.810  -3.228  24.658  0.00  0.00    +0.000 A 
ATOM     35  C   UNL     1      -0.010  -1.520  26.168  0.00  0.00    +0.000 A 
ATOM     36  C   UNL     1       0.243  -2.599  25.322  0.00  0.00    +0.000 A 
ENDBRANCH  25  27
ENDBRANCH  22  25
ENDBRANCH  13  22
ENDBRANCH  17  20
BRANCH  15  12
ATOM     12  N   UNL     1       1.195   1.560  22.978  0.00  0.00    -0.186 NA
ATOM     38  H   UNL     1       1.993   2.190  23.130  0.00  0.00    +0.148 HD
BRANCH  12   1
ATOM      1  S   UNL     1       1.587  -0.058  22.584  0.00  0.00    +0.065 S 
ATOM      5  O   UNL     1       1.620  -0.209  21.142  0.00  0.00    -0.153 OA
ATOM      6  O   UNL     1       0.800  -0.947  23.416  0.00  0.00    -0.153 OA
BRANCH   1  24
ATOM      2  S   UNL     1       4.363   0.926  22.788  0.00  0.00    -0.077 S 
ATOM     24  C   UNL     1       3.269  -0.345  23.133  0.00  0.00    +0.142 A 
ATOM     28  C   UNL     1       3.881  -1.391  23.786  0.00  0.00    +0.036 A 
ATOM     29  C   UNL     1       5.268  -1.146  24.007  0.00  0.00    +0.010 A 
ATOM     31  C   UNL     1       5.662   0.078  23.514  0.00  0.00    +0.047 A 
ENDBRANCH   1  24
ENDBRANCH  12   1
ENDBRANCH  15  12
BRANCH  21  23
ATOM     23  C   UNL     1      -4.278   4.592  24.322  0.00  0.00    +0.256 C 
BRANCH  23   7
ATOM      7  O   UNL     1      -5.352   4.490  25.226  0.00  0.00    -0.359 OA
BRANCH   7  30
ATOM     30  C   UNL     1      -5.180   3.409  26.142  0.00  0.00    +0.280 C 
BRANCH  30  37
ATOM     10  O   UNL     1      -6.478   1.920  24.726  0.00  0.00    -0.248 OA
ATOM     37  C   UNL     1      -6.176   2.323  25.839  0.00  0.00    +0.331 C 
BRANCH  37   9
ATOM      9  O   UNL     1      -6.703   1.838  26.992  0.00  0.00    -0.479 OA
ATOM     42  H   UNL     1      -7.653   2.067  27.084  0.00  0.00    +0.295 HD
ENDBRANCH  37   9
ENDBRANCH  30  37
ENDBRANCH   7  30
ENDBRANCH  23   7
ENDBRANCH  21  23
TORSDOF 13
ENDMDL
MODEL 4
REMARK VINA RESULT:       3.7      3.162      7.237
REMARK  Name = 7134370
REMARK  13 active torsions:
REMARK  status: ('A' for Active; 'I' for Inactive)
REMARK    1  A    between atoms: S_1  and  N_12
REMARK    2  A    between atoms: S_1  and  C_24
REMARK    3  A    between atoms: O_7  and  C_23
REMARK    4  A    between atoms: O_7  and  C_30
REMARK    5  A    between atoms: O_9  and  C_37
REMARK    6  A    between atoms: N_12  and  C_15
REMARK    7  A    between atoms: N_13  and  C_22
REMARK    8  A    between atoms: C_17  and  C_20
REMARK    9  A    between atoms: C_21  and  C_23
REMARK   10  A    between atoms: C_22  and  C_25
REMARK   11  A    between atoms: C_22  and  C_26
REMARK   12  A    between atoms: C_25  and  C_27
REMARK   13  A    between atoms: C_30  and  C_37
REMARK                            x       y       z     vdW  Elec       q    Type
REMARK                         _______ _______ _______ _____ _____    ______ ____
ROOT
ATOM      4  O   UNL     1      -2.274   3.862  27.677  0.00  0.00    -0.273 OA
ATOM     11  N   UNL     1      -1.942   2.954  25.559  0.00  0.00    -0.288 N 
ATOM     15  C   UNL     1      -0.258   1.392  23.766  0.00  0.00    +0.080 C 
ATOM     16  C   UNL     1      -1.114   2.541  23.230  0.00  0.00    +0.052 C 
ATOM     17  C   UNL     1      -2.302   2.877  24.133  0.00  0.00    +0.163 C 
ATOM     18  C   UNL     1       0.143   1.654  25.215  0.00  0.00    +0.039 C 
ATOM     19  C   UNL     1      -1.090   1.878  26.081  0.00  0.00    +0.110 C 
ATOM     21  C   UNL     1      -2.474   3.883  26.459  0.00  0.00    +0.242 C 
ENDROOT
BRANCH  17  20
ATOM      3  O   UNL     1      -3.712   1.366  22.935  0.00  0.00    -0.274 OA
ATOM     13  N   UNL     1      -4.013   1.610  25.231  0.00  0.00    -0.302 N 
ATOM     20  C   UNL     1      -3.405   1.867  24.015  0.00  0.00    +0.234 C 
ATOM     39  H   UNL     1      -3.641   2.043  26.071  0.00  0.00    +0.150 HD
BRANCH  13  22
ATOM     22  C   UNL     1      -5.119   0.691  25.383  0.00  0.00    +0.163 C 
BRANCH  22  26
ATOM      8  O   UNL     1      -7.111   1.598  24.325  0.00  0.00    -0.274 OA
ATOM     14  N   UNL     1      -6.699   2.121  26.523  0.00  0.00    -0.328 N 
ATOM     26  C   UNL     1      -6.397   1.515  25.322  0.00  0.00    +0.231 C 
ATOM     40  H   UNL     1      -7.533   2.690  26.625  0.00  0.00    +0.145 HD
ATOM     41  H   UNL     1      -6.112   2.024  27.346  0.00  0.00    +0.145 HD
ENDBRANCH  22  26
BRANCH  22  25
ATOM     25  C   UNL     1      -5.129  -0.389  24.295  0.00  0.00    +0.067 C 
BRANCH  25  27
ATOM     27  C   UNL     1      -3.986  -1.365  24.431  0.00  0.00    -0.045 A 
ATOM     32  C   UNL     1      -2.853  -1.013  25.167  0.00  0.00    +0.004 A 
ATOM     33  C   UNL     1      -4.061  -2.617  23.823  0.00  0.00    +0.004 A 
ATOM     34  C   UNL     1      -1.797  -1.916  25.293  0.00  0.00    +0.000 A 
ATOM     35  C   UNL     1      -3.005  -3.519  23.949  0.00  0.00    +0.000 A 
ATOM     36  C   UNL     1      -1.873  -3.168  24.684  0.00  0.00    +0.000 A 
ENDBRANCH  25  27
ENDBRANCH  22  25
ENDBRANCH  13  22
ENDBRANCH  17  20
BRANCH  15  12
ATOM     12  N   UNL     1       0.962   1.261  22.933  0.00  0.00    -0.186 NA
ATOM     38  H   UNL     1       1.687   1.965  23.129  0.00  0.00    +0.148 HD
BRANCH  12   1
ATOM      1  S   UNL     1       1.529  -0.317  22.593  0.00  0.00    +0.065 S 
ATOM      5  O   UNL     1       1.555  -0.521  21.158  0.00  0.00    -0.153 OA
ATOM      6  O   UNL     1       0.861  -1.254  23.475  0.00  0.00    -0.153 OA
BRANCH   1  24
ATOM      2  S   UNL     1       4.174   0.987  22.716  0.00  0.00    -0.077 S 
ATOM     24  C   UNL     1       3.241  -0.390  23.117  0.00  0.00    +0.142 A 
ATOM     28  C   UNL     1       3.981  -1.339  23.787  0.00  0.00    +0.036 A 
ATOM     29  C   UNL     1       5.333  -0.929  23.974  0.00  0.00    +0.010 A 
ATOM     31  C   UNL     1       5.574   0.318  23.440  0.00  0.00    +0.047 A 
ENDBRANCH   1  24
ENDBRANCH  12   1
ENDBRANCH  15  12
BRANCH  21  23
ATOM     23  C   UNL     1      -3.335   4.978  25.877  0.00  0.00    +0.256 C 
BRANCH  23   7
ATOM      7  O   UNL     1      -2.723   5.372  24.673  0.00  0.00    -0.359 OA
BRANCH   7  30
ATOM     30  C   UNL     1      -1.559   6.167  24.899  0.00  0.00    +0.280 C 
BRANCH  30  37
ATOM     10  O   UNL     1      -0.033   5.401  23.169  0.00  0.00    -0.248 OA
ATOM     37  C   UNL     1      -0.349   5.464  24.348  0.00  0.00    +0.331 C 
BRANCH  37   9
ATOM      9  O   UNL     1       0.363   4.899  25.355  0.00  0.00    -0.479 OA
ATOM     42  H   UNL     1       0.507   3.940  25.208  0.00  0.00    +0.295 HD
ENDBRANCH  37   9
ENDBRANCH  30  37
ENDBRANCH   7  30
ENDBRANCH  23   7
ENDBRANCH  21  23
TORSDOF 13
ENDMDL
MODEL 5
REMARK VINA RESULT:       3.8      2.413      5.570
REMARK  Name = 7134370
REMARK  13 active torsions:
REMARK  status: ('A' for Active; 'I' for Inactive)
REMARK    1  A    between atoms: S_1  and  N_12
REMARK    2  A    between atoms: S_1  and  C_24
REMARK    3  A    between atoms: O_7  and  C_23
REMARK    4  A    between atoms: O_7  and  C_30
REMARK    5  A    between atoms: O_9  and  C_37
REMARK    6  A    between atoms: N_12  and  C_15
REMARK    7  A    between atoms: N_13  and  C_22
REMARK    8  A    between atoms: C_17  and  C_20
REMARK    9  A    between atoms: C_21  and  C_23
REMARK   10  A    between atoms: C_22  and  C_25
REMARK   11  A    between atoms: C_22  and  C_26
REMARK   12  A    between atoms: C_25  and  C_27
REMARK   13  A    between atoms: C_30  and  C_37
REMARK                            x       y       z     vdW  Elec       q    Type
REMARK                         _______ _______ _______ _____ _____    ______ ____
ROOT
ATOM      4  O   UNL     1       1.083   4.393  26.085  0.00  0.00    -0.273 OA
ATOM     11  N   UNL     1      -0.767   3.067  25.594  0.00  0.00    -0.288 N 
ATOM     15  C   UNL     1      -3.462   2.877  24.504  0.00  0.00    +0.080 C 
ATOM     16  C   UNL     1      -3.024   1.980  25.663  0.00  0.00    +0.052 C 
ATOM     17  C   UNL     1      -1.507   1.803  25.745  0.00  0.00    +0.163 C 
ATOM     18  C   UNL     1      -2.703   4.200  24.534  0.00  0.00    +0.039 C 
ATOM     19  C   UNL     1      -1.199   3.956  24.509  0.00  0.00    +0.110 C 
ATOM     21  C   UNL     1       0.391   3.395  26.308  0.00  0.00    +0.242 C 
ENDROOT
BRANCH  17  20
ATOM      3  O   UNL     1      -1.374   0.927  23.527  0.00  0.00    -0.274 OA
ATOM     13  N   UNL     1      -0.083  -0.046  25.203  0.00  0.00    -0.302 N 
ATOM     20  C   UNL     1      -0.990   0.866  24.693  0.00  0.00    +0.234 C 
ATOM     39  H   UNL     1       0.201   0.031  26.176  0.00  0.00    +0.150 HD
BRANCH  13  22
ATOM     22  C   UNL     1       0.543  -1.071  24.399  0.00  0.00    +0.163 C 
BRANCH  22  26
ATOM      8  O   UNL     1      -0.988  -2.318  22.981  0.00  0.00    -0.274 OA
ATOM     14  N   UNL     1      -0.869  -2.857  25.210  0.00  0.00    -0.328 N 
ATOM     26  C   UNL     1      -0.520  -2.118  24.100  0.00  0.00    +0.231 C 
ATOM     40  H   UNL     1      -1.559  -3.599  25.147  0.00  0.00    +0.145 HD
ATOM     41  H   UNL     1      -0.457  -2.697  26.124  0.00  0.00    +0.145 HD
ENDBRANCH  22  26
BRANCH  22  25
ATOM     25  C   UNL     1       1.123  -0.512  23.095  0.00  0.00    +0.067 C 
BRANCH  25  27
ATOM     27  C   UNL     1       2.614  -0.289  23.167  0.00  0.00    -0.045 A 
ATOM     32  C   UNL     1       3.443  -1.285  23.685  0.00  0.00    +0.004 A 
ATOM     33  C   UNL     1       3.163   0.911  22.717  0.00  0.00    +0.004 A 
ATOM     34  C   UNL     1       4.821  -1.079  23.751  0.00  0.00    +0.000 A 
ATOM     35  C   UNL     1       4.540   1.117  22.783  0.00  0.00    +0.000 A 
ATOM     36  C   UNL     1       5.369   0.122  23.301  0.00  0.00    +0.000 A 
ENDBRANCH  25  27
ENDBRANCH  22  25
ENDBRANCH  13  22
ENDBRANCH  17  20
BRANCH  15  12
ATOM     12  N   UNL     1      -4.918   3.141  24.613  0.00  0.00    -0.186 NA
ATOM     38  H   UNL     1      -5.299   3.731  23.861  0.00  0.00    +0.148 HD
BRANCH  12   1
ATOM      1  S   UNL     1      -5.923   1.860  25.138  0.00  0.00    +0.065 S 
ATOM      5  O   UNL     1      -7.106   1.802  24.300  0.00  0.00    -0.153 OA
ATOM      6  O   UNL     1      -6.025   1.907  26.583  0.00  0.00    -0.153 OA
BRANCH   1  24
ATOM      2  S   UNL     1      -4.397  -0.424  26.219  0.00  0.00    -0.077 S 
ATOM     24  C   UNL     1      -5.041   0.332  24.824  0.00  0.00    +0.142 A 
ATOM     28  C   UNL     1      -4.765  -0.379  23.677  0.00  0.00    +0.036 A 
ATOM     29  C   UNL     1      -4.016  -1.560  23.947  0.00  0.00    +0.010 A 
ATOM     31  C   UNL     1      -3.747  -1.707  25.290  0.00  0.00    +0.047 A 
ENDBRANCH   1  24
ENDBRANCH  12   1
ENDBRANCH  15  12
BRANCH  21  23
ATOM     23  C   UNL     1       0.792   2.459  27.422  0.00  0.00    +0.256 C 
BRANCH  23   7
ATOM      7  O   UNL     1       2.162   2.677  27.656  0.00  0.00    -0.359 OA
BRANCH   7  30
ATOM     30  C   UNL     1       2.406   3.200  28.961  0.00  0.00    +0.280 C 
BRANCH  30  37
ATOM     10  O   UNL     1       0.630   2.769  30.563  0.00  0.00    -0.248 OA
ATOM     37  C   UNL     1       1.638   2.402  29.980  0.00  0.00    +0.331 C 
BRANCH  37   9
ATOM      9  O   UNL     1       2.226   1.193  30.167  0.00  0.00    -0.479 OA
ATOM     42  H   UNL     1       2.789   1.181  30.970  0.00  0.00    +0.295 HD
ENDBRANCH  37   9
ENDBRANCH  30  37
ENDBRANCH   7  30
ENDBRANCH  23   7
ENDBRANCH  21  23
TORSDOF 13
ENDMDL
MODEL 6
REMARK VINA RESULT:       3.8      2.918      6.547
REMARK  Name = 7134370
REMARK  13 active torsions:
REMARK  status: ('A' for Active; 'I' for Inactive)
REMARK    1  A    between atoms: S_1  and  N_12
REMARK    2  A    between atoms: S_1  and  C_24
REMARK    3  A    between atoms: O_7  and  C_23
REMARK    4  A    between atoms: O_7  and  C_30
REMARK    5  A    between atoms: O_9  and  C_37
REMARK    6  A    between atoms: N_12  and  C_15
REMARK    7  A    between atoms: N_13  and  C_22
REMARK    8  A    between atoms: C_17  and  C_20
REMARK    9  A    between atoms: C_21  and  C_23
REMARK   10  A    between atoms: C_22  and  C_25
REMARK   11  A    between atoms: C_22  and  C_26
REMARK   12  A    between atoms: C_25  and  C_27
REMARK   13  A    between atoms: C_30  and  C_37
REMARK                            x       y       z     vdW  Elec       q    Type
REMARK                         _______ _______ _______ _____ _____    ______ ____
ROOT
ATOM      4  O   UNL     1       0.093   0.738  28.698  0.00  0.00    -0.273 OA
ATOM     11  N   UNL     1      -0.296   1.662  26.596  0.00  0.00    -0.288 N 
ATOM     15  C   UNL     1      -0.399   1.299  23.707  0.00  0.00    +0.080 C 
ATOM     16  C   UNL     1       0.021   2.640  24.311  0.00  0.00    +0.052 C 
ATOM     17  C   UNL     1      -0.491   2.844  25.738  0.00  0.00    +0.163 C 
ATOM     18  C   UNL     1      -0.035   0.153  24.646  0.00  0.00    +0.039 C 
ATOM     19  C   UNL     1      -0.660   0.363  26.019  0.00  0.00    +0.110 C 
ATOM     21  C   UNL     1       0.062   1.718  27.948  0.00  0.00    +0.242 C 
ENDROOT
BRANCH  17  20
ATOM      3  O   UNL     1      -2.369   4.233  26.233  0.00  0.00    -0.274 OA
ATOM     13  N   UNL     1      -2.733   2.150  25.260  0.00  0.00    -0.302 N 
ATOM     20  C   UNL     1      -1.954   3.172  25.773  0.00  0.00    +0.234 C 
ATOM     39  H   UNL     1      -2.278   1.336  24.857  0.00  0.00    +0.150 HD
BRANCH  13  22
ATOM     22  C   UNL     1      -4.176   2.210  25.202  0.00  0.00    +0.163 C 
BRANCH  22  26
ATOM      8  O   UNL     1      -4.157   4.072  23.640  0.00  0.00    -0.274 OA
ATOM     14  N   UNL     1      -5.412   4.257  25.554  0.00  0.00    -0.328 N 
ATOM     26  C   UNL     1      -4.547   3.600  24.705  0.00  0.00    +0.231 C 
ATOM     40  H   UNL     1      -5.750   5.189  25.335  0.00  0.00    +0.145 HD
ATOM     41  H   UNL     1      -5.745   3.845  26.420  0.00  0.00    +0.145 HD
ENDBRANCH  22  26
BRANCH  22  25
ATOM     25  C   UNL     1      -4.764   1.138  24.277  0.00  0.00    +0.067 C 
BRANCH  25  27
ATOM     27  C   UNL     1      -4.253  -0.247  24.589  0.00  0.00    -0.045 A 
ATOM     32  C   UNL     1      -3.801  -0.549  25.874  0.00  0.00    +0.004 A 
ATOM     33  C   UNL     1      -4.231  -1.224  23.595  0.00  0.00    +0.004 A 
ATOM     34  C   UNL     1      -3.328  -1.830  26.163  0.00  0.00    +0.000 A 
ATOM     35  C   UNL     1      -3.759  -2.504  23.884  0.00  0.00    +0.000 A 
ATOM     36  C   UNL     1      -3.308  -2.807  25.168  0.00  0.00    +0.000 A 
ENDBRANCH  25  27
ENDBRANCH  22  25
ENDBRANCH  13  22
ENDBRANCH  17  20
BRANCH  15  12
ATOM     12  N   UNL     1       0.289   1.110  22.407  0.00  0.00    -0.186 NA
ATOM     38  H   UNL     1       0.705   1.968  22.020  0.00  0.00    +0.148 HD
BRANCH  12   1
ATOM      1  S   UNL     1       1.197  -0.323  22.188  0.00  0.00    +0.065 S 
ATOM      5  O   UNL     1       1.310  -0.610  20.771  0.00  0.00    -0.153 OA
ATOM      6  O   UNL     1       0.724  -1.325  23.123  0.00  0.00    -0.153 OA
BRANCH   1  24
ATOM      2  S   UNL     1       3.632  -1.281  23.555  0.00  0.00    -0.077 S 
ATOM     24  C   UNL     1       2.867   0.017  22.741  0.00  0.00    +0.142 A 
ATOM     28  C   UNL     1       3.684   1.122  22.648  0.00  0.00    +0.036 A 
ATOM     29  C   UNL     1       4.955   0.901  23.253  0.00  0.00    +0.010 A 
ATOM     31  C   UNL     1       5.061  -0.365  23.786  0.00  0.00    +0.047 A 
ENDBRANCH   1  24
ENDBRANCH  12   1
ENDBRANCH  15  12
BRANCH  21  23
ATOM     23  C   UNL     1       0.439   3.073  28.496  0.00  0.00    +0.256 C 
BRANCH  23   7
ATOM      7  O   UNL     1       0.826   2.871  29.834  0.00  0.00    -0.359 OA
BRANCH   7  30
ATOM     30  C   UNL     1       2.128   2.296  29.934  0.00  0.00    +0.280 C 
BRANCH  30  37
ATOM     10  O   UNL     1       3.143   4.088  28.645  0.00  0.00    -0.248 OA
ATOM     37  C   UNL     1       3.030   2.897  28.892  0.00  0.00    +0.331 C 
BRANCH  37   9
ATOM      9  O   UNL     1       3.721   1.921  28.251  0.00  0.00    -0.479 OA
ATOM     42  H   UNL     1       3.503   1.887  27.294  0.00  0.00    +0.295 HD
ENDBRANCH  37   9
ENDBRANCH  30  37
ENDBRANCH   7  30
ENDBRANCH  23   7
ENDBRANCH  21  23
TORSDOF 13
ENDMDL
MODEL 7
REMARK VINA RESULT:       3.9      2.292      5.105
REMARK  Name = 7134370
REMARK  13 active torsions:
REMARK  status: ('A' for Active; 'I' for Inactive)
REMARK    1  A    between atoms: S_1  and  N_12
REMARK    2  A    between atoms: S_1  and  C_24
REMARK    3  A    between atoms: O_7  and  C_23
REMARK    4  A    between atoms: O_7  and  C_30
REMARK    5  A    between atoms: O_9  and  C_37
REMARK    6  A    between atoms: N_12  and  C_15
REMARK    7  A    between atoms: N_13  and  C_22
REMARK    8  A    between atoms: C_17  and  C_20
REMARK    9  A    between atoms: C_21  and  C_23
REMARK   10  A    between atoms: C_22  and  C_25
REMARK   11  A    between atoms: C_22  and  C_26
REMARK   12  A    between atoms: C_25  and  C_27
REMARK   13  A    between atoms: C_30  and  C_37
REMARK                            x       y       z     vdW  Elec       q    Type
REMARK                         _______ _______ _______ _____ _____    ______ ____
ROOT
ATOM      4  O   UNL     1       0.050   3.697  23.717  0.00  0.00    -0.273 OA
ATOM     11  N   UNL     1      -1.379   2.108  24.642  0.00  0.00    -0.288 N 
ATOM     15  C   UNL     1      -3.790   0.494  24.386  0.00  0.00    +0.080 C 
ATOM     16  C   UNL     1      -3.330   0.997  25.755  0.00  0.00    +0.052 C 
ATOM     17  C   UNL     1      -1.836   1.326  25.803  0.00  0.00    +0.163 C 
ATOM     18  C   UNL     1      -3.351   1.456  23.287  0.00  0.00    +0.039 C 
ATOM     19  C   UNL     1      -1.842   1.660  23.323  0.00  0.00    +0.110 C 
ATOM     21  C   UNL     1      -0.430   3.135  24.706  0.00  0.00    +0.242 C 
ENDROOT
BRANCH  17  20
ATOM      3  O   UNL     1      -1.023  -0.677  26.818  0.00  0.00    -0.274 OA
ATOM     13  N   UNL     1      -0.179  -0.042  24.744  0.00  0.00    -0.302 N 
ATOM     20  C   UNL     1      -0.987   0.090  25.859  0.00  0.00    +0.234 C 
ATOM     39  H   UNL     1      -0.271   0.628  23.985  0.00  0.00    +0.150 HD
BRANCH  13  22
ATOM     22  C   UNL     1       0.750  -1.135  24.566  0.00  0.00    +0.163 C 
BRANCH  22  26
ATOM      8  O   UNL     1       0.319  -3.343  25.486  0.00  0.00    -0.274 OA
ATOM     14  N   UNL     1      -1.220  -2.435  24.044  0.00  0.00    -0.328 N 
ATOM     26  C   UNL     1      -0.036  -2.425  24.751  0.00  0.00    +0.231 C 
ATOM     40  H   UNL     1      -1.848  -3.231  24.090  0.00  0.00    +0.145 HD
ATOM     41  H   UNL     1      -1.513  -1.658  23.459  0.00  0.00    +0.145 HD
ENDBRANCH  22  26
BRANCH  22  25
ATOM     25  C   UNL     1       1.417  -1.110  23.186  0.00  0.00    +0.067 C 
BRANCH  25  27
ATOM     27  C   UNL     1       2.843  -0.618  23.236  0.00  0.00    -0.045 A 
ATOM     32  C   UNL     1       3.172   0.623  22.690  0.00  0.00    +0.004 A 
ATOM     33  C   UNL     1       3.832  -1.404  23.828  0.00  0.00    +0.004 A 
ATOM     34  C   UNL     1       4.491   1.077  22.736  0.00  0.00    +0.000 A 
ATOM     35  C   UNL     1       5.149  -0.949  23.875  0.00  0.00    +0.000 A 
ATOM     36  C   UNL     1       5.478   0.291  23.329  0.00  0.00    +0.000 A 
ENDBRANCH  25  27
ENDBRANCH  22  25
ENDBRANCH  13  22
ENDBRANCH  17  20
BRANCH  15  12
ATOM     12  N   UNL     1      -5.269   0.379  24.379  0.00  0.00    -0.186 NA
ATOM     38  H   UNL     1      -5.620  -0.577  24.524  0.00  0.00    +0.148 HD
BRANCH  12   1
ATOM      1  S   UNL     1      -6.168   1.624  25.132  0.00  0.00    +0.065 S 
ATOM      5  O   UNL     1      -6.523   1.217  26.478  0.00  0.00    -0.153 OA
ATOM      6  O   UNL     1      -7.170   2.106  24.202  0.00  0.00    -0.153 OA
BRANCH   1  24
ATOM      2  S   UNL     1      -4.643   3.818  23.875  0.00  0.00    -0.077 S 
ATOM     24  C   UNL     1      -5.069   3.026  25.332  0.00  0.00    +0.142 A 
ATOM     28  C   UNL     1      -4.481   3.613  26.430  0.00  0.00    +0.036 A 
ATOM     29  C   UNL     1      -3.671   4.729  26.071  0.00  0.00    +0.010 A 
ATOM     31  C   UNL     1      -3.670   4.952  24.712  0.00  0.00    +0.047 A 
ENDBRANCH   1  24
ENDBRANCH  12   1
ENDBRANCH  15  12
BRANCH  21  23
ATOM     23  C   UNL     1       0.009   3.571  26.082  0.00  0.00    +0.256 C 
BRANCH  23   7
ATOM      7  O   UNL     1       0.866   2.565  26.568  0.00  0.00    -0.359 OA
BRANCH   7  30
ATOM     30  C   UNL     1       0.651   2.302  27.953  0.00  0.00    +0.280 C 
BRANCH  30  37
ATOM     10  O   UNL     1       2.827   3.302  28.370  0.00  0.00    -0.248 OA
ATOM     37  C   UNL     1       1.915   2.569  28.723  0.00  0.00    +0.331 C 
BRANCH  37   9
ATOM      9  O   UNL     1       1.908   1.874  29.889  0.00  0.00    -0.479 OA
ATOM     42  H   UNL     1       0.999   1.618  30.157  0.00  0.00    +0.295 HD
ENDBRANCH  37   9
ENDBRANCH  30  37
ENDBRANCH   7  30
ENDBRANCH  23   7
ENDBRANCH  21  23
TORSDOF 13
ENDMDL
MODEL 8
REMARK VINA RESULT:       4.2      1.854      2.533
REMARK  Name = 7134370
REMARK  13 active torsions:
REMARK  status: ('A' for Active; 'I' for Inactive)
REMARK    1  A    between atoms: S_1  and  N_12
REMARK    2  A    between atoms: S_1  and  C_24
REMARK    3  A    between atoms: O_7  and  C_23
REMARK    4  A    between atoms: O_7  and  C_30
REMARK    5  A    between atoms: O_9  and  C_37
REMARK    6  A    between atoms: N_12  and  C_15
REMARK    7  A    between atoms: N_13  and  C_22
REMARK    8  A    between atoms: C_17  and  C_20
REMARK    9  A    between atoms: C_21  and  C_23
REMARK   10  A    between atoms: C_22  and  C_25
REMARK   11  A    between atoms: C_22  and  C_26
REMARK   12  A    between atoms: C_25  and  C_27
REMARK   13  A    between atoms: C_30  and  C_37
REMARK                            x       y       z     vdW  Elec       q    Type
REMARK                         _______ _______ _______ _____ _____    ______ ____
ROOT
ATOM      4  O   UNL     1      -0.191  -3.284  24.959  0.00  0.00    -0.273 OA
ATOM     11  N   UNL     1      -1.490  -1.359  24.796  0.00  0.00    -0.288 N 
ATOM     15  C   UNL     1      -4.069  -0.065  25.201  0.00  0.00    +0.080 C 
ATOM     16  C   UNL     1      -3.163   0.348  24.041  0.00  0.00    +0.052 C 
ATOM     17  C   UNL     1      -1.690   0.005  24.277  0.00  0.00    +0.163 C 
ATOM     18  C   UNL     1      -3.844  -1.531  25.561  0.00  0.00    +0.039 C 
ATOM     19  C   UNL     1      -2.377  -1.785  25.885  0.00  0.00    +0.110 C 
ATOM     21  C   UNL     1      -0.433  -2.198  24.426  0.00  0.00    +0.242 C 
ENDROOT
BRANCH  17  20
ATOM      3  O   UNL     1      -0.983   0.690  26.452  0.00  0.00    -0.274 OA
ATOM     13  N   UNL     1      -0.561   2.086  24.637  0.00  0.00    -0.302 N 
ATOM     20  C   UNL     1      -1.040   0.942  25.251  0.00  0.00    +0.234 C 
ATOM     39  H   UNL     1      -0.618   2.165  23.626  0.00  0.00    +0.150 HD
BRANCH  13  22
ATOM     22  C   UNL     1       0.087   3.158  25.360  0.00  0.00    +0.163 C 
BRANCH  22  26
ATOM      8  O   UNL     1      -0.479   5.504  25.076  0.00  0.00    -0.274 OA
ATOM     14  N   UNL     1       0.108   4.284  23.221  0.00  0.00    -0.328 N 
ATOM     26  C   UNL     1      -0.145   4.436  24.568  0.00  0.00    +0.231 C 
ATOM     40  H   UNL     1       0.005   5.064  22.580  0.00  0.00    +0.145 HD
ATOM     41  H   UNL     1       0.407   3.401  22.818  0.00  0.00    +0.145 HD
ENDBRANCH  22  26
BRANCH  22  25
ATOM     25  C   UNL     1      -0.455   3.307  26.786  0.00  0.00    +0.067 C 
BRANCH  25  27
ATOM     27  C   UNL     1       0.577   2.989  27.839  0.00  0.00    -0.045 A 
ATOM     32  C   UNL     1       0.172   2.598  29.116  0.00  0.00    +0.004 A 
ATOM     33  C   UNL     1       1.935   3.085  27.537  0.00  0.00    +0.004 A 
ATOM     34  C   UNL     1       1.127   2.304  30.090  0.00  0.00    +0.000 A 
ATOM     35  C   UNL     1       2.889   2.791  28.511  0.00  0.00    +0.000 A 
ATOM     36  C   UNL     1       2.485   2.400  29.787  0.00  0.00    +0.000 A 
ENDBRANCH  25  27
ENDBRANCH  22  25
ENDBRANCH  13  22
ENDBRANCH  17  20
BRANCH  15  12
ATOM     12  N   UNL     1      -5.486   0.134  24.810  0.00  0.00    -0.186 NA
ATOM     38  H   UNL     1      -6.058  -0.721  24.839  0.00  0.00    +0.148 HD
BRANCH  12   1
ATOM      1  S   UNL     1      -6.262   1.567  25.331  0.00  0.00    +0.065 S 
ATOM      5  O   UNL     1      -6.678   1.416  26.711  0.00  0.00    -0.153 OA
ATOM      6  O   UNL     1      -7.194   1.994  24.306  0.00  0.00    -0.153 OA
BRANCH   1  24
ATOM      2  S   UNL     1      -4.407   3.284  23.804  0.00  0.00    -0.077 S 
ATOM     24  C   UNL     1      -5.025   2.864  25.345  0.00  0.00    +0.142 A 
ATOM     28  C   UNL     1      -4.455   3.611  26.352  0.00  0.00    +0.036 A 
ATOM     29  C   UNL     1      -3.497   4.541  25.852  0.00  0.00    +0.010 A 
ATOM     31  C   UNL     1      -3.373   4.469  24.482  0.00  0.00    +0.047 A 
ENDBRANCH   1  24
ENDBRANCH  12   1
ENDBRANCH  15  12
BRANCH  21  23
ATOM     23  C   UNL     1       0.447  -1.725  23.294  0.00  0.00    +0.256 C 
BRANCH  23   7
ATOM      7  O   UNL     1       1.210  -0.655  23.799  0.00  0.00    -0.359 OA
BRANCH   7  30
ATOM     30  C   UNL     1       1.772   0.139  22.756  0.00  0.00    +0.280 C 
BRANCH  30  37
ATOM     10  O   UNL     1       4.028   0.983  22.432  0.00  0.00    -0.248 OA
ATOM     37  C   UNL     1       3.273   0.121  22.856  0.00  0.00    +0.331 C 
BRANCH  37   9
ATOM      9  O   UNL     1       3.686  -1.002  23.495  0.00  0.00    -0.479 OA
ATOM     42  H   UNL     1       4.649  -0.984  23.680  0.00  0.00    +0.295 HD
ENDBRANCH  37   9
ENDBRANCH  30  37
ENDBRANCH   7  30
ENDBRANCH  23   7
ENDBRANCH  21  23
TORSDOF 13
ENDMDL
MODEL 9
REMARK VINA RESULT:       4.6      2.500      4.912
REMARK  Name = 7134370
REMARK  13 active torsions:
REMARK  status: ('A' for Active; 'I' for Inactive)
REMARK    1  A    between atoms: S_1  and  N_12
REMARK    2  A    between atoms: S_1  and  C_24
REMARK    3  A    between atoms: O_7  and  C_23
REMARK    4  A    between atoms: O_7  and  C_30
REMARK    5  A    between atoms: O_9  and  C_37
REMARK    6  A    between atoms: N_12  and  C_15
REMARK    7  A    between atoms: N_13  and  C_22
REMARK    8  A    between atoms: C_17  and  C_20
REMARK    9  A    between atoms: C_21  and  C_23
REMARK   10  A    between atoms: C_22  and  C_25
REMARK   11  A    between atoms: C_22  and  C_26
REMARK   12  A    between atoms: C_25  and  C_27
REMARK   13  A    between atoms: C_30  and  C_37
REMARK                            x       y       z     vdW  Elec       q    Type
REMARK                         _______ _______ _______ _____ _____    ______ ____
ROOT
ATOM      4  O   UNL     1       1.432  -0.288  21.456  0.00  0.00    -0.273 OA
ATOM     11  N   UNL     1       0.334   1.058  23.007  0.00  0.00    -0.288 N 
ATOM     15  C   UNL     1      -1.972   2.713  23.661  0.00  0.00    +0.080 C 
ATOM     16  C   UNL     1      -0.591   3.037  24.234  0.00  0.00    +0.052 C 
ATOM     17  C   UNL     1       0.346   1.828  24.262  0.00  0.00    +0.163 C 
ATOM     18  C   UNL     1      -1.841   2.022  22.308  0.00  0.00    +0.039 C 
ATOM     19  C   UNL     1      -0.982   0.770  22.425  0.00  0.00    +0.110 C 
ATOM     21  C   UNL     1       1.465   0.467  22.432  0.00  0.00    +0.242 C 
ENDROOT
BRANCH  17  20
ATOM      3  O   UNL     1      -0.158   1.250  26.524  0.00  0.00    -0.274 OA
ATOM     13  N   UNL     1      -0.081  -0.435  24.919  0.00  0.00    -0.302 N 
ATOM     20  C   UNL     1       0.002   0.872  25.366  0.00  0.00    +0.234 C 
ATOM     39  H   UNL     1       0.019  -0.626  23.926  0.00  0.00    +0.150 HD
BRANCH  13  22
ATOM     22  C   UNL     1      -0.376  -1.550  25.791  0.00  0.00    +0.163 C 
BRANCH  22  26
ATOM      8  O   UNL     1      -2.576  -0.811  26.513  0.00  0.00    -0.274 OA
ATOM     14  N   UNL     1      -0.912  -1.001  28.083  0.00  0.00    -0.328 N 
ATOM     26  C   UNL     1      -1.409  -1.069  26.799  0.00  0.00    +0.231 C 
ATOM     40  H   UNL     1      -1.500  -0.707  28.856  0.00  0.00    +0.145 HD
ATOM     41  H   UNL     1       0.049  -1.241  28.309  0.00  0.00    +0.145 HD
ENDBRANCH  22  26
BRANCH  22  25
ATOM     25  C   UNL     1      -0.908  -2.764  25.020  0.00  0.00    +0.067 C 
BRANCH  25  27
ATOM     27  C   UNL     1      -2.290  -2.539  24.459  0.00  0.00    -0.045 A 
ATOM     32  C   UNL     1      -3.260  -3.535  24.576  0.00  0.00    +0.004 A 
ATOM     33  C   UNL     1      -2.599  -1.336  23.824  0.00  0.00    +0.004 A 
ATOM     34  C   UNL     1      -4.539  -3.326  24.058  0.00  0.00    +0.000 A 
ATOM     35  C   UNL     1      -3.877  -1.128  23.306  0.00  0.00    +0.000 A 
ATOM     36  C   UNL     1      -4.847  -2.123  23.423  0.00  0.00    +0.000 A 
ENDBRANCH  25  27
ENDBRANCH  22  25
ENDBRANCH  13  22
ENDBRANCH  17  20
BRANCH  15  12
ATOM     12  N   UNL     1      -2.743   3.970  23.501  0.00  0.00    -0.186 NA
ATOM     38  H   UNL     1      -3.084   4.139  22.545  0.00  0.00    +0.148 HD
BRANCH  12   1
ATOM      1  S   UNL     1      -3.808   4.418  24.762  0.00  0.00    +0.065 S 
ATOM      5  O   UNL     1      -4.791   5.355  24.253  0.00  0.00    -0.153 OA
ATOM      6  O   UNL     1      -3.030   4.713  25.949  0.00  0.00    -0.153 OA
BRANCH   1  24
ATOM      2  S   UNL     1      -6.142   3.255  26.145  0.00  0.00    -0.077 S 
ATOM     24  C   UNL     1      -4.736   2.954  25.218  0.00  0.00    +0.142 A 
ATOM     28  C   UNL     1      -4.554   1.610  24.975  0.00  0.00    +0.036 A 
ATOM     29  C   UNL     1      -5.584   0.817  25.558  0.00  0.00    +0.010 A 
ATOM     31  C   UNL     1      -6.514   1.585  26.225  0.00  0.00    +0.047 A 
ENDBRANCH   1  24
ENDBRANCH  12   1
ENDBRANCH  15  12
BRANCH  21  23
ATOM     23  C   UNL     1       2.799   0.800  23.056  0.00  0.00    +0.256 C 
BRANCH  23   7
ATOM      7  O   UNL     1       3.785   0.383  22.143  0.00  0.00    -0.359 OA
BRANCH   7  30
ATOM     30  C   UNL     1       5.087   0.378  22.726  0.00  0.00    +0.280 C 
BRANCH  30  37
ATOM     10  O   UNL     1       4.862  -1.679  24.000  0.00  0.00    -0.248 OA
ATOM     37  C   UNL     1       5.087  -0.478  23.962  0.00  0.00    +0.331 C 
BRANCH  37   9
ATOM      9  O   UNL     1       5.381   0.274  25.052  0.00  0.00    -0.479 OA
ATOM     42  H   UNL     1       5.030   1.187  24.973  0.00  0.00    +0.295 HD
ENDBRANCH  37   9
ENDBRANCH  30  37
ENDBRANCH   7  30
ENDBRANCH  23   7
ENDBRANCH  21  23
TORSDOF 13
ENDMDL
MODEL 10
REMARK VINA RESULT:       5.3      2.226      3.456
REMARK  Name = 7134370
REMARK  13 active torsions:
REMARK  status: ('A' for Active; 'I' for Inactive)
REMARK    1  A    between atoms: S_1  and  N_12
REMARK    2  A    between atoms: S_1  and  C_24
REMARK    3  A    between atoms: O_7  and  C_23
REMARK    4  A    between atoms: O_7  and  C_30
REMARK    5  A    between atoms: O_9  and  C_37
REMARK    6  A    between atoms: N_12  and  C_15
REMARK    7  A    between atoms: N_13  and  C_22
REMARK    8  A    between atoms: C_17  and  C_20
REMARK    9  A    between atoms: C_21  and  C_23
REMARK   10  A    between atoms: C_22  and  C_25
REMARK   11  A    between atoms: C_22  and  C_26
REMARK   12  A    between atoms: C_25  and  C_27
REMARK   13  A    between atoms: C_30  and  C_37
REMARK                            x       y       z     vdW  Elec       q    Type
REMARK                         _______ _______ _______ _____ _____    ______ ____
ROOT
ATOM      4  O   UNL     1       3.049  -1.640  23.940  0.00  0.00    -0.273 OA
ATOM     11  N   UNL     1       0.811  -1.032  24.146  0.00  0.00    -0.288 N 
ATOM     15  C   UNL     1      -1.910  -1.793  24.857  0.00  0.00    +0.080 C 
ATOM     16  C   UNL     1      -1.650  -0.773  23.747  0.00  0.00    +0.052 C 
ATOM     17  C   UNL     1      -0.286  -0.090  23.867  0.00  0.00    +0.163 C 
ATOM     18  C   UNL     1      -0.751  -2.779  24.961  0.00  0.00    +0.039 C 
ATOM     19  C   UNL     1       0.563  -2.041  25.183  0.00  0.00    +0.110 C 
ATOM     21  C   UNL     1       2.097  -0.931  23.603  0.00  0.00    +0.242 C 
ENDROOT
BRANCH  17  20
ATOM      3  O   UNL     1      -0.392   0.635  26.140  0.00  0.00    -0.274 OA
ATOM     13  N   UNL     1      -0.112   2.224  24.462  0.00  0.00    -0.302 N 
ATOM     20  C   UNL     1      -0.264   0.941  24.957  0.00  0.00    +0.234 C 
ATOM     39  H   UNL     1       0.038   2.355  23.466  0.00  0.00    +0.150 HD
BRANCH  13  22
ATOM     22  C   UNL     1      -0.083   3.398  25.306  0.00  0.00    +0.163 C 
BRANCH  22  26
ATOM      8  O   UNL     1      -0.493   5.729  24.753  0.00  0.00    -0.274 OA
ATOM     14  N   UNL     1       0.295   4.333  23.109  0.00  0.00    -0.328 N 
ATOM     26  C   UNL     1      -0.140   4.610  24.387  0.00  0.00    +0.231 C 
ATOM     40  H   UNL     1       0.321   5.057  22.399  0.00  0.00    +0.145 HD
ATOM     41  H   UNL     1       0.607   3.409  22.827  0.00  0.00    +0.145 HD
ENDBRANCH  22  26
BRANCH  22  25
ATOM     25  C   UNL     1      -1.249   3.425  26.300  0.00  0.00    +0.067 C 
BRANCH  25  27
ATOM     27  C   UNL     1      -2.581   3.658  25.631  0.00  0.00    -0.045 A 
ATOM     32  C   UNL     1      -2.829   3.124  24.366  0.00  0.00    +0.004 A 
ATOM     33  C   UNL     1      -3.565   4.408  26.275  0.00  0.00    +0.004 A 
ATOM     34  C   UNL     1      -4.061   3.340  23.747  0.00  0.00    +0.000 A 
ATOM     35  C   UNL     1      -4.796   4.623  25.657  0.00  0.00    +0.000 A 
ATOM     36  C   UNL     1      -5.044   4.088  24.393  0.00  0.00    +0.000 A 
ENDBRANCH  25  27
ENDBRANCH  22  25
ENDBRANCH  13  22
ENDBRANCH  17  20
BRANCH  15  12
ATOM     12  N   UNL     1      -3.161  -2.532  24.559  0.00  0.00    -0.186 NA
ATOM     38  H   UNL     1      -3.467  -3.166  25.309  0.00  0.00    +0.148 HD
BRANCH  12   1
ATOM      1  S   UNL     1      -4.405  -1.694  23.737  0.00  0.00    +0.065 S 
ATOM      5  O   UNL     1      -5.557  -2.562  23.592  0.00  0.00    -0.153 OA
ATOM      6  O   UNL     1      -3.832  -1.006  22.597  0.00  0.00    -0.153 OA
BRANCH   1  24
ATOM      2  S   UNL     1      -6.329   0.483  24.263  0.00  0.00    -0.077 S 
ATOM     24  C   UNL     1      -4.944  -0.361  24.808  0.00  0.00    +0.142 A 
ATOM     28  C   UNL     1      -4.470   0.139  26.001  0.00  0.00    +0.036 A 
ATOM     29  C   UNL     1      -5.256   1.229  26.474  0.00  0.00    +0.010 A 
ATOM     31  C   UNL     1      -6.300   1.521  25.625  0.00  0.00    +0.047 A 
ENDBRANCH   1  24
ENDBRANCH  12   1
ENDBRANCH  15  12
BRANCH  21  23
ATOM     23  C   UNL     1       2.302   0.112  22.532  0.00  0.00    +0.256 C 
BRANCH  23   7
ATOM      7  O   UNL     1       3.105   1.119  23.100  0.00  0.00    -0.359 OA
BRANCH   7  30
ATOM     30  C   UNL     1       4.413   1.147  22.530  0.00  0.00    +0.280 C 
BRANCH  30  37
ATOM     10  O   UNL     1       6.242  -0.388  22.979  0.00  0.00    -0.248 OA
ATOM     37  C   UNL     1       5.358   0.351  23.386  0.00  0.00    +0.331 C 
BRANCH  37   9
ATOM      9  O   UNL     1       5.097   0.570  24.700  0.00  0.00    -0.479 OA
ATOM     42  H   UNL     1       4.584   1.395  24.838  0.00  0.00    +0.295 HD
ENDBRANCH  37   9
ENDBRANCH  30  37
ENDBRANCH   7  30
ENDBRANCH  23   7
ENDBRANCH  21  23
TORSDOF 13
ENDMDL
