MODEL 1
REMARK VINA RESULT:      -7.4      0.000      0.000
REMARK  Name = 75536963
REMARK  1 active torsions:
REMARK  status: ('A' for Active; 'I' for Inactive)
REMARK    1  A    between atoms: C_6  and  C_11
REMARK                            x       y       z     vdW  Elec       q    Type
REMARK                         _______ _______ _______ _____ _____    ______ ____
ROOT
ATOM      1  O   UNL     1      -3.998   3.884  25.283  0.00  0.00    -0.275 OA
ATOM      2  O   UNL     1      -3.724  -3.048  24.478  0.00  0.00    -0.253 OA
ATOM      3  N   UNL     1      -2.899   1.916  24.706  0.00  0.00    -0.298 N 
ATOM      4  N   UNL     1      -3.035  -0.850  24.959  0.00  0.00    -0.278 N 
ATOM      5  N   UNL     1      -1.471  -2.451  24.749  0.00  0.00    -0.297 N 
ATOM      7  C   UNL     1      -1.785  -0.191  25.299  0.00  0.00    +0.112 C 
ATOM     10  C   UNL     1      -1.660   1.132  24.548  0.00  0.00    +0.132 C 
ATOM     11  C   UNL     1      -2.965   3.229  25.180  0.00  0.00    +0.219 C 
ATOM     12  C   UNL     1      -4.127   1.224  24.287  0.00  0.00    +0.127 C 
ATOM     13  C   UNL     1      -4.280  -0.108  25.018  0.00  0.00    +0.128 C 
ATOM     14  C   UNL     1      -0.724  -1.229  24.945  0.00  0.00    +0.129 C 
ATOM     15  C   UNL     1      -2.857  -2.214  24.705  0.00  0.00    +0.303 C 
ATOM     16  H   UNL     1      -1.049  -3.359  24.583  0.00  0.00    +0.150 HD
ENDROOT
BRANCH  11   6
ATOM      6  C   UNL     1      -1.681   3.872  25.591  0.00  0.00    +0.075 C 
ATOM      8  C   UNL     1      -1.431   5.284  25.182  0.00  0.00    +0.013 C 
ATOM      9  C   UNL     1      -0.667   4.167  24.538  0.00  0.00    +0.013 C 
ENDBRANCH  11   6
TORSDOF 1
ENDMDL
MODEL 2
REMARK VINA RESULT:      -7.3      1.823      5.715
REMARK  Name = 75536963
REMARK  1 active torsions:
REMARK  status: ('A' for Active; 'I' for Inactive)
REMARK    1  A    between atoms: C_6  and  C_11
REMARK                            x       y       z     vdW  Elec       q    Type
REMARK                         _______ _______ _______ _____ _____    ______ ____
ROOT
ATOM      1  O   UNL     1      -0.990  -1.871  24.955  0.00  0.00    -0.275 OA
ATOM      2  O   UNL     1      -0.566   5.101  24.971  0.00  0.00    -0.253 OA
ATOM      3  N   UNL     1      -1.844   0.249  24.519  0.00  0.00    -0.298 N 
ATOM      4  N   UNL     1      -1.493   2.943  25.115  0.00  0.00    -0.278 N 
ATOM      5  N   UNL     1      -2.879   4.705  24.953  0.00  0.00    -0.297 N 
ATOM      7  C   UNL     1      -2.825   2.378  25.253  0.00  0.00    +0.112 C 
ATOM     10  C   UNL     1      -2.986   1.166  24.340  0.00  0.00    +0.132 C 
ATOM     11  C   UNL     1      -1.944  -1.108  24.835  0.00  0.00    +0.219 C 
ATOM     12  C   UNL     1      -0.523   0.858  24.304  0.00  0.00    +0.127 C 
ATOM     13  C   UNL     1      -0.331   2.078  25.202  0.00  0.00    +0.128 C 
ATOM     14  C   UNL     1      -3.747   3.550  24.929  0.00  0.00    +0.129 C 
ATOM     15  C   UNL     1      -1.522   4.337  25.012  0.00  0.00    +0.303 C 
ATOM     16  H   UNL     1      -3.199   5.664  24.859  0.00  0.00    +0.150 HD
ENDROOT
BRANCH  11   6
ATOM      6  C   UNL     1      -3.316  -1.662  25.042  0.00  0.00    +0.075 C 
ATOM      8  C   UNL     1      -3.604  -3.044  24.564  0.00  0.00    +0.013 C 
ATOM      9  C   UNL     1      -4.188  -1.863  23.848  0.00  0.00    +0.013 C 
ENDBRANCH  11   6
TORSDOF 1
ENDMDL
MODEL 3
REMARK VINA RESULT:      -6.4      2.006      2.506
REMARK  Name = 75536963
REMARK  1 active torsions:
REMARK  status: ('A' for Active; 'I' for Inactive)
REMARK    1  A    between atoms: C_6  and  C_11
REMARK                            x       y       z     vdW  Elec       q    Type
REMARK                         _______ _______ _______ _____ _____    ______ ____
ROOT
ATOM      1  O   UNL     1      -6.266   1.573  25.013  0.00  0.00    -0.275 OA
ATOM      2  O   UNL     1      -0.836  -2.818  25.125  0.00  0.00    -0.253 OA
ATOM      3  N   UNL     1      -4.101   0.954  24.427  0.00  0.00    -0.298 N 
ATOM      4  N   UNL     1      -2.046  -0.800  25.085  0.00  0.00    -0.278 N 
ATOM      5  N   UNL     1       0.162  -0.744  24.667  0.00  0.00    -0.297 N 
ATOM      7  C   UNL     1      -1.729   0.613  24.967  0.00  0.00    +0.112 C 
ATOM     10  C   UNL     1      -2.723   1.304  24.037  0.00  0.00    +0.132 C 
ATOM     11  C   UNL     1      -5.113   1.873  24.716  0.00  0.00    +0.219 C 
ATOM     12  C   UNL     1      -4.384  -0.488  24.469  0.00  0.00    +0.127 C 
ATOM     13  C   UNL     1      -3.404  -1.212  25.389  0.00  0.00    +0.128 C 
ATOM     14  C   UNL     1      -0.284   0.617  24.476  0.00  0.00    +0.129 C 
ATOM     15  C   UNL     1      -0.906  -1.605  24.982  0.00  0.00    +0.303 C 
ATOM     16  H   UNL     1       1.115  -1.061  24.515  0.00  0.00    +0.150 HD
ENDROOT
BRANCH  11   6
ATOM      6  C   UNL     1      -4.757   3.323  24.657  0.00  0.00    +0.075 C 
ATOM      8  C   UNL     1      -4.024   3.921  25.809  0.00  0.00    +0.013 C 
ATOM      9  C   UNL     1      -5.464   4.264  25.574  0.00  0.00    +0.013 C 
ENDBRANCH  11   6
TORSDOF 1
ENDMDL
MODEL 4
REMARK VINA RESULT:      -6.2      1.847      5.247
REMARK  Name = 75536963
REMARK  1 active torsions:
REMARK  status: ('A' for Active; 'I' for Inactive)
REMARK    1  A    between atoms: C_6  and  C_11
REMARK                            x       y       z     vdW  Elec       q    Type
REMARK                         _______ _______ _______ _____ _____    ______ ____
ROOT
ATOM      1  O   UNL     1      -5.304  -0.319  24.185  0.00  0.00    -0.275 OA
ATOM      2  O   UNL     1      -1.507   5.459  25.171  0.00  0.00    -0.253 OA
ATOM      3  N   UNL     1      -3.420   0.804  24.961  0.00  0.00    -0.298 N 
ATOM      4  N   UNL     1      -2.031   3.204  24.751  0.00  0.00    -0.278 N 
ATOM      5  N   UNL     1       0.098   3.748  25.226  0.00  0.00    -0.297 N 
ATOM      7  C   UNL     1      -1.288   1.966  24.586  0.00  0.00    +0.112 C 
ATOM     10  C   UNL     1      -1.989   0.824  25.318  0.00  0.00    +0.132 C 
ATOM     11  C   UNL     1      -4.107  -0.302  24.454  0.00  0.00    +0.219 C 
ATOM     12  C   UNL     1      -4.137   2.063  25.208  0.00  0.00    +0.127 C 
ATOM     13  C   UNL     1      -3.458   3.228  24.492  0.00  0.00    +0.128 C 
ATOM     14  C   UNL     1       0.101   2.307  25.115  0.00  0.00    +0.129 C 
ATOM     15  C   UNL     1      -1.194   4.282  25.058  0.00  0.00    +0.303 C 
ATOM     16  H   UNL     1       0.910   4.305  25.472  0.00  0.00    +0.150 HD
ENDROOT
BRANCH  11   6
ATOM      6  C   UNL     1      -3.317  -1.550  24.225  0.00  0.00    +0.075 C 
ATOM      8  C   UNL     1      -4.054  -2.813  23.934  0.00  0.00    +0.013 C 
ATOM      9  C   UNL     1      -3.375  -2.625  25.257  0.00  0.00    +0.013 C 
ENDBRANCH  11   6
TORSDOF 1
ENDMDL
MODEL 5
REMARK VINA RESULT:      -6.1      1.686      2.509
REMARK  Name = 75536963
REMARK  1 active torsions:
REMARK  status: ('A' for Active; 'I' for Inactive)
REMARK    1  A    between atoms: C_6  and  C_11
REMARK                            x       y       z     vdW  Elec       q    Type
REMARK                         _______ _______ _______ _____ _____    ______ ____
ROOT
ATOM      1  O   UNL     1       0.486   2.586  25.553  0.00  0.00    -0.275 OA
ATOM      2  O   UNL     1      -2.877  -3.478  24.716  0.00  0.00    -0.253 OA
ATOM      3  N   UNL     1      -1.450   1.308  25.378  0.00  0.00    -0.298 N 
ATOM      4  N   UNL     1      -2.395  -1.179  24.568  0.00  0.00    -0.278 N 
ATOM      5  N   UNL     1      -4.453  -1.889  24.008  0.00  0.00    -0.297 N 
ATOM      7  C   UNL     1      -3.071   0.006  24.069  0.00  0.00    +0.112 C 
ATOM     10  C   UNL     1      -2.878   1.174  25.033  0.00  0.00    +0.132 C 
ATOM     11  C   UNL     1      -0.695   2.475  25.238  0.00  0.00    +0.219 C 
ATOM     12  C   UNL     1      -0.833   0.097  25.938  0.00  0.00    +0.127 C 
ATOM     13  C   UNL     1      -1.012  -1.093  24.998  0.00  0.00    +0.128 C 
ATOM     14  C   UNL     1      -4.517  -0.450  23.898  0.00  0.00    +0.129 C 
ATOM     15  C   UNL     1      -3.193  -2.323  24.461  0.00  0.00    +0.303 C 
ATOM     16  H   UNL     1      -5.241  -2.511  23.856  0.00  0.00    +0.150 HD
ENDROOT
BRANCH  11   6
ATOM      6  C   UNL     1      -1.383   3.669  24.659  0.00  0.00    +0.075 C 
ATOM      8  C   UNL     1      -0.829   5.021  24.956  0.00  0.00    +0.013 C 
ATOM      9  C   UNL     1      -2.118   4.580  25.583  0.00  0.00    +0.013 C 
ENDBRANCH  11   6
TORSDOF 1
ENDMDL
MODEL 6
REMARK VINA RESULT:      -5.8      2.509      3.960
REMARK  Name = 75536963
REMARK  1 active torsions:
REMARK  status: ('A' for Active; 'I' for Inactive)
REMARK    1  A    between atoms: C_6  and  C_11
REMARK                            x       y       z     vdW  Elec       q    Type
REMARK                         _______ _______ _______ _____ _____    ______ ____
ROOT
ATOM      1  O   UNL     1      -4.223   3.887  25.278  0.00  0.00    -0.275 OA
ATOM      2  O   UNL     1       2.086   1.473  23.504  0.00  0.00    -0.253 OA
ATOM      3  N   UNL     1      -2.579   2.241  25.242  0.00  0.00    -0.298 N 
ATOM      4  N   UNL     1      -0.220   1.496  23.971  0.00  0.00    -0.278 N 
ATOM      5  N   UNL     1       0.828  -0.485  23.800  0.00  0.00    -0.297 N 
ATOM      7  C   UNL     1      -1.280   0.508  24.082  0.00  0.00    +0.112 C 
ATOM     10  C   UNL     1      -2.177   0.822  25.276  0.00  0.00    +0.132 C 
ATOM     11  C   UNL     1      -3.897   2.703  25.280  0.00  0.00    +0.219 C 
ATOM     12  C   UNL     1      -1.465   3.198  25.195  0.00  0.00    +0.127 C 
ATOM     13  C   UNL     1      -0.545   2.910  24.011  0.00  0.00    +0.128 C 
ATOM     14  C   UNL     1      -0.528  -0.816  24.177  0.00  0.00    +0.129 C 
ATOM     15  C   UNL     1       1.025   0.906  23.728  0.00  0.00    +0.303 C 
ATOM     16  H   UNL     1       1.571  -1.166  23.679  0.00  0.00    +0.150 HD
ENDROOT
BRANCH  11   6
ATOM      6  C   UNL     1      -4.981   1.676  25.324  0.00  0.00    +0.075 C 
ATOM      8  C   UNL     1      -6.305   2.015  24.729  0.00  0.00    +0.013 C 
ATOM      9  C   UNL     1      -6.151   1.919  26.217  0.00  0.00    +0.013 C 
ENDBRANCH  11   6
TORSDOF 1
ENDMDL
MODEL 7
REMARK VINA RESULT:      -5.8      2.322      4.969
REMARK  Name = 75536963
REMARK  1 active torsions:
REMARK  status: ('A' for Active; 'I' for Inactive)
REMARK    1  A    between atoms: C_6  and  C_11
REMARK                            x       y       z     vdW  Elec       q    Type
REMARK                         _______ _______ _______ _____ _____    ______ ____
ROOT
ATOM      1  O   UNL     1       0.213   1.269  24.307  0.00  0.00    -0.275 OA
ATOM      2  O   UNL     1      -5.796   4.517  25.765  0.00  0.00    -0.253 OA
ATOM      3  N   UNL     1      -2.101   1.478  24.186  0.00  0.00    -0.298 N 
ATOM      4  N   UNL     1      -4.270   2.774  25.348  0.00  0.00    -0.278 N 
ATOM      5  N   UNL     1      -6.469   2.307  25.349  0.00  0.00    -0.297 N 
ATOM      7  C   UNL     1      -4.340   1.332  25.186  0.00  0.00    +0.112 C 
ATOM     10  C   UNL     1      -3.442   0.882  24.037  0.00  0.00    +0.132 C 
ATOM     11  C   UNL     1      -0.902   0.763  24.209  0.00  0.00    +0.219 C 
ATOM     12  C   UNL     1      -2.084   2.945  24.281  0.00  0.00    +0.127 C 
ATOM     13  C   UNL     1      -2.977   3.430  25.421  0.00  0.00    +0.128 C 
ATOM     14  C   UNL     1      -5.828   1.066  24.977  0.00  0.00    +0.129 C 
ATOM     15  C   UNL     1      -5.535   3.346  25.521  0.00  0.00    +0.303 C 
ATOM     16  H   UNL     1      -7.474   2.439  25.403  0.00  0.00    +0.150 HD
ENDROOT
BRANCH  11   6
ATOM      6  C   UNL     1      -0.991  -0.725  24.111  0.00  0.00    +0.075 C 
ATOM      8  C   UNL     1      -1.850  -1.452  25.089  0.00  0.00    +0.013 C 
ATOM      9  C   UNL     1      -0.357  -1.547  25.182  0.00  0.00    +0.013 C 
ENDBRANCH  11   6
TORSDOF 1
ENDMDL
MODEL 8
REMARK VINA RESULT:      -5.3      1.910      4.492
REMARK  Name = 75536963
REMARK  1 active torsions:
REMARK  status: ('A' for Active; 'I' for Inactive)
REMARK    1  A    between atoms: C_6  and  C_11
REMARK                            x       y       z     vdW  Elec       q    Type
REMARK                         _______ _______ _______ _____ _____    ______ ____
ROOT
ATOM      1  O   UNL     1      -1.168  -2.215  24.278  0.00  0.00    -0.275 OA
ATOM      2  O   UNL     1      -6.678   1.978  25.196  0.00  0.00    -0.253 OA
ATOM      3  N   UNL     1      -2.166  -0.256  25.040  0.00  0.00    -0.298 N 
ATOM      4  N   UNL     1      -4.461   1.298  24.802  0.00  0.00    -0.278 N 
ATOM      5  N   UNL     1      -4.860   3.460  25.268  0.00  0.00    -0.297 N 
ATOM      7  C   UNL     1      -3.172   1.951  24.650  0.00  0.00    +0.112 C 
ATOM     10  C   UNL     1      -2.090   1.174  25.395  0.00  0.00    +0.132 C 
ATOM     11  C   UNL     1      -1.105  -1.018  24.546  0.00  0.00    +0.219 C 
ATOM     12  C   UNL     1      -3.475  -0.882  25.273  0.00  0.00    +0.127 C 
ATOM     13  C   UNL     1      -4.582  -0.125  24.543  0.00  0.00    +0.128 C 
ATOM     14  C   UNL     1      -3.421   3.363  25.174  0.00  0.00    +0.129 C 
ATOM     15  C   UNL     1      -5.481   2.208  25.096  0.00  0.00    +0.303 C 
ATOM     16  H   UNL     1      -5.362   4.309  25.507  0.00  0.00    +0.150 HD
ENDROOT
BRANCH  11   6
ATOM      6  C   UNL     1       0.198  -0.318  24.329  0.00  0.00    +0.075 C 
ATOM      8  C   UNL     1       0.210   0.917  23.496  0.00  0.00    +0.013 C 
ATOM      9  C   UNL     1       0.804  -0.354  22.967  0.00  0.00    +0.013 C 
ENDBRANCH  11   6
TORSDOF 1
ENDMDL
MODEL 9
REMARK VINA RESULT:      -5.1      1.676      2.714
REMARK  Name = 75536963
REMARK  1 active torsions:
REMARK  status: ('A' for Active; 'I' for Inactive)
REMARK    1  A    between atoms: C_6  and  C_11
REMARK                            x       y       z     vdW  Elec       q    Type
REMARK                         _______ _______ _______ _____ _____    ______ ____
ROOT
ATOM      1  O   UNL     1      -2.217   3.943  24.893  0.00  0.00    -0.275 OA
ATOM      2  O   UNL     1      -0.755  -2.884  24.682  0.00  0.00    -0.253 OA
ATOM      3  N   UNL     1      -2.793   1.701  25.133  0.00  0.00    -0.298 N 
ATOM      4  N   UNL     1      -1.969  -0.877  24.492  0.00  0.00    -0.278 N 
ATOM      5  N   UNL     1      -3.084  -2.826  24.402  0.00  0.00    -0.297 N 
ATOM      7  C   UNL     1      -3.341  -0.502  24.196  0.00  0.00    +0.112 C 
ATOM     10  C   UNL     1      -3.797   0.622  25.122  0.00  0.00    +0.132 C 
ATOM     11  C   UNL     1      -3.054   3.045  24.855  0.00  0.00    +0.219 C 
ATOM     12  C   UNL     1      -1.434   1.278  25.501  0.00  0.00    +0.127 C 
ATOM     13  C   UNL     1      -0.948   0.149  24.594  0.00  0.00    +0.128 C 
ATOM     14  C   UNL     1      -4.111  -1.810  24.350  0.00  0.00    +0.129 C 
ATOM     15  C   UNL     1      -1.801  -2.265  24.540  0.00  0.00    +0.303 C 
ATOM     16  H   UNL     1      -3.267  -3.825  24.417  0.00  0.00    +0.150 HD
ENDROOT
BRANCH  11   6
ATOM      6  C   UNL     1      -4.455   3.407  24.485  0.00  0.00    +0.075 C 
ATOM      8  C   UNL     1      -5.250   4.235  25.437  0.00  0.00    +0.013 C 
ATOM      9  C   UNL     1      -5.574   2.784  25.250  0.00  0.00    +0.013 C 
ENDBRANCH  11   6
TORSDOF 1
ENDMDL
MODEL 10
REMARK VINA RESULT:      -4.9      2.406      4.579
REMARK  Name = 75536963
REMARK  1 active torsions:
REMARK  status: ('A' for Active; 'I' for Inactive)
REMARK    1  A    between atoms: C_6  and  C_11
REMARK                            x       y       z     vdW  Elec       q    Type
REMARK                         _______ _______ _______ _____ _____    ______ ____
ROOT
ATOM      1  O   UNL     1       0.262  -1.431  24.419  0.00  0.00    -0.275 OA
ATOM      2  O   UNL     1      -5.955   1.395  25.884  0.00  0.00    -0.253 OA
ATOM      3  N   UNL     1      -1.178   0.382  24.647  0.00  0.00    -0.298 N 
ATOM      4  N   UNL     1      -3.867   1.062  24.851  0.00  0.00    -0.278 N 
ATOM      5  N   UNL     1      -4.954   2.995  24.490  0.00  0.00    -0.297 N 
ATOM      7  C   UNL     1      -3.055   1.763  23.871  0.00  0.00    +0.112 C 
ATOM     10  C   UNL     1      -1.588   1.753  24.291  0.00  0.00    +0.132 C 
ATOM     11  C   UNL     1      -0.089  -0.300  24.098  0.00  0.00    +0.219 C 
ATOM     12  C   UNL     1      -1.994  -0.256  25.690  0.00  0.00    +0.127 C 
ATOM     13  C   UNL     1      -3.471  -0.260  25.302  0.00  0.00    +0.128 C 
ATOM     14  C   UNL     1      -3.692   3.148  23.802  0.00  0.00    +0.129 C 
ATOM     15  C   UNL     1      -5.037   1.763  25.163  0.00  0.00    +0.303 C 
ATOM     16  H   UNL     1      -5.665   3.718  24.549  0.00  0.00    +0.150 HD
ENDROOT
BRANCH  11   6
ATOM      6  C   UNL     1       0.697   0.406  23.041  0.00  0.00    +0.075 C 
ATOM      8  C   UNL     1       1.412  -0.414  22.022  0.00  0.00    +0.013 C 
ATOM      9  C   UNL     1       2.185   0.311  23.082  0.00  0.00    +0.013 C 
ENDBRANCH  11   6
TORSDOF 1
ENDMDL
