MODEL 1
REMARK VINA RESULT:      -5.1      0.000      0.000
REMARK  Name = 38027519
REMARK  12 active torsions:
REMARK  status: ('A' for Active; 'I' for Inactive)
REMARK    1  A    between atoms: S_1  and  N_6
REMARK    2  A    between atoms: S_1  and  C_21
REMARK    3  A    between atoms: N_6  and  C_15
REMARK    4  A    between atoms: N_7  and  C_22
REMARK    5  A    between atoms: C_8  and  C_12
REMARK    6  A    between atoms: C_9  and  C_15
REMARK    7  A    between atoms: C_11  and  C_16
REMARK    8  A    between atoms: C_12  and  C_17
REMARK    9  A    between atoms: C_12  and  C_18
REMARK   10  A    between atoms: C_13  and  C_19
REMARK   11  A    between atoms: C_16  and  C_20
REMARK   12  A    between atoms: C_22  and  C_23
REMARK                            x       y       z     vdW  Elec       q    Type
REMARK                         _______ _______ _______ _____ _____    ______ ____
ROOT
ATOM      8  C   UNL     1      -1.022   0.427  24.552  0.00  0.00    +0.000 C 
ATOM      9  C   UNL     1      -0.152  -0.838  24.351  0.00  0.00    +0.030 C 
ATOM     10  C   UNL     1      -2.127   0.159  25.585  0.00  0.00    +0.012 C 
ATOM     11  C   UNL     1      -3.047  -1.004  25.167  0.00  0.00    +0.023 C 
ATOM     13  C   UNL     1      -2.255  -2.206  24.698  0.00  0.00    -0.073 C 
ATOM     14  C   UNL     1      -0.958  -2.116  24.349  0.00  0.00    -0.023 C 
ATOM     19  C   UNL     1      -2.974  -3.526  24.679  0.00  0.00    +0.039 C 
ENDROOT
BRANCH   8  12
ATOM     12  C   UNL     1      -0.184   1.631  24.990  0.00  0.00    -0.013 C 
ATOM     17  C   UNL     1      -0.549   2.045  26.412  0.00  0.00    +0.007 C 
ATOM     18  C   UNL     1      -0.375   2.795  24.022  0.00  0.00    +0.007 C 
ENDBRANCH   8  12
BRANCH   9  15
ATOM     15  C   UNL     1       0.665  -0.749  23.057  0.00  0.00    +0.113 C 
BRANCH  15   6
ATOM      6  N   UNL     1       2.097  -0.718  23.395  0.00  0.00    -0.194 NA
ATOM     29  H   UNL     1       2.293  -0.889  24.390  0.00  0.00    +0.148 HD
BRANCH   6   1
ATOM      1  S   UNL     1       3.110   0.429  22.634  0.00  0.00    +0.027 S 
ATOM      4  O   UNL     1       2.840   1.750  23.166  0.00  0.00    -0.158 OA
ATOM      5  O   UNL     1       3.091   0.187  21.205  0.00  0.00    -0.158 OA
ATOM     21  C   UNL     1       4.700  -0.089  23.239  0.00  0.00    +0.214 C 
ENDBRANCH   6   1
ENDBRANCH  15   6
ENDBRANCH   9  15
BRANCH  11  16
ATOM     16  C   UNL     1      -4.052  -0.557  24.100  0.00  0.00    +0.103 C 
BRANCH  16  20
ATOM      3  O   UNL     1      -3.669   1.707  23.337  0.00  0.00    -0.276 OA
ATOM      7  N   UNL     1      -5.172   1.320  25.068  0.00  0.00    -0.311 N 
ATOM     20  C   UNL     1      -4.253   0.941  24.100  0.00  0.00    +0.214 C 
ATOM     30  H   UNL     1      -5.610   0.611  25.648  0.00  0.00    +0.149 HD
BRANCH   7  22
ATOM     22  C   UNL     1      -5.558   2.693  25.295  0.00  0.00    +0.139 C 
BRANCH  22  23
ATOM      2  F   UNL     1      -1.131   6.171  25.199  0.00  0.00    -0.205 F 
ATOM     23  C   UNL     1      -4.378   3.621  25.271  0.00  0.00    -0.030 A 
ATOM     24  C   UNL     1      -3.590   3.779  26.411  0.00  0.00    +0.008 A 
ATOM     25  C   UNL     1      -4.068   4.323  24.106  0.00  0.00    +0.008 A 
ATOM     26  C   UNL     1      -2.494   4.641  26.387  0.00  0.00    +0.038 A 
ATOM     27  C   UNL     1      -2.972   5.185  24.082  0.00  0.00    +0.038 A 
ATOM     28  C   UNL     1      -2.184   5.344  25.223  0.00  0.00    +0.123 A 
ENDBRANCH  22  23
ENDBRANCH   7  22
ENDBRANCH  16  20
ENDBRANCH  11  16
TORSDOF 8
ENDMDL
MODEL 2
REMARK VINA RESULT:      -3.6      3.161      6.737
REMARK  Name = 38027519
REMARK  12 active torsions:
REMARK  status: ('A' for Active; 'I' for Inactive)
REMARK    1  A    between atoms: S_1  and  N_6
REMARK    2  A    between atoms: S_1  and  C_21
REMARK    3  A    between atoms: N_6  and  C_15
REMARK    4  A    between atoms: N_7  and  C_22
REMARK    5  A    between atoms: C_8  and  C_12
REMARK    6  A    between atoms: C_9  and  C_15
REMARK    7  A    between atoms: C_11  and  C_16
REMARK    8  A    between atoms: C_12  and  C_17
REMARK    9  A    between atoms: C_12  and  C_18
REMARK   10  A    between atoms: C_13  and  C_19
REMARK   11  A    between atoms: C_16  and  C_20
REMARK   12  A    between atoms: C_22  and  C_23
REMARK                            x       y       z     vdW  Elec       q    Type
REMARK                         _______ _______ _______ _____ _____    ______ ____
ROOT
ATOM      8  C   UNL     1      -3.895   2.500  25.251  0.00  0.00    +0.000 C 
ATOM      9  C   UNL     1      -4.479   1.357  24.385  0.00  0.00    +0.030 C 
ATOM     10  C   UNL     1      -3.318   3.609  24.358  0.00  0.00    +0.012 C 
ATOM     11  C   UNL     1      -2.209   3.088  23.425  0.00  0.00    +0.023 C 
ATOM     13  C   UNL     1      -2.614   1.804  22.731  0.00  0.00    -0.073 C 
ATOM     14  C   UNL     1      -3.640   1.050  23.167  0.00  0.00    -0.023 C 
ATOM     19  C   UNL     1      -1.842   1.427  21.498  0.00  0.00    +0.039 C 
ENDROOT
BRANCH   8  12
ATOM     12  C   UNL     1      -4.944   3.090  26.199  0.00  0.00    -0.013 C 
ATOM     17  C   UNL     1      -6.156   2.168  26.290  0.00  0.00    +0.007 C 
ATOM     18  C   UNL     1      -5.357   4.483  25.735  0.00  0.00    +0.007 C 
ENDBRANCH   8  12
BRANCH   9  15
ATOM     15  C   UNL     1      -4.669   0.079  25.209  0.00  0.00    +0.113 C 
BRANCH  15   6
ATOM      6  N   UNL     1      -3.393  -0.651  25.264  0.00  0.00    -0.194 NA
ATOM     29  H   UNL     1      -2.577  -0.082  25.005  0.00  0.00    +0.148 HD
BRANCH   6   1
ATOM      1  S   UNL     1      -3.341  -2.282  24.757  0.00  0.00    +0.027 S 
ATOM      4  O   UNL     1      -4.251  -2.478  23.646  0.00  0.00    -0.158 OA
ATOM      5  O   UNL     1      -3.409  -3.133  25.930  0.00  0.00    -0.158 OA
ATOM     21  C   UNL     1      -1.681  -2.376  24.129  0.00  0.00    +0.214 C 
ENDBRANCH   6   1
ENDBRANCH  15   6
ENDBRANCH   9  15
BRANCH  11  16
ATOM     16  C   UNL     1      -0.888   2.911  24.182  0.00  0.00    +0.103 C 
BRANCH  16  20
ATOM      3  O   UNL     1      -0.905   0.672  25.099  0.00  0.00    -0.276 OA
ATOM      7  N   UNL     1       0.461   1.156  23.281  0.00  0.00    -0.311 N 
ATOM     20  C   UNL     1      -0.470   1.461  24.264  0.00  0.00    +0.214 C 
ATOM     30  H   UNL     1       0.757   1.875  22.629  0.00  0.00    +0.149 HD
BRANCH   7  22
ATOM     22  C   UNL     1       1.040  -0.159  23.123  0.00  0.00    +0.139 C 
BRANCH  22  23
ATOM      2  F   UNL     1       6.662  -0.040  23.417  0.00  0.00    -0.205 F 
ATOM     23  C   UNL     1       2.539  -0.127  23.201  0.00  0.00    -0.030 A 
ATOM     24  C   UNL     1       3.236   1.003  22.773  0.00  0.00    +0.008 A 
ATOM     25  C   UNL     1       3.234  -1.227  23.702  0.00  0.00    +0.008 A 
ATOM     26  C   UNL     1       4.629   1.032  22.846  0.00  0.00    +0.038 A 
ATOM     27  C   UNL     1       4.626  -1.198  23.775  0.00  0.00    +0.038 A 
ATOM     28  C   UNL     1       5.325  -0.069  23.346  0.00  0.00    +0.123 A 
ENDBRANCH  22  23
ENDBRANCH   7  22
ENDBRANCH  16  20
ENDBRANCH  11  16
TORSDOF 8
ENDMDL
MODEL 3
REMARK VINA RESULT:      -2.8      3.557      5.676
REMARK  Name = 38027519
REMARK  12 active torsions:
REMARK  status: ('A' for Active; 'I' for Inactive)
REMARK    1  A    between atoms: S_1  and  N_6
REMARK    2  A    between atoms: S_1  and  C_21
REMARK    3  A    between atoms: N_6  and  C_15
REMARK    4  A    between atoms: N_7  and  C_22
REMARK    5  A    between atoms: C_8  and  C_12
REMARK    6  A    between atoms: C_9  and  C_15
REMARK    7  A    between atoms: C_11  and  C_16
REMARK    8  A    between atoms: C_12  and  C_17
REMARK    9  A    between atoms: C_12  and  C_18
REMARK   10  A    between atoms: C_13  and  C_19
REMARK   11  A    between atoms: C_16  and  C_20
REMARK   12  A    between atoms: C_22  and  C_23
REMARK                            x       y       z     vdW  Elec       q    Type
REMARK                         _______ _______ _______ _____ _____    ______ ____
ROOT
ATOM      8  C   UNL     1      -1.265   1.715  25.078  0.00  0.00    +0.000 C 
ATOM      9  C   UNL     1      -0.030   2.417  25.695  0.00  0.00    +0.030 C 
ATOM     10  C   UNL     1      -1.706   2.436  23.794  0.00  0.00    +0.012 C 
ATOM     11  C   UNL     1      -2.061   3.913  24.049  0.00  0.00    +0.023 C 
ATOM     13  C   UNL     1      -1.008   4.609  24.887  0.00  0.00    -0.073 C 
ATOM     14  C   UNL     1      -0.100   3.924  25.606  0.00  0.00    -0.023 C 
ATOM     19  C   UNL     1      -0.993   6.111  24.846  0.00  0.00    +0.039 C 
ENDROOT
BRANCH   8  12
ATOM     12  C   UNL     1      -0.989   0.240  24.775  0.00  0.00    -0.013 C 
ATOM     17  C   UNL     1      -0.687  -0.520  26.063  0.00  0.00    +0.007 C 
ATOM     18  C   UNL     1       0.162   0.105  23.784  0.00  0.00    +0.007 C 
ENDBRANCH   8  12
BRANCH   9  15
ATOM     15  C   UNL     1       0.170   2.001  27.156  0.00  0.00    +0.113 C 
BRANCH  15   6
ATOM      6  N   UNL     1       1.493   2.460  27.609  0.00  0.00    -0.194 NA
ATOM     29  H   UNL     1       2.272   2.118  27.030  0.00  0.00    +0.148 HD
BRANCH   6   1
ATOM      1  S   UNL     1       1.814   2.563  29.284  0.00  0.00    +0.027 S 
ATOM      4  O   UNL     1       2.582   1.408  29.707  0.00  0.00    -0.158 OA
ATOM      5  O   UNL     1       0.589   2.930  29.968  0.00  0.00    -0.158 OA
ATOM     21  C   UNL     1       2.888   3.979  29.324  0.00  0.00    +0.214 C 
ENDBRANCH   6   1
ENDBRANCH  15   6
ENDBRANCH   9  15
BRANCH  11  16
ATOM     16  C   UNL     1      -3.447   4.047  24.686  0.00  0.00    +0.103 C 
BRANCH  16  20
ATOM      3  O   UNL     1      -4.754   2.617  23.235  0.00  0.00    -0.276 OA
ATOM      7  N   UNL     1      -4.614   2.126  25.503  0.00  0.00    -0.311 N 
ATOM     20  C   UNL     1      -4.338   2.868  24.363  0.00  0.00    +0.214 C 
ATOM     30  H   UNL     1      -4.217   2.409  26.394  0.00  0.00    +0.149 HD
BRANCH   7  22
ATOM     22  C   UNL     1      -5.444   0.944  25.493  0.00  0.00    +0.139 C 
BRANCH  22  23
ATOM      2  F   UNL     1      -2.524  -3.668  24.110  0.00  0.00    -0.205 F 
ATOM     23  C   UNL     1      -4.665  -0.286  25.125  0.00  0.00    -0.030 A 
ATOM     24  C   UNL     1      -4.016  -1.024  26.115  0.00  0.00    +0.008 A 
ATOM     25  C   UNL     1      -4.591  -0.691  23.792  0.00  0.00    +0.008 A 
ATOM     26  C   UNL     1      -3.293  -2.167  25.772  0.00  0.00    +0.038 A 
ATOM     27  C   UNL     1      -3.867  -1.833  23.449  0.00  0.00    +0.038 A 
ATOM     28  C   UNL     1      -3.218  -2.571  24.439  0.00  0.00    +0.123 A 
ENDBRANCH  22  23
ENDBRANCH   7  22
ENDBRANCH  16  20
ENDBRANCH  11  16
TORSDOF 8
ENDMDL
MODEL 4
REMARK VINA RESULT:      -2.8      3.065      6.676
REMARK  Name = 38027519
REMARK  12 active torsions:
REMARK  status: ('A' for Active; 'I' for Inactive)
REMARK    1  A    between atoms: S_1  and  N_6
REMARK    2  A    between atoms: S_1  and  C_21
REMARK    3  A    between atoms: N_6  and  C_15
REMARK    4  A    between atoms: N_7  and  C_22
REMARK    5  A    between atoms: C_8  and  C_12
REMARK    6  A    between atoms: C_9  and  C_15
REMARK    7  A    between atoms: C_11  and  C_16
REMARK    8  A    between atoms: C_12  and  C_17
REMARK    9  A    between atoms: C_12  and  C_18
REMARK   10  A    between atoms: C_13  and  C_19
REMARK   11  A    between atoms: C_16  and  C_20
REMARK   12  A    between atoms: C_22  and  C_23
REMARK                            x       y       z     vdW  Elec       q    Type
REMARK                         _______ _______ _______ _____ _____    ______ ____
ROOT
ATOM      8  C   UNL     1      -3.249   1.509  23.692  0.00  0.00    +0.000 C 
ATOM      9  C   UNL     1      -4.535   1.280  24.525  0.00  0.00    +0.030 C 
ATOM     10  C   UNL     1      -2.573   0.167  23.368  0.00  0.00    +0.012 C 
ATOM     11  C   UNL     1      -2.198  -0.618  24.639  0.00  0.00    +0.023 C 
ATOM     13  C   UNL     1      -3.341  -0.660  25.632  0.00  0.00    -0.073 C 
ATOM     14  C   UNL     1      -4.383   0.188  25.558  0.00  0.00    -0.023 C 
ATOM     19  C   UNL     1      -3.281  -1.727  26.689  0.00  0.00    +0.039 C 
ENDROOT
BRANCH   8  12
ATOM     12  C   UNL     1      -3.538   2.271  22.396  0.00  0.00    -0.013 C 
ATOM     17  C   UNL     1      -2.452   1.992  21.362  0.00  0.00    +0.007 C 
ATOM     18  C   UNL     1      -3.652   3.767  22.670  0.00  0.00    +0.007 C 
ENDBRANCH   8  12
BRANCH   9  15
ATOM     15  C   UNL     1      -4.988   2.572  25.211  0.00  0.00    +0.113 C 
BRANCH  15   6
ATOM      6  N   UNL     1      -4.000   3.630  24.945  0.00  0.00    -0.194 NA
ATOM     29  H   UNL     1      -3.697   3.677  23.964  0.00  0.00    +0.148 HD
BRANCH   6   1
ATOM      1  S   UNL     1      -2.787   3.951  26.105  0.00  0.00    +0.027 S 
ATOM      4  O   UNL     1      -1.882   2.821  26.193  0.00  0.00    -0.158 OA
ATOM      5  O   UNL     1      -3.416   4.490  27.295  0.00  0.00    -0.158 OA
ATOM     21  C   UNL     1      -1.921   5.285  25.311  0.00  0.00    +0.214 C 
ENDBRANCH   6   1
ENDBRANCH  15   6
ENDBRANCH   9  15
BRANCH  11  16
ATOM     16  C   UNL     1      -0.929  -0.052  25.284  0.00  0.00    +0.103 C 
BRANCH  16  20
ATOM      3  O   UNL     1       0.336   1.697  24.190  0.00  0.00    -0.276 OA
ATOM      7  N   UNL     1       0.500  -0.490  23.418  0.00  0.00    -0.311 N 
ATOM     20  C   UNL     1       0.029   0.509  24.258  0.00  0.00    +0.214 C 
ATOM     30  H   UNL     1       0.194  -1.447  23.557  0.00  0.00    +0.149 HD
BRANCH   7  22
ATOM     22  C   UNL     1       1.430  -0.242  22.340  0.00  0.00    +0.139 C 
BRANCH  22  23
ATOM      2  F   UNL     1       6.758  -0.057  24.153  0.00  0.00    -0.205 F 
ATOM     23  C   UNL     1       2.851  -0.193  22.824  0.00  0.00    -0.030 A 
ATOM     24  C   UNL     1       3.413  -1.304  23.453  0.00  0.00    +0.008 A 
ATOM     25  C   UNL     1       3.609   0.964  22.643  0.00  0.00    +0.008 A 
ATOM     26  C   UNL     1       4.732  -1.258  23.902  0.00  0.00    +0.038 A 
ATOM     27  C   UNL     1       4.928   1.010  23.093  0.00  0.00    +0.038 A 
ATOM     28  C   UNL     1       5.490  -0.101  23.723  0.00  0.00    +0.123 A 
ENDBRANCH  22  23
ENDBRANCH   7  22
ENDBRANCH  16  20
ENDBRANCH  11  16
TORSDOF 8
ENDMDL
MODEL 5
REMARK VINA RESULT:      -2.6      2.560      5.139
REMARK  Name = 38027519
REMARK  12 active torsions:
REMARK  status: ('A' for Active; 'I' for Inactive)
REMARK    1  A    between atoms: S_1  and  N_6
REMARK    2  A    between atoms: S_1  and  C_21
REMARK    3  A    between atoms: N_6  and  C_15
REMARK    4  A    between atoms: N_7  and  C_22
REMARK    5  A    between atoms: C_8  and  C_12
REMARK    6  A    between atoms: C_9  and  C_15
REMARK    7  A    between atoms: C_11  and  C_16
REMARK    8  A    between atoms: C_12  and  C_17
REMARK    9  A    between atoms: C_12  and  C_18
REMARK   10  A    between atoms: C_13  and  C_19
REMARK   11  A    between atoms: C_16  and  C_20
REMARK   12  A    between atoms: C_22  and  C_23
REMARK                            x       y       z     vdW  Elec       q    Type
REMARK                         _______ _______ _______ _____ _____    ______ ____
ROOT
ATOM      8  C   UNL     1      -1.921   2.077  23.876  0.00  0.00    +0.000 C 
ATOM      9  C   UNL     1      -0.463   2.567  23.695  0.00  0.00    +0.030 C 
ATOM     10  C   UNL     1      -2.910   3.220  23.599  0.00  0.00    +0.012 C 
ATOM     11  C   UNL     1      -2.681   4.427  24.528  0.00  0.00    +0.023 C 
ATOM     13  C   UNL     1      -1.216   4.805  24.609  0.00  0.00    -0.073 C 
ATOM     14  C   UNL     1      -0.239   3.966  24.220  0.00  0.00    -0.023 C 
ATOM     19  C   UNL     1      -0.900   6.187  25.107  0.00  0.00    +0.039 C 
ENDROOT
BRANCH   8  12
ATOM     12  C   UNL     1      -2.239   0.885  22.969  0.00  0.00    -0.013 C 
ATOM     17  C   UNL     1      -1.206  -0.221  23.164  0.00  0.00    +0.007 C 
ATOM     18  C   UNL     1      -2.292   1.324  21.510  0.00  0.00    +0.007 C 
ENDBRANCH   8  12
BRANCH   9  15
ATOM     15  C   UNL     1       0.531   1.608  24.358  0.00  0.00    +0.113 C 
BRANCH  15   6
ATOM      6  N   UNL     1       1.791   1.621  23.598  0.00  0.00    -0.194 NA
ATOM     29  H   UNL     1       1.915   2.458  23.014  0.00  0.00    +0.148 HD
BRANCH   6   1
ATOM      1  S   UNL     1       2.378   0.163  22.926  0.00  0.00    +0.027 S 
ATOM      4  O   UNL     1       1.899   0.025  21.565  0.00  0.00    -0.158 OA
ATOM      5  O   UNL     1       2.185  -0.901  23.892  0.00  0.00    -0.158 OA
ATOM     21  C   UNL     1       4.120   0.513  22.861  0.00  0.00    +0.214 C 
ENDBRANCH   6   1
ENDBRANCH  15   6
ENDBRANCH   9  15
BRANCH  11  16
ATOM     16  C   UNL     1      -3.259   4.168  25.923  0.00  0.00    +0.103 C 
BRANCH  16  20
ATOM      3  O   UNL     1      -5.636   3.723  26.022  0.00  0.00    -0.276 OA
ATOM      7  N   UNL     1      -4.157   1.969  25.645  0.00  0.00    -0.311 N 
ATOM     20  C   UNL     1      -4.493   3.296  25.874  0.00  0.00    +0.214 C 
ATOM     30  H   UNL     1      -3.182   1.713  25.527  0.00  0.00    +0.149 HD
BRANCH   7  22
ATOM     22  C   UNL     1      -5.136   0.911  25.551  0.00  0.00    +0.139 C 
BRANCH  22  23
ATOM      2  F   UNL     1      -2.805  -3.989  24.049  0.00  0.00    -0.205 F 
ATOM     23  C   UNL     1      -4.515  -0.395  25.150  0.00  0.00    -0.030 A 
ATOM     24  C   UNL     1      -4.887  -1.007  23.953  0.00  0.00    +0.008 A 
ATOM     25  C   UNL     1      -3.565  -0.997  25.975  0.00  0.00    +0.008 A 
ATOM     26  C   UNL     1      -4.310  -2.222  23.581  0.00  0.00    +0.038 A 
ATOM     27  C   UNL     1      -2.988  -2.211  25.603  0.00  0.00    +0.038 A 
ATOM     28  C   UNL     1      -3.361  -2.824  24.407  0.00  0.00    +0.123 A 
ENDBRANCH  22  23
ENDBRANCH   7  22
ENDBRANCH  16  20
ENDBRANCH  11  16
TORSDOF 8
ENDMDL
MODEL 6
REMARK VINA RESULT:      -2.5      1.646      3.451
REMARK  Name = 38027519
REMARK  12 active torsions:
REMARK  status: ('A' for Active; 'I' for Inactive)
REMARK    1  A    between atoms: S_1  and  N_6
REMARK    2  A    between atoms: S_1  and  C_21
REMARK    3  A    between atoms: N_6  and  C_15
REMARK    4  A    between atoms: N_7  and  C_22
REMARK    5  A    between atoms: C_8  and  C_12
REMARK    6  A    between atoms: C_9  and  C_15
REMARK    7  A    between atoms: C_11  and  C_16
REMARK    8  A    between atoms: C_12  and  C_17
REMARK    9  A    between atoms: C_12  and  C_18
REMARK   10  A    between atoms: C_13  and  C_19
REMARK   11  A    between atoms: C_16  and  C_20
REMARK   12  A    between atoms: C_22  and  C_23
REMARK                            x       y       z     vdW  Elec       q    Type
REMARK                         _______ _______ _______ _____ _____    ______ ____
ROOT
ATOM      8  C   UNL     1      -3.157  -0.946  24.915  0.00  0.00    +0.000 C 
ATOM      9  C   UNL     1      -2.022  -0.188  24.184  0.00  0.00    +0.030 C 
ATOM     10  C   UNL     1      -4.495  -0.738  24.190  0.00  0.00    +0.012 C 
ATOM     11  C   UNL     1      -4.883   0.750  24.100  0.00  0.00    +0.023 C 
ATOM     13  C   UNL     1      -3.723   1.606  23.636  0.00  0.00    -0.073 C 
ATOM     14  C   UNL     1      -2.451   1.166  23.669  0.00  0.00    -0.023 C 
ATOM     19  C   UNL     1      -4.059   2.967  23.091  0.00  0.00    +0.039 C 
ENDROOT
BRANCH   8  12
ATOM     12  C   UNL     1      -2.858  -2.444  25.032  0.00  0.00    -0.013 C 
ATOM     17  C   UNL     1      -1.566  -2.787  24.297  0.00  0.00    +0.007 C 
ATOM     18  C   UNL     1      -4.024  -3.264  24.489  0.00  0.00    +0.007 C 
ENDBRANCH   8  12
BRANCH   9  15
ATOM     15  C   UNL     1      -0.794  -0.024  25.086  0.00  0.00    +0.113 C 
BRANCH  15   6
ATOM      6  N   UNL     1       0.361  -0.678  24.450  0.00  0.00    -0.194 NA
ATOM     29  H   UNL     1       0.921  -1.250  25.095  0.00  0.00    +0.148 HD
BRANCH   6   1
ATOM      1  S   UNL     1       1.246   0.165  23.256  0.00  0.00    +0.027 S 
ATOM      4  O   UNL     1       1.467   1.532  23.686  0.00  0.00    -0.158 OA
ATOM      5  O   UNL     1       0.662  -0.119  21.960  0.00  0.00    -0.158 OA
ATOM     21  C   UNL     1       2.801  -0.693  23.338  0.00  0.00    +0.214 C 
ENDBRANCH   6   1
ENDBRANCH  15   6
ENDBRANCH   9  15
BRANCH  11  16
ATOM     16  C   UNL     1      -5.442   1.258  25.432  0.00  0.00    +0.103 C 
BRANCH  16  20
ATOM      3  O   UNL     1      -5.652   3.669  25.469  0.00  0.00    -0.276 OA
ATOM      7  N   UNL     1      -3.747   2.671  26.353  0.00  0.00    -0.311 N 
ATOM     20  C   UNL     1      -4.991   2.668  25.738  0.00  0.00    +0.214 C 
ATOM     30  H   UNL     1      -3.280   1.790  26.542  0.00  0.00    +0.149 HD
BRANCH   7  22
ATOM     22  C   UNL     1      -3.069   3.881  26.757  0.00  0.00    +0.139 C 
BRANCH  22  23
ATOM      2  F   UNL     1       0.800   5.486  22.994  0.00  0.00    -0.205 F 
ATOM     23  C   UNL     1      -2.038   4.309  25.754  0.00  0.00    -0.030 A 
ATOM     24  C   UNL     1      -2.094   5.587  25.197  0.00  0.00    +0.008 A 
ATOM     25  C   UNL     1      -1.023   3.429  25.379  0.00  0.00    +0.008 A 
ATOM     26  C   UNL     1      -1.136   5.984  24.264  0.00  0.00    +0.038 A 
ATOM     27  C   UNL     1      -0.065   3.827  24.446  0.00  0.00    +0.038 A 
ATOM     28  C   UNL     1      -0.121   5.104  23.888  0.00  0.00    +0.123 A 
ENDBRANCH  22  23
ENDBRANCH   7  22
ENDBRANCH  16  20
ENDBRANCH  11  16
TORSDOF 8
ENDMDL
MODEL 7
REMARK VINA RESULT:      -2.4      3.111      7.510
REMARK  Name = 38027519
REMARK  12 active torsions:
REMARK  status: ('A' for Active; 'I' for Inactive)
REMARK    1  A    between atoms: S_1  and  N_6
REMARK    2  A    between atoms: S_1  and  C_21
REMARK    3  A    between atoms: N_6  and  C_15
REMARK    4  A    between atoms: N_7  and  C_22
REMARK    5  A    between atoms: C_8  and  C_12
REMARK    6  A    between atoms: C_9  and  C_15
REMARK    7  A    between atoms: C_11  and  C_16
REMARK    8  A    between atoms: C_12  and  C_17
REMARK    9  A    between atoms: C_12  and  C_18
REMARK   10  A    between atoms: C_13  and  C_19
REMARK   11  A    between atoms: C_16  and  C_20
REMARK   12  A    between atoms: C_22  and  C_23
REMARK                            x       y       z     vdW  Elec       q    Type
REMARK                         _______ _______ _______ _____ _____    ______ ____
ROOT
ATOM      8  C   UNL     1      -3.138  -0.652  24.621  0.00  0.00    +0.000 C 
ATOM      9  C   UNL     1      -3.666   0.500  25.511  0.00  0.00    +0.030 C 
ATOM     10  C   UNL     1      -1.670  -0.960  24.958  0.00  0.00    +0.012 C 
ATOM     11  C   UNL     1      -0.758   0.265  24.762  0.00  0.00    +0.023 C 
ATOM     13  C   UNL     1      -1.347   1.511  25.389  0.00  0.00    -0.073 C 
ATOM     14  C   UNL     1      -2.647   1.594  25.730  0.00  0.00    -0.023 C 
ATOM     19  C   UNL     1      -0.400   2.647  25.658  0.00  0.00    +0.039 C 
ENDROOT
BRANCH   8  12
ATOM     12  C   UNL     1      -3.982  -1.921  24.771  0.00  0.00    -0.013 C 
ATOM     17  C   UNL     1      -3.214  -2.980  25.555  0.00  0.00    +0.007 C 
ATOM     18  C   UNL     1      -4.393  -2.453  23.402  0.00  0.00    +0.007 C 
ENDBRANCH   8  12
BRANCH   9  15
ATOM     15  C   UNL     1      -4.948   1.106  24.930  0.00  0.00    +0.113 C 
BRANCH  15   6
ATOM      6  N   UNL     1      -5.389   2.214  25.793  0.00  0.00    -0.194 NA
ATOM     29  H   UNL     1      -6.318   2.071  26.209  0.00  0.00    +0.148 HD
BRANCH   6   1
ATOM      1  S   UNL     1      -5.027   3.821  25.339  0.00  0.00    +0.027 S 
ATOM      4  O   UNL     1      -6.154   4.681  25.644  0.00  0.00    -0.158 OA
ATOM      5  O   UNL     1      -4.443   3.807  24.012  0.00  0.00    -0.158 OA
ATOM     21  C   UNL     1      -3.725   4.198  26.489  0.00  0.00    +0.214 C 
ENDBRANCH   6   1
ENDBRANCH  15   6
ENDBRANCH   9  15
BRANCH  11  16
ATOM     16  C   UNL     1      -0.446   0.491  23.279  0.00  0.00    +0.103 C 
BRANCH  16  20
ATOM      3  O   UNL     1       1.700   1.498  23.764  0.00  0.00    -0.276 OA
ATOM      7  N   UNL     1       1.479   0.109  21.913  0.00  0.00    -0.311 N 
ATOM     20  C   UNL     1       1.020   0.773  23.042  0.00  0.00    +0.214 C 
ATOM     30  H   UNL     1       0.842  -0.476  21.383  0.00  0.00    +0.149 HD
BRANCH   7  22
ATOM     22  C   UNL     1       2.843   0.198  21.445  0.00  0.00    +0.139 C 
BRANCH  22  23
ATOM      2  F   UNL     1       6.548  -1.057  25.495  0.00  0.00    -0.205 F 
ATOM     23  C   UNL     1       3.830  -0.137  22.525  0.00  0.00    -0.030 A 
ATOM     24  C   UNL     1       3.817  -1.400  23.117  0.00  0.00    +0.008 A 
ATOM     25  C   UNL     1       4.763   0.815  22.937  0.00  0.00    +0.008 A 
ATOM     26  C   UNL     1       4.734  -1.711  24.121  0.00  0.00    +0.038 A 
ATOM     27  C   UNL     1       5.680   0.505  23.940  0.00  0.00    +0.038 A 
ATOM     28  C   UNL     1       5.666  -0.758  24.533  0.00  0.00    +0.123 A 
ENDBRANCH  22  23
ENDBRANCH   7  22
ENDBRANCH  16  20
ENDBRANCH  11  16
TORSDOF 8
ENDMDL
MODEL 8
REMARK VINA RESULT:      -1.6      3.203      6.095
REMARK  Name = 38027519
REMARK  12 active torsions:
REMARK  status: ('A' for Active; 'I' for Inactive)
REMARK    1  A    between atoms: S_1  and  N_6
REMARK    2  A    between atoms: S_1  and  C_21
REMARK    3  A    between atoms: N_6  and  C_15
REMARK    4  A    between atoms: N_7  and  C_22
REMARK    5  A    between atoms: C_8  and  C_12
REMARK    6  A    between atoms: C_9  and  C_15
REMARK    7  A    between atoms: C_11  and  C_16
REMARK    8  A    between atoms: C_12  and  C_17
REMARK    9  A    between atoms: C_12  and  C_18
REMARK   10  A    between atoms: C_13  and  C_19
REMARK   11  A    between atoms: C_16  and  C_20
REMARK   12  A    between atoms: C_22  and  C_23
REMARK                            x       y       z     vdW  Elec       q    Type
REMARK                         _______ _______ _______ _____ _____    ______ ____
ROOT
ATOM      8  C   UNL     1      -4.973   2.455  25.322  0.00  0.00    +0.000 C 
ATOM      9  C   UNL     1      -4.442   1.249  24.508  0.00  0.00    +0.030 C 
ATOM     10  C   UNL     1      -4.848   3.750  24.505  0.00  0.00    +0.012 C 
ATOM     11  C   UNL     1      -3.393   4.042  24.094  0.00  0.00    +0.023 C 
ATOM     13  C   UNL     1      -2.713   2.815  23.522  0.00  0.00    -0.073 C 
ATOM     14  C   UNL     1      -3.203   1.575  23.707  0.00  0.00    -0.023 C 
ATOM     19  C   UNL     1      -1.479   3.046  22.696  0.00  0.00    +0.039 C 
ENDROOT
BRANCH   8  12
ATOM     12  C   UNL     1      -6.427   2.253  25.757  0.00  0.00    -0.013 C 
ATOM     17  C   UNL     1      -6.490   1.435  27.043  0.00  0.00    +0.007 C 
ATOM     18  C   UNL     1      -7.227   1.578  24.647  0.00  0.00    +0.007 C 
ENDBRANCH   8  12
BRANCH   9  15
ATOM     15  C   UNL     1      -4.160   0.048  25.417  0.00  0.00    +0.113 C 
BRANCH  15   6
ATOM      6  N   UNL     1      -2.962  -0.654  24.928  0.00  0.00    -0.194 NA
ATOM     29  H   UNL     1      -2.433  -0.128  24.220  0.00  0.00    +0.148 HD
BRANCH   6   1
ATOM      1  S   UNL     1      -3.021  -2.345  24.695  0.00  0.00    +0.027 S 
ATOM      4  O   UNL     1      -3.403  -2.997  25.933  0.00  0.00    -0.158 OA
ATOM      5  O   UNL     1      -1.828  -2.755  23.979  0.00  0.00    -0.158 OA
ATOM     21  C   UNL     1      -4.388  -2.471  23.566  0.00  0.00    +0.214 C 
ENDBRANCH   6   1
ENDBRANCH  15   6
ENDBRANCH   9  15
BRANCH  11  16
ATOM     16  C   UNL     1      -2.592   4.618  25.266  0.00  0.00    +0.103 C 
BRANCH  16  20
ATOM      3  O   UNL     1      -0.230   4.728  24.752  0.00  0.00    -0.276 OA
ATOM      7  N   UNL     1      -1.059   2.915  25.947  0.00  0.00    -0.311 N 
ATOM     20  C   UNL     1      -1.163   4.125  25.276  0.00  0.00    +0.214 C 
ATOM     30  H   UNL     1      -1.888   2.495  26.355  0.00  0.00    +0.149 HD
BRANCH   7  22
ATOM     22  C   UNL     1       0.191   2.208  26.110  0.00  0.00    +0.139 C 
BRANCH  22  23
ATOM      2  F   UNL     1       1.587  -0.703  21.497  0.00  0.00    -0.205 F 
ATOM     23  C   UNL     1       0.563   1.431  24.880  0.00  0.00    -0.030 A 
ATOM     24  C   UNL     1      -0.155   0.286  24.534  0.00  0.00    +0.008 A 
ATOM     25  C   UNL     1       1.626   1.856  24.084  0.00  0.00    +0.008 A 
ATOM     26  C   UNL     1       0.191  -0.435  23.391  0.00  0.00    +0.038 A 
ATOM     27  C   UNL     1       1.972   1.134  22.941  0.00  0.00    +0.038 A 
ATOM     28  C   UNL     1       1.255  -0.011  22.595  0.00  0.00    +0.123 A 
ENDBRANCH  22  23
ENDBRANCH   7  22
ENDBRANCH  16  20
ENDBRANCH  11  16
TORSDOF 8
ENDMDL
MODEL 9
REMARK VINA RESULT:      -1.6      3.638      6.637
REMARK  Name = 38027519
REMARK  12 active torsions:
REMARK  status: ('A' for Active; 'I' for Inactive)
REMARK    1  A    between atoms: S_1  and  N_6
REMARK    2  A    between atoms: S_1  and  C_21
REMARK    3  A    between atoms: N_6  and  C_15
REMARK    4  A    between atoms: N_7  and  C_22
REMARK    5  A    between atoms: C_8  and  C_12
REMARK    6  A    between atoms: C_9  and  C_15
REMARK    7  A    between atoms: C_11  and  C_16
REMARK    8  A    between atoms: C_12  and  C_17
REMARK    9  A    between atoms: C_12  and  C_18
REMARK   10  A    between atoms: C_13  and  C_19
REMARK   11  A    between atoms: C_16  and  C_20
REMARK   12  A    between atoms: C_22  and  C_23
REMARK                            x       y       z     vdW  Elec       q    Type
REMARK                         _______ _______ _______ _____ _____    ______ ____
ROOT
ATOM      8  C   UNL     1      -2.055   3.463  24.517  0.00  0.00    +0.000 C 
ATOM      9  C   UNL     1      -2.702   2.487  23.503  0.00  0.00    +0.030 C 
ATOM     10  C   UNL     1      -0.606   3.775  24.110  0.00  0.00    +0.012 C 
ATOM     11  C   UNL     1       0.263   2.506  24.030  0.00  0.00    +0.023 C 
ATOM     13  C   UNL     1      -0.429   1.397  23.266  0.00  0.00    -0.073 C 
ATOM     14  C   UNL     1      -1.754   1.411  23.028  0.00  0.00    -0.023 C 
ATOM     19  C   UNL     1       0.442   0.290  22.740  0.00  0.00    +0.039 C 
ENDROOT
BRANCH   8  12
ATOM     12  C   UNL     1      -2.851   4.765  24.642  0.00  0.00    -0.013 C 
ATOM     17  C   UNL     1      -3.595   5.060  23.344  0.00  0.00    +0.007 C 
ATOM     18  C   UNL     1      -1.927   5.921  25.011  0.00  0.00    +0.007 C 
ENDBRANCH   8  12
BRANCH   9  15
ATOM     15  C   UNL     1      -3.960   1.836  24.087  0.00  0.00    +0.113 C 
BRANCH  15   6
ATOM      6  N   UNL     1      -4.211   2.391  25.427  0.00  0.00    -0.194 NA
ATOM     29  H   UNL     1      -3.622   1.980  26.164  0.00  0.00    +0.148 HD
BRANCH   6   1
ATOM      1  S   UNL     1      -5.812   2.766  25.890  0.00  0.00    +0.027 S 
ATOM      4  O   UNL     1      -6.064   4.179  25.681  0.00  0.00    -0.158 OA
ATOM      5  O   UNL     1      -6.079   2.149  27.175  0.00  0.00    -0.158 OA
ATOM     21  C   UNL     1      -6.727   1.860  24.665  0.00  0.00    +0.214 C 
ENDBRANCH   6   1
ENDBRANCH  15   6
ENDBRANCH   9  15
BRANCH  11  16
ATOM     16  C   UNL     1       0.681   2.034  25.426  0.00  0.00    +0.103 C 
BRANCH  16  20
ATOM      3  O   UNL     1      -1.315   1.998  26.794  0.00  0.00    -0.276 OA
ATOM      7  N   UNL     1      -0.402  -0.005  26.048  0.00  0.00    -0.311 N 
ATOM     20  C   UNL     1      -0.460   1.376  26.169  0.00  0.00    +0.214 C 
ATOM     30  H   UNL     1       0.341  -0.430  25.502  0.00  0.00    +0.149 HD
BRANCH   7  22
ATOM     22  C   UNL     1      -1.365  -0.892  26.658  0.00  0.00    +0.139 C 
BRANCH  22  23
ATOM      2  F   UNL     1      -4.996  -2.974  22.891  0.00  0.00    -0.205 F 
ATOM     23  C   UNL     1      -2.333  -1.448  25.653  0.00  0.00    -0.030 A 
ATOM     24  C   UNL     1      -1.952  -2.506  24.827  0.00  0.00    +0.008 A 
ATOM     25  C   UNL     1      -3.614  -0.906  25.546  0.00  0.00    +0.008 A 
ATOM     26  C   UNL     1      -2.851  -3.021  23.894  0.00  0.00    +0.038 A 
ATOM     27  C   UNL     1      -4.513  -1.421  24.612  0.00  0.00    +0.038 A 
ATOM     28  C   UNL     1      -4.132  -2.479  23.786  0.00  0.00    +0.123 A 
ENDBRANCH  22  23
ENDBRANCH   7  22
ENDBRANCH  16  20
ENDBRANCH  11  16
TORSDOF 8
ENDMDL
MODEL 10
REMARK VINA RESULT:      -1.6      3.439      7.385
REMARK  Name = 38027519
REMARK  12 active torsions:
REMARK  status: ('A' for Active; 'I' for Inactive)
REMARK    1  A    between atoms: S_1  and  N_6
REMARK    2  A    between atoms: S_1  and  C_21
REMARK    3  A    between atoms: N_6  and  C_15
REMARK    4  A    between atoms: N_7  and  C_22
REMARK    5  A    between atoms: C_8  and  C_12
REMARK    6  A    between atoms: C_9  and  C_15
REMARK    7  A    between atoms: C_11  and  C_16
REMARK    8  A    between atoms: C_12  and  C_17
REMARK    9  A    between atoms: C_12  and  C_18
REMARK   10  A    between atoms: C_13  and  C_19
REMARK   11  A    between atoms: C_16  and  C_20
REMARK   12  A    between atoms: C_22  and  C_23
REMARK                            x       y       z     vdW  Elec       q    Type
REMARK                         _______ _______ _______ _____ _____    ______ ____
ROOT
ATOM      8  C   UNL     1      -1.940   3.547  25.108  0.00  0.00    +0.000 C 
ATOM      9  C   UNL     1      -3.432   3.542  24.693  0.00  0.00    +0.030 C 
ATOM     10  C   UNL     1      -1.075   2.915  24.007  0.00  0.00    +0.012 C 
ATOM     11  C   UNL     1      -1.491   1.464  23.699  0.00  0.00    +0.023 C 
ATOM     13  C   UNL     1      -2.991   1.331  23.539  0.00  0.00    -0.073 C 
ATOM     14  C   UNL     1      -3.843   2.276  23.978  0.00  0.00    -0.023 C 
ATOM     19  C   UNL     1      -3.491   0.108  22.824  0.00  0.00    +0.039 C 
ENDROOT
BRANCH   8  12
ATOM     12  C   UNL     1      -1.439   4.961  25.415  0.00  0.00    -0.013 C 
ATOM     17  C   UNL     1      -2.512   5.990  25.077  0.00  0.00    +0.007 C 
ATOM     18  C   UNL     1      -0.152   5.248  24.647  0.00  0.00    +0.007 C 
ENDBRANCH   8  12
BRANCH   9  15
ATOM     15  C   UNL     1      -4.345   3.763  25.904  0.00  0.00    +0.113 C 
BRANCH  15   6
ATOM      6  N   UNL     1      -5.737   3.493  25.512  0.00  0.00    -0.194 NA
ATOM     29  H   UNL     1      -6.370   4.292  25.652  0.00  0.00    +0.148 HD
BRANCH   6   1
ATOM      1  S   UNL     1      -6.412   1.957  25.832  0.00  0.00    +0.027 S 
ATOM      4  O   UNL     1      -7.112   1.476  24.657  0.00  0.00    -0.158 OA
ATOM      5  O   UNL     1      -7.074   2.001  27.122  0.00  0.00    -0.158 OA
ATOM     21  C   UNL     1      -4.936   0.986  26.025  0.00  0.00    +0.214 C 
ENDBRANCH   6   1
ENDBRANCH  15   6
ENDBRANCH   9  15
BRANCH  11  16
ATOM     16  C   UNL     1      -0.964   0.500  24.766  0.00  0.00    +0.103 C 
BRANCH  16  20
ATOM      3  O   UNL     1       0.231  -1.602  24.682  0.00  0.00    -0.276 OA
ATOM      7  N   UNL     1       0.657   0.023  23.076  0.00  0.00    -0.311 N 
ATOM     20  C   UNL     1       0.025  -0.492  24.199  0.00  0.00    +0.214 C 
ATOM     30  H   UNL     1       0.415   0.952  22.746  0.00  0.00    +0.149 HD
BRANCH   7  22
ATOM     22  C   UNL     1       1.655  -0.706  22.327  0.00  0.00    +0.139 C 
BRANCH  22  23
ATOM      2  F   UNL     1       6.860   0.275  24.239  0.00  0.00    -0.205 F 
ATOM     23  C   UNL     1       3.043  -0.445  22.838  0.00  0.00    -0.030 A 
ATOM     24  C   UNL     1       3.725  -1.436  23.544  0.00  0.00    +0.008 A 
ATOM     25  C   UNL     1       3.650   0.789  22.604  0.00  0.00    +0.008 A 
ATOM     26  C   UNL     1       5.014  -1.193  24.018  0.00  0.00    +0.038 A 
ATOM     27  C   UNL     1       4.939   1.032  23.078  0.00  0.00    +0.038 A 
ATOM     28  C   UNL     1       5.621   0.042  23.785  0.00  0.00    +0.123 A 
ENDBRANCH  22  23
ENDBRANCH   7  22
ENDBRANCH  16  20
ENDBRANCH  11  16
TORSDOF 8
ENDMDL
