MODEL 1
REMARK VINA RESULT:      -2.1      0.000      0.000
REMARK  Name = 26744940
REMARK  8 active torsions:
REMARK  status: ('A' for Active; 'I' for Inactive)
REMARK    1  A    between atoms: O_3  and  C_24
REMARK    2  A    between atoms: O_4  and  C_29
REMARK    3  A    between atoms: O_4  and  C_30
REMARK    4  A    between atoms: N_5  and  C_15
REMARK    5  A    between atoms: C_10  and  C_16
REMARK    6  A    between atoms: C_15  and  C_17
REMARK    7  A    between atoms: C_20  and  C_23
REMARK    8  A    between atoms: C_21  and  C_24
REMARK                            x       y       z     vdW  Elec       q    Type
REMARK                         _______ _______ _______ _____ _____    ______ ____
ROOT
ATOM      5  N   UNL     1      -7.451 -10.305  15.600  0.00  0.00    -0.278 NA
ATOM      6  N   UNL     1      -9.641  -7.303  15.367  0.00  0.00    -0.347 N 
ATOM      7  N   UNL     1     -10.720  -8.477  13.799  0.00  0.00    -0.240 NA
ATOM     10  C   UNL     1      -7.680 -10.779  14.201  0.00  0.00    +0.152 C 
ATOM     11  C   UNL     1      -9.138 -10.462  13.713  0.00  0.00    +0.086 C 
ATOM     12  C   UNL     1      -7.659  -8.859  15.822  0.00  0.00    +0.140 C 
ATOM     13  C   UNL     1      -8.922  -8.443  15.175  0.00  0.00    +0.053 A 
ATOM     14  C   UNL     1      -9.598  -9.143  14.208  0.00  0.00    +0.065 A 
ATOM     18  C   UNL     1     -10.715  -7.370  14.515  0.00  0.00    +0.197 A 
ATOM     31  H   UNL     1      -9.427  -6.549  16.007  0.00  0.00    +0.167 HD
ENDROOT
BRANCH  10  16
ATOM      1  O   UNL     1      -7.042 -10.005  11.958  0.00  0.00    -0.336 OA
ATOM      8  N   UNL     1      -5.305 -10.335  13.333  0.00  0.00    -0.190 NA
ATOM      9  N   UNL     1      -5.896  -9.686  11.219  0.00  0.00    -0.056 NA
ATOM     16  C   UNL     1      -6.605 -10.376  13.190  0.00  0.00    +0.245 A 
ATOM     20  C   UNL     1      -4.912  -9.905  12.097  0.00  0.00    +0.202 A 
BRANCH  20  23
ATOM     23  C   UNL     1      -3.529  -9.705  11.774  0.00  0.00    +0.023 A 
ATOM     25  C   UNL     1      -2.538 -10.112  12.666  0.00  0.00    +0.015 A 
ATOM     26  C   UNL     1      -3.177  -9.103  10.566  0.00  0.00    +0.015 A 
ATOM     27  C   UNL     1      -1.193  -9.917  12.350  0.00  0.00    +0.046 A 
ATOM     28  C   UNL     1      -1.832  -8.907  10.251  0.00  0.00    +0.046 A 
ATOM     29  C   UNL     1      -0.841  -9.314  11.144  0.00  0.00    +0.120 A 
BRANCH  29   4
ATOM      4  O   UNL     1       0.471  -9.123  10.836  0.00  0.00    -0.495 OA
ATOM     30  C   UNL     1       1.107  -7.971  11.387  0.00  0.00    +0.277 C 
ENDBRANCH  29   4
ENDBRANCH  20  23
ENDBRANCH  10  16
BRANCH   5  15
ATOM     15  C   UNL     1      -6.194 -10.760  16.185  0.00  0.00    +0.160 C 
BRANCH  15  17
ATOM      2  O   UNL     1      -7.483 -10.771  18.249  0.00  0.00    -0.461 OA
ATOM     17  C   UNL     1      -6.245 -10.761  17.690  0.00  0.00    +0.119 A 
ATOM     19  C   UNL     1      -5.274 -10.755  18.665  0.00  0.00    +0.046 A 
ATOM     21  C   UNL     1      -7.301 -10.771  19.596  0.00  0.00    +0.131 A 
ATOM     22  C   UNL     1      -5.960 -10.760  19.903  0.00  0.00    +0.047 A 
BRANCH  21  24
ATOM     24  C   UNL     1      -8.521 -10.781  20.416  0.00  0.00    +0.230 C 
BRANCH  24   3
ATOM      3  O   UNL     1      -9.588 -10.129  19.723  0.00  0.00    -0.387 OA
ATOM     32  H   UNL     1      -9.378  -9.179  19.712  0.00  0.00    +0.210 HD
ENDBRANCH  24   3
ENDBRANCH  21  24
ENDBRANCH  15  17
ENDBRANCH   5  15
TORSDOF 7
ENDMDL
MODEL 2
REMARK VINA RESULT:       1.2     13.769     15.281
REMARK  Name = 26744940
REMARK  8 active torsions:
REMARK  status: ('A' for Active; 'I' for Inactive)
REMARK    1  A    between atoms: O_3  and  C_24
REMARK    2  A    between atoms: O_4  and  C_29
REMARK    3  A    between atoms: O_4  and  C_30
REMARK    4  A    between atoms: N_5  and  C_15
REMARK    5  A    between atoms: C_10  and  C_16
REMARK    6  A    between atoms: C_15  and  C_17
REMARK    7  A    between atoms: C_20  and  C_23
REMARK    8  A    between atoms: C_21  and  C_24
REMARK                            x       y       z     vdW  Elec       q    Type
REMARK                         _______ _______ _______ _____ _____    ______ ____
ROOT
ATOM      5  N   UNL     1      -4.316   0.757  23.358  0.00  0.00    -0.278 NA
ATOM      6  N   UNL     1      -5.703   2.263  26.468  0.00  0.00    -0.347 N 
ATOM      7  N   UNL     1      -5.122   4.208  25.529  0.00  0.00    -0.240 NA
ATOM     10  C   UNL     1      -3.361   1.867  23.055  0.00  0.00    +0.152 C 
ATOM     11  C   UNL     1      -3.935   3.261  23.493  0.00  0.00    +0.086 C 
ATOM     12  C   UNL     1      -4.700   0.622  24.779  0.00  0.00    +0.140 C 
ATOM     13  C   UNL     1      -5.033   1.955  25.324  0.00  0.00    +0.053 A 
ATOM     14  C   UNL     1      -4.682   3.161  24.769  0.00  0.00    +0.065 A 
ATOM     18  C   UNL     1      -5.730   3.634  26.548  0.00  0.00    +0.197 A 
ATOM     31  H   UNL     1      -6.099   1.615  27.135  0.00  0.00    +0.167 HD
ENDROOT
BRANCH  10  16
ATOM      1  O   UNL     1      -1.667   1.851  24.834  0.00  0.00    -0.336 OA
ATOM      8  N   UNL     1      -0.878   1.256  22.824  0.00  0.00    -0.190 NA
ATOM      9  N   UNL     1      -0.305   1.580  25.016  0.00  0.00    -0.056 NA
ATOM     16  C   UNL     1      -1.921   1.635  23.517  0.00  0.00    +0.245 A 
ATOM     20  C   UNL     1       0.091   1.236  23.787  0.00  0.00    +0.202 A 
BRANCH  20  23
ATOM     23  C   UNL     1       1.444   0.866  23.486  0.00  0.00    +0.023 A 
ATOM     25  C   UNL     1       1.812  -0.479  23.467  0.00  0.00    +0.015 A 
ATOM     26  C   UNL     1       2.390   1.853  23.213  0.00  0.00    +0.015 A 
ATOM     27  C   UNL     1       3.128  -0.837  23.174  0.00  0.00    +0.046 A 
ATOM     28  C   UNL     1       3.707   1.495  22.922  0.00  0.00    +0.046 A 
ATOM     29  C   UNL     1       4.075   0.149  22.902  0.00  0.00    +0.120 A 
BRANCH  29   4
ATOM      4  O   UNL     1       5.359  -0.200  22.617  0.00  0.00    -0.495 OA
ATOM     30  C   UNL     1       6.250  -0.358  23.721  0.00  0.00    +0.277 C 
ENDBRANCH  29   4
ENDBRANCH  20  23
ENDBRANCH  10  16
BRANCH   5  15
ATOM     15  C   UNL     1      -3.937  -0.529  22.782  0.00  0.00    +0.160 C 
BRANCH  15  17
ATOM      2  O   UNL     1      -2.127  -1.302  24.214  0.00  0.00    -0.461 OA
ATOM     17  C   UNL     1      -3.418  -1.479  23.828  0.00  0.00    +0.119 A 
ATOM     19  C   UNL     1      -3.985  -2.531  24.509  0.00  0.00    +0.046 A 
ATOM     21  C   UNL     1      -1.868  -2.251  25.151  0.00  0.00    +0.131 A 
ATOM     22  C   UNL     1      -2.979  -3.033  25.368  0.00  0.00    +0.047 A 
BRANCH  21  24
ATOM     24  C   UNL     1      -0.512  -2.250  25.719  0.00  0.00    +0.230 C 
BRANCH  24   3
ATOM      3  O   UNL     1      -0.235  -0.990  26.333  0.00  0.00    -0.387 OA
ATOM     32  H   UNL     1       0.733  -0.910  26.391  0.00  0.00    +0.210 HD
ENDBRANCH  24   3
ENDBRANCH  21  24
ENDBRANCH  15  17
ENDBRANCH   5  15
TORSDOF 7
ENDMDL
MODEL 3
REMARK VINA RESULT:       1.3     14.214     15.815
REMARK  Name = 26744940
REMARK  8 active torsions:
REMARK  status: ('A' for Active; 'I' for Inactive)
REMARK    1  A    between atoms: O_3  and  C_24
REMARK    2  A    between atoms: O_4  and  C_29
REMARK    3  A    between atoms: O_4  and  C_30
REMARK    4  A    between atoms: N_5  and  C_15
REMARK    5  A    between atoms: C_10  and  C_16
REMARK    6  A    between atoms: C_15  and  C_17
REMARK    7  A    between atoms: C_20  and  C_23
REMARK    8  A    between atoms: C_21  and  C_24
REMARK                            x       y       z     vdW  Elec       q    Type
REMARK                         _______ _______ _______ _____ _____    ______ ____
ROOT
ATOM      5  N   UNL     1      -4.119   0.652  24.455  0.00  0.00    -0.278 NA
ATOM      6  N   UNL     1      -4.472  -2.936  23.521  0.00  0.00    -0.347 N 
ATOM      7  N   UNL     1      -3.328  -3.316  25.405  0.00  0.00    -0.240 NA
ATOM     10  C   UNL     1      -2.865   0.487  25.251  0.00  0.00    +0.152 C 
ATOM     11  C   UNL     1      -2.826  -0.897  25.992  0.00  0.00    +0.086 C 
ATOM     12  C   UNL     1      -4.354  -0.380  23.423  0.00  0.00    +0.140 C 
ATOM     13  C   UNL     1      -4.104  -1.717  24.003  0.00  0.00    +0.053 A 
ATOM     14  C   UNL     1      -3.401  -1.975  25.153  0.00  0.00    +0.065 A 
ATOM     18  C   UNL     1      -3.981  -3.868  24.401  0.00  0.00    +0.197 A 
ATOM     31  H   UNL     1      -4.998  -3.124  22.678  0.00  0.00    +0.167 HD
ENDROOT
BRANCH  10  16
ATOM      1  O   UNL     1      -1.607   1.864  23.651  0.00  0.00    -0.336 OA
ATOM      8  N   UNL     1      -0.408   0.205  24.560  0.00  0.00    -0.190 NA
ATOM      9  N   UNL     1      -0.326   1.959  23.093  0.00  0.00    -0.056 NA
ATOM     16  C   UNL     1      -1.569   0.807  24.504  0.00  0.00    +0.245 A 
ATOM     20  C   UNL     1       0.323   0.948  23.678  0.00  0.00    +0.202 A 
BRANCH  20  23
ATOM     23  C   UNL     1       1.700   0.652  23.404  0.00  0.00    +0.023 A 
ATOM     25  C   UNL     1       2.165  -0.659  23.503  0.00  0.00    +0.015 A 
ATOM     26  C   UNL     1       2.572   1.677  23.038  0.00  0.00    +0.015 A 
ATOM     27  C   UNL     1       3.504  -0.945  23.237  0.00  0.00    +0.046 A 
ATOM     28  C   UNL     1       3.911   1.391  22.773  0.00  0.00    +0.046 A 
ATOM     29  C   UNL     1       4.377   0.079  22.872  0.00  0.00    +0.120 A 
BRANCH  29   4
ATOM      4  O   UNL     1       5.683  -0.199  22.612  0.00  0.00    -0.495 OA
ATOM     30  C   UNL     1       6.576  -0.224  23.725  0.00  0.00    +0.277 C 
ENDBRANCH  29   4
ENDBRANCH  20  23
ENDBRANCH  10  16
BRANCH   5  15
ATOM     15  C   UNL     1      -4.313   1.996  23.921  0.00  0.00    +0.160 C 
BRANCH  15  17
ATOM      2  O   UNL     1      -2.764   3.804  24.424  0.00  0.00    -0.461 OA
ATOM     17  C   UNL     1      -3.806   3.052  24.866  0.00  0.00    +0.119 A 
ATOM     19  C   UNL     1      -4.181   3.442  26.131  0.00  0.00    +0.046 A 
ATOM     21  C   UNL     1      -2.470   4.682  25.418  0.00  0.00    +0.131 A 
ATOM     22  C   UNL     1      -3.313   4.501  26.489  0.00  0.00    +0.047 A 
BRANCH  21  24
ATOM     24  C   UNL     1      -1.359   5.610  25.157  0.00  0.00    +0.230 C 
BRANCH  24   3
ATOM      3  O   UNL     1      -0.253   4.907  24.585  0.00  0.00    -0.387 OA
ATOM     32  H   UNL     1       0.462   4.922  25.244  0.00  0.00    +0.210 HD
ENDBRANCH  24   3
ENDBRANCH  21  24
ENDBRANCH  15  17
ENDBRANCH   5  15
TORSDOF 7
ENDMDL
