MODEL 1
REMARK VINA RESULT:      -1.6      0.000      0.000
REMARK  Name = 40777899
REMARK  10 active torsions:
REMARK  status: ('A' for Active; 'I' for Inactive)
REMARK    1  A    between atoms: O_3  and  C_12
REMARK    2  A    between atoms: O_4  and  C_13
REMARK    3  A    between atoms: O_5  and  C_22
REMARK    4  A    between atoms: O_5  and  C_24
REMARK    5  A    between atoms: N_9  and  C_21
REMARK    6  A    between atoms: N_10  and  C_25
REMARK    7  A    between atoms: C_11  and  C_16
REMARK    8  A    between atoms: C_14  and  C_21
REMARK    9  A    between atoms: C_15  and  C_22
REMARK   10  A    between atoms: C_16  and  C_20
REMARK                            x       y       z     vdW  Elec       q    Type
REMARK                         _______ _______ _______ _____ _____    ______ ____
ROOT
ATOM      2  O   UNL     1      -3.129   3.773  23.728  0.00  0.00    -0.366 OA
ATOM     11  C   UNL     1      -4.011   2.639  23.815  0.00  0.00    +0.159 C 
ATOM     12  C   UNL     1      -4.052   2.262  25.285  0.00  0.00    +0.175 C 
ATOM     13  C   UNL     1      -3.965   3.620  25.950  0.00  0.00    +0.176 C 
ATOM     14  C   UNL     1      -2.983   4.354  25.044  0.00  0.00    +0.167 C 
ENDROOT
BRANCH  12   3
ATOM      3  O   UNL     1      -5.226   1.551  25.617  0.00  0.00    -0.387 OA
ATOM     31  H   UNL     1      -5.085   0.622  25.368  0.00  0.00    +0.210 HD
ENDBRANCH  12   3
BRANCH  13   4
ATOM      4  O   UNL     1      -5.223   4.290  25.875  0.00  0.00    -0.387 OA
ATOM     32  H   UNL     1      -5.048   5.207  25.602  0.00  0.00    +0.210 HD
ENDBRANCH  13   4
BRANCH  11  16
ATOM     16  C   UNL     1      -3.500   1.524  22.920  0.00  0.00    +0.130 C 
BRANCH  16  20
ATOM      6  O   UNL     1      -1.553   0.912  24.145  0.00  0.00    -0.276 OA
ATOM      8  N   UNL     1      -3.213  -0.686  23.936  0.00  0.00    -0.296 N 
ATOM     15  C   UNL     1      -2.490  -1.766  24.610  0.00  0.00    +0.102 C 
ATOM     17  C   UNL     1      -3.278  -3.023  24.230  0.00  0.00    +0.026 C 
ATOM     18  C   UNL     1      -4.515  -1.140  23.454  0.00  0.00    +0.108 C 
ATOM     19  C   UNL     1      -4.706  -2.513  24.081  0.00  0.00    +0.021 C 
ATOM     20  C   UNL     1      -2.657   0.565  23.722  0.00  0.00    +0.218 C 
BRANCH  15  22
ATOM     22  C   UNL     1      -2.444  -1.549  26.121  0.00  0.00    +0.181 C 
BRANCH  22   5
ATOM      5  O   UNL     1      -1.136  -1.141  26.476  0.00  0.00    -0.381 OA
ATOM     24  C   UNL     1      -0.154  -1.703  25.613  0.00  0.00    +0.194 C 
ENDBRANCH  22   5
ENDBRANCH  15  22
ENDBRANCH  16  20
ENDBRANCH  11  16
BRANCH  14  21
ATOM     21  C   UNL     1      -1.532   4.180  25.472  0.00  0.00    +0.140 C 
BRANCH  21   9
ATOM      7  O   UNL     1       0.505   2.191  25.785  0.00  0.00    -0.253 OA
ATOM      9  N   UNL     1      -0.753   3.580  24.429  0.00  0.00    -0.297 N 
ATOM     10  N   UNL     1       0.824   2.209  23.458  0.00  0.00    -0.269 N 
ATOM     23  C   UNL     1       0.233   2.607  24.661  0.00  0.00    +0.304 C 
ATOM     33  H   UNL     1      -0.933   3.868  23.472  0.00  0.00    +0.150 HD
ATOM     34  H   UNL     1       0.482   2.654  22.611  0.00  0.00    +0.156 HD
BRANCH  10  25
ATOM      1  F   UNL     1       5.485   1.072  23.247  0.00  0.00    -0.205 F 
ATOM     25  C   UNL     1       1.851   1.254  23.272  0.00  0.00    +0.037 A 
ATOM     26  C   UNL     1       3.188   1.642  23.352  0.00  0.00    +0.061 A 
ATOM     27  C   UNL     1       1.526  -0.077  23.009  0.00  0.00    +0.023 A 
ATOM     28  C   UNL     1       4.200   0.700  23.169  0.00  0.00    +0.125 A 
ATOM     29  C   UNL     1       2.538  -1.020  22.826  0.00  0.00    +0.005 A 
ATOM     30  C   UNL     1       3.875  -0.632  22.906  0.00  0.00    +0.038 A 
ENDBRANCH  10  25
ENDBRANCH  21   9
ENDBRANCH  14  21
TORSDOF 9
ENDMDL
MODEL 2
REMARK VINA RESULT:      -1.5      1.932      4.403
REMARK  Name = 40777899
REMARK  10 active torsions:
REMARK  status: ('A' for Active; 'I' for Inactive)
REMARK    1  A    between atoms: O_3  and  C_12
REMARK    2  A    between atoms: O_4  and  C_13
REMARK    3  A    between atoms: O_5  and  C_22
REMARK    4  A    between atoms: O_5  and  C_24
REMARK    5  A    between atoms: N_9  and  C_21
REMARK    6  A    between atoms: N_10  and  C_25
REMARK    7  A    between atoms: C_11  and  C_16
REMARK    8  A    between atoms: C_14  and  C_21
REMARK    9  A    between atoms: C_15  and  C_22
REMARK   10  A    between atoms: C_16  and  C_20
REMARK                            x       y       z     vdW  Elec       q    Type
REMARK                         _______ _______ _______ _____ _____    ______ ____
ROOT
ATOM      2  O   UNL     1      -3.499   0.396  25.593  0.00  0.00    -0.366 OA
ATOM     11  C   UNL     1      -4.688  -0.311  25.198  0.00  0.00    +0.159 C 
ATOM     12  C   UNL     1      -4.308  -1.089  23.950  0.00  0.00    +0.175 C 
ATOM     13  C   UNL     1      -2.873  -1.467  24.254  0.00  0.00    +0.176 C 
ATOM     14  C   UNL     1      -2.355  -0.215  24.953  0.00  0.00    +0.167 C 
ENDROOT
BRANCH  12   3
ATOM      3  O   UNL     1      -5.149  -2.205  23.745  0.00  0.00    -0.387 OA
ATOM     31  H   UNL     1      -4.622  -2.886  23.294  0.00  0.00    +0.210 HD
ENDBRANCH  12   3
BRANCH  13   4
ATOM      4  O   UNL     1      -2.832  -2.545  25.188  0.00  0.00    -0.387 OA
ATOM     32  H   UNL     1      -2.298  -2.252  25.946  0.00  0.00    +0.210 HD
ENDBRANCH  13   4
BRANCH  11  16
ATOM     16  C   UNL     1      -5.819   0.676  24.972  0.00  0.00    +0.130 C 
BRANCH  16  20
ATOM      6  O   UNL     1      -5.795   2.334  26.680  0.00  0.00    -0.276 OA
ATOM      8  N   UNL     1      -4.712   2.843  24.699  0.00  0.00    -0.296 N 
ATOM     15  C   UNL     1      -4.353   4.218  25.055  0.00  0.00    +0.102 C 
ATOM     17  C   UNL     1      -3.963   4.849  23.715  0.00  0.00    +0.026 C 
ATOM     18  C   UNL     1      -4.281   2.517  23.343  0.00  0.00    +0.108 C 
ATOM     19  C   UNL     1      -3.390   3.678  22.927  0.00  0.00    +0.021 C 
ATOM     20  C   UNL     1      -5.449   2.023  25.539  0.00  0.00    +0.218 C 
BRANCH  15  22
ATOM     22  C   UNL     1      -3.207   4.252  26.064  0.00  0.00    +0.181 C 
BRANCH  22   5
ATOM      5  O   UNL     1      -2.125   4.962  25.490  0.00  0.00    -0.381 OA
ATOM     24  C   UNL     1      -0.966   4.146  25.361  0.00  0.00    +0.194 C 
ENDBRANCH  22   5
ENDBRANCH  15  22
ENDBRANCH  16  20
ENDBRANCH  11  16
BRANCH  14  21
ATOM     21  C   UNL     1      -1.762   0.804  23.989  0.00  0.00    +0.140 C 
BRANCH  21   9
ATOM      7  O   UNL     1       0.944   1.233  24.824  0.00  0.00    -0.253 OA
ATOM      9  N   UNL     1      -0.580   0.294  23.360  0.00  0.00    -0.297 N 
ATOM     10  N   UNL     1       1.668  -0.078  23.016  0.00  0.00    -0.269 N 
ATOM     23  C   UNL     1       0.719   0.548  23.829  0.00  0.00    +0.304 C 
ATOM     33  H   UNL     1      -0.691  -0.292  22.537  0.00  0.00    +0.150 HD
ATOM     34  H   UNL     1       1.313  -0.611  22.226  0.00  0.00    +0.156 HD
BRANCH  10  25
ATOM      1  F   UNL     1       5.772  -2.251  24.240  0.00  0.00    -0.205 F 
ATOM     25  C   UNL     1       3.076  -0.062  23.155  0.00  0.00    +0.037 A 
ATOM     26  C   UNL     1       3.742  -1.187  23.639  0.00  0.00    +0.061 A 
ATOM     27  C   UNL     1       3.798   1.080  22.807  0.00  0.00    +0.023 A 
ATOM     28  C   UNL     1       5.131  -1.171  23.775  0.00  0.00    +0.125 A 
ATOM     29  C   UNL     1       5.186   1.096  22.943  0.00  0.00    +0.005 A 
ATOM     30  C   UNL     1       5.852  -0.029  23.427  0.00  0.00    +0.038 A 
ENDBRANCH  10  25
ENDBRANCH  21   9
ENDBRANCH  14  21
TORSDOF 9
ENDMDL
MODEL 3
REMARK VINA RESULT:      -1.2      2.779      5.421
REMARK  Name = 40777899
REMARK  10 active torsions:
REMARK  status: ('A' for Active; 'I' for Inactive)
REMARK    1  A    between atoms: O_3  and  C_12
REMARK    2  A    between atoms: O_4  and  C_13
REMARK    3  A    between atoms: O_5  and  C_22
REMARK    4  A    between atoms: O_5  and  C_24
REMARK    5  A    between atoms: N_9  and  C_21
REMARK    6  A    between atoms: N_10  and  C_25
REMARK    7  A    between atoms: C_11  and  C_16
REMARK    8  A    between atoms: C_14  and  C_21
REMARK    9  A    between atoms: C_15  and  C_22
REMARK   10  A    between atoms: C_16  and  C_20
REMARK                            x       y       z     vdW  Elec       q    Type
REMARK                         _______ _______ _______ _____ _____    ______ ____
ROOT
ATOM      2  O   UNL     1      -2.198   3.823  26.442  0.00  0.00    -0.366 OA
ATOM     11  C   UNL     1      -0.984   3.608  25.701  0.00  0.00    +0.159 C 
ATOM     12  C   UNL     1      -1.247   4.161  24.311  0.00  0.00    +0.175 C 
ATOM     13  C   UNL     1      -2.132   5.351  24.621  0.00  0.00    +0.176 C 
ATOM     14  C   UNL     1      -2.994   4.818  25.760  0.00  0.00    +0.167 C 
ENDROOT
BRANCH  12   3
ATOM      3  O   UNL     1      -0.052   4.511  23.645  0.00  0.00    -0.387 OA
ATOM     31  H   UNL     1      -0.292   5.093  22.905  0.00  0.00    +0.210 HD
ENDBRANCH  12   3
BRANCH  13   4
ATOM      4  O   UNL     1      -1.349   6.432  25.126  0.00  0.00    -0.387 OA
ATOM     32  H   UNL     1      -1.513   7.201  24.555  0.00  0.00    +0.210 HD
ENDBRANCH  13   4
BRANCH  11  16
ATOM     16  C   UNL     1      -0.635   2.130  25.706  0.00  0.00    +0.130 C 
BRANCH  16  20
ATOM      6  O   UNL     1       1.239   2.636  24.329  0.00  0.00    -0.276 OA
ATOM      8  N   UNL     1       0.175   0.614  23.962  0.00  0.00    -0.296 N 
ATOM     15  C   UNL     1       0.981   0.208  22.809  0.00  0.00    +0.102 C 
ATOM     17  C   UNL     1       0.174  -0.933  22.185  0.00  0.00    +0.026 C 
ATOM     18  C   UNL     1      -0.863  -0.370  24.255  0.00  0.00    +0.108 C 
ATOM     19  C   UNL     1      -0.522  -1.569  23.383  0.00  0.00    +0.021 C 
ATOM     20  C   UNL     1       0.349   1.829  24.605  0.00  0.00    +0.218 C 
BRANCH  15  22
ATOM     22  C   UNL     1       2.378  -0.238  23.234  0.00  0.00    +0.181 C 
BRANCH  22   5
ATOM      5  O   UNL     1       3.329   0.600  22.603  0.00  0.00    -0.381 OA
ATOM     24  C   UNL     1       4.626   0.445  23.166  0.00  0.00    +0.194 C 
ENDBRANCH  22   5
ENDBRANCH  15  22
ENDBRANCH  16  20
ENDBRANCH  11  16
BRANCH  14  21
ATOM     21  C   UNL     1      -4.269   4.142  25.275  0.00  0.00    +0.140 C 
BRANCH  21   9
ATOM      7  O   UNL     1      -3.614   1.763  23.820  0.00  0.00    -0.253 OA
ATOM      9  N   UNL     1      -4.355   2.794  25.753  0.00  0.00    -0.297 N 
ATOM     10  N   UNL     1      -4.199   0.495  25.707  0.00  0.00    -0.269 N 
ATOM     23  C   UNL     1      -4.015   1.673  24.978  0.00  0.00    +0.304 C 
ATOM     33  H   UNL     1      -4.669   2.644  26.708  0.00  0.00    +0.150 HD
ATOM     34  H   UNL     1      -4.540   0.596  26.660  0.00  0.00    +0.156 HD
BRANCH  10  25
ATOM      1  F   UNL     1      -4.621  -2.968  22.407  0.00  0.00    -0.205 F 
ATOM     25  C   UNL     1      -3.968  -0.834  25.281  0.00  0.00    +0.037 A 
ATOM     26  C   UNL     1      -4.418  -1.254  24.030  0.00  0.00    +0.061 A 
ATOM     27  C   UNL     1      -3.288  -1.725  26.112  0.00  0.00    +0.023 A 
ATOM     28  C   UNL     1      -4.189  -2.564  23.609  0.00  0.00    +0.125 A 
ATOM     29  C   UNL     1      -3.058  -3.035  25.691  0.00  0.00    +0.005 A 
ATOM     30  C   UNL     1      -3.508  -3.454  24.440  0.00  0.00    +0.038 A 
ENDBRANCH  10  25
ENDBRANCH  21   9
ENDBRANCH  14  21
TORSDOF 9
ENDMDL
MODEL 4
REMARK VINA RESULT:       0.5      1.751      4.190
REMARK  Name = 40777899
REMARK  10 active torsions:
REMARK  status: ('A' for Active; 'I' for Inactive)
REMARK    1  A    between atoms: O_3  and  C_12
REMARK    2  A    between atoms: O_4  and  C_13
REMARK    3  A    between atoms: O_5  and  C_22
REMARK    4  A    between atoms: O_5  and  C_24
REMARK    5  A    between atoms: N_9  and  C_21
REMARK    6  A    between atoms: N_10  and  C_25
REMARK    7  A    between atoms: C_11  and  C_16
REMARK    8  A    between atoms: C_14  and  C_21
REMARK    9  A    between atoms: C_15  and  C_22
REMARK   10  A    between atoms: C_16  and  C_20
REMARK                            x       y       z     vdW  Elec       q    Type
REMARK                         _______ _______ _______ _____ _____    ______ ____
ROOT
ATOM      2  O   UNL     1      -4.418  -0.030  25.749  0.00  0.00    -0.366 OA
ATOM     11  C   UNL     1      -4.640   0.159  24.341  0.00  0.00    +0.159 C 
ATOM     12  C   UNL     1      -3.514  -0.585  23.643  0.00  0.00    +0.175 C 
ATOM     13  C   UNL     1      -3.324  -1.776  24.560  0.00  0.00    +0.176 C 
ATOM     14  C   UNL     1      -3.525  -1.152  25.937  0.00  0.00    +0.167 C 
ENDROOT
BRANCH  12   3
ATOM      3  O   UNL     1      -3.856  -0.947  22.322  0.00  0.00    -0.387 OA
ATOM     31  H   UNL     1      -3.790  -0.146  21.775  0.00  0.00    +0.210 HD
ENDBRANCH  12   3
BRANCH  13   4
ATOM      4  O   UNL     1      -4.362  -2.733  24.352  0.00  0.00    -0.387 OA
ATOM     32  H   UNL     1      -4.035  -3.379  23.703  0.00  0.00    +0.210 HD
ENDBRANCH  13   4
BRANCH  11  16
ATOM     16  C   UNL     1      -4.669   1.643  24.021  0.00  0.00    +0.130 C 
BRANCH  16  20
ATOM      6  O   UNL     1      -4.603   2.454  26.258  0.00  0.00    -0.276 OA
ATOM      8  N   UNL     1      -2.871   3.080  24.857  0.00  0.00    -0.296 N 
ATOM     15  C   UNL     1      -2.195   3.961  25.811  0.00  0.00    +0.102 C 
ATOM     17  C   UNL     1      -1.234   4.772  24.937  0.00  0.00    +0.026 C 
ATOM     18  C   UNL     1      -2.189   3.075  23.566  0.00  0.00    +0.108 C 
ATOM     19  C   UNL     1      -0.879   3.807  23.813  0.00  0.00    +0.021 C 
ATOM     20  C   UNL     1      -4.056   2.426  25.154  0.00  0.00    +0.218 C 
BRANCH  15  22
ATOM     22  C   UNL     1      -1.463   3.163  26.887  0.00  0.00    +0.181 C 
BRANCH  22   5
ATOM      5  O   UNL     1      -0.213   2.750  26.367  0.00  0.00    -0.381 OA
ATOM     24  C   UNL     1       0.689   2.367  27.399  0.00  0.00    +0.194 C 
ENDBRANCH  22   5
ENDBRANCH  15  22
ENDBRANCH  16  20
ENDBRANCH  11  16
BRANCH  14  21
ATOM     21  C   UNL     1      -2.233  -0.623  26.545  0.00  0.00    +0.140 C 
BRANCH  21   9
ATOM      7  O   UNL     1       0.104  -1.517  25.153  0.00  0.00    -0.253 OA
ATOM      9  N   UNL     1      -1.473   0.119  25.583  0.00  0.00    -0.297 N 
ATOM     10  N   UNL     1       0.196   0.557  24.056  0.00  0.00    -0.269 N 
ATOM     23  C   UNL     1      -0.333  -0.388  24.939  0.00  0.00    +0.304 C 
ATOM     33  H   UNL     1      -1.784   1.057  25.348  0.00  0.00    +0.150 HD
ATOM     34  H   UNL     1      -0.288   1.449  23.997  0.00  0.00    +0.156 HD
BRANCH  10  25
ATOM      1  F   UNL     1       4.834   1.421  23.160  0.00  0.00    -0.205 F 
ATOM     25  C   UNL     1       1.335   0.428  23.226  0.00  0.00    +0.037 A 
ATOM     26  C   UNL     1       2.547   1.000  23.610  0.00  0.00    +0.061 A 
ATOM     27  C   UNL     1       1.245  -0.275  22.025  0.00  0.00    +0.023 A 
ATOM     28  C   UNL     1       3.670   0.871  22.792  0.00  0.00    +0.125 A 
ATOM     29  C   UNL     1       2.368  -0.405  21.207  0.00  0.00    +0.005 A 
ATOM     30  C   UNL     1       3.580   0.168  21.591  0.00  0.00    +0.038 A 
ENDBRANCH  10  25
ENDBRANCH  21   9
ENDBRANCH  14  21
TORSDOF 9
ENDMDL
MODEL 5
REMARK VINA RESULT:       1.2      2.692      3.806
REMARK  Name = 40777899
REMARK  10 active torsions:
REMARK  status: ('A' for Active; 'I' for Inactive)
REMARK    1  A    between atoms: O_3  and  C_12
REMARK    2  A    between atoms: O_4  and  C_13
REMARK    3  A    between atoms: O_5  and  C_22
REMARK    4  A    between atoms: O_5  and  C_24
REMARK    5  A    between atoms: N_9  and  C_21
REMARK    6  A    between atoms: N_10  and  C_25
REMARK    7  A    between atoms: C_11  and  C_16
REMARK    8  A    between atoms: C_14  and  C_21
REMARK    9  A    between atoms: C_15  and  C_22
REMARK   10  A    between atoms: C_16  and  C_20
REMARK                            x       y       z     vdW  Elec       q    Type
REMARK                         _______ _______ _______ _____ _____    ______ ____
ROOT
ATOM      2  O   UNL     1      -4.356   2.329  23.441  0.00  0.00    -0.366 OA
ATOM     11  C   UNL     1      -5.073   1.793  24.568  0.00  0.00    +0.159 C 
ATOM     12  C   UNL     1      -4.539   2.531  25.783  0.00  0.00    +0.175 C 
ATOM     13  C   UNL     1      -4.290   3.913  25.214  0.00  0.00    +0.176 C 
ATOM     14  C   UNL     1      -3.763   3.592  23.820  0.00  0.00    +0.167 C 
ENDROOT
BRANCH  12   3
ATOM      3  O   UNL     1      -5.459   2.525  26.854  0.00  0.00    -0.387 OA
ATOM     31  H   UNL     1      -5.739   3.444  27.003  0.00  0.00    +0.210 HD
ENDBRANCH  12   3
BRANCH  13   4
ATOM      4  O   UNL     1      -5.522   4.619  25.071  0.00  0.00    -0.387 OA
ATOM     32  H   UNL     1      -5.617   5.197  25.847  0.00  0.00    +0.210 HD
ENDBRANCH  13   4
BRANCH  11  16
ATOM     16  C   UNL     1      -4.869   0.290  24.637  0.00  0.00    +0.130 C 
BRANCH  16  20
ATOM      6  O   UNL     1      -3.523   0.020  22.693  0.00  0.00    -0.276 OA
ATOM      8  N   UNL     1      -2.573  -0.555  24.723  0.00  0.00    -0.296 N 
ATOM     15  C   UNL     1      -1.310  -1.058  24.179  0.00  0.00    +0.102 C 
ATOM     17  C   UNL     1      -0.699  -1.841  25.345  0.00  0.00    +0.026 C 
ATOM     18  C   UNL     1      -2.621  -0.703  26.175  0.00  0.00    +0.108 C 
ATOM     19  C   UNL     1      -1.207  -1.098  26.574  0.00  0.00    +0.021 C 
ATOM     20  C   UNL     1      -3.601  -0.091  23.918  0.00  0.00    +0.218 C 
BRANCH  15  22
ATOM     22  C   UNL     1      -0.407   0.084  23.716  0.00  0.00    +0.181 C 
BRANCH  22   5
ATOM      5  O   UNL     1       0.836  -0.462  23.316  0.00  0.00    -0.381 OA
ATOM     24  C   UNL     1       1.720   0.541  22.827  0.00  0.00    +0.194 C 
ENDBRANCH  22   5
ENDBRANCH  15  22
ENDBRANCH  16  20
ENDBRANCH  11  16
BRANCH  14  21
ATOM     21  C   UNL     1      -2.250   3.427  23.778  0.00  0.00    +0.140 C 
BRANCH  21   9
ATOM      7  O   UNL     1      -0.195   4.302  25.571  0.00  0.00    -0.253 OA
ATOM      9  N   UNL     1      -1.772   2.734  24.937  0.00  0.00    -0.297 N 
ATOM     10  N   UNL     1      -0.503   2.338  26.820  0.00  0.00    -0.269 N 
ATOM     23  C   UNL     1      -0.757   3.228  25.772  0.00  0.00    +0.304 C 
ATOM     33  H   UNL     1      -2.200   1.843  25.171  0.00  0.00    +0.150 HD
ATOM     34  H   UNL     1      -1.059   1.487  26.841  0.00  0.00    +0.156 HD
BRANCH  10  25
ATOM      1  F   UNL     1       4.027   2.901  28.310  0.00  0.00    -0.205 F 
ATOM     25  C   UNL     1       0.442   2.474  27.864  0.00  0.00    +0.037 A 
ATOM     26  C   UNL     1       1.795   2.622  27.566  0.00  0.00    +0.061 A 
ATOM     27  C   UNL     1       0.017   2.463  29.193  0.00  0.00    +0.023 A 
ATOM     28  C   UNL     1       2.726   2.758  28.596  0.00  0.00    +0.125 A 
ATOM     29  C   UNL     1       0.948   2.599  30.224  0.00  0.00    +0.005 A 
ATOM     30  C   UNL     1       2.302   2.747  29.925  0.00  0.00    +0.038 A 
ENDBRANCH  10  25
ENDBRANCH  21   9
ENDBRANCH  14  21
TORSDOF 9
ENDMDL
MODEL 6
REMARK VINA RESULT:       1.3      1.746      4.675
REMARK  Name = 40777899
REMARK  10 active torsions:
REMARK  status: ('A' for Active; 'I' for Inactive)
REMARK    1  A    between atoms: O_3  and  C_12
REMARK    2  A    between atoms: O_4  and  C_13
REMARK    3  A    between atoms: O_5  and  C_22
REMARK    4  A    between atoms: O_5  and  C_24
REMARK    5  A    between atoms: N_9  and  C_21
REMARK    6  A    between atoms: N_10  and  C_25
REMARK    7  A    between atoms: C_11  and  C_16
REMARK    8  A    between atoms: C_14  and  C_21
REMARK    9  A    between atoms: C_15  and  C_22
REMARK   10  A    between atoms: C_16  and  C_20
REMARK                            x       y       z     vdW  Elec       q    Type
REMARK                         _______ _______ _______ _____ _____    ______ ____
ROOT
ATOM      2  O   UNL     1      -3.843  -0.174  25.486  0.00  0.00    -0.366 OA
ATOM     11  C   UNL     1      -3.949  -0.400  24.070  0.00  0.00    +0.159 C 
ATOM     12  C   UNL     1      -3.126  -1.645  23.789  0.00  0.00    +0.175 C 
ATOM     13  C   UNL     1      -3.378  -2.463  25.039  0.00  0.00    +0.176 C 
ATOM     14  C   UNL     1      -3.392  -1.390  26.123  0.00  0.00    +0.167 C 
ENDROOT
BRANCH  12   3
ATOM      3  O   UNL     1      -3.535  -2.295  22.604  0.00  0.00    -0.387 OA
ATOM     31  H   UNL     1      -3.025  -3.119  22.533  0.00  0.00    +0.210 HD
ENDBRANCH  12   3
BRANCH  13   4
ATOM      4  O   UNL     1      -4.674  -3.058  24.989  0.00  0.00    -0.387 OA
ATOM     32  H   UNL     1      -4.653  -3.848  25.556  0.00  0.00    +0.210 HD
ENDBRANCH  13   4
BRANCH  11  16
ATOM     16  C   UNL     1      -3.463   0.826  23.317  0.00  0.00    +0.130 C 
BRANCH  16  20
ATOM      6  O   UNL     1      -5.147   2.292  24.142  0.00  0.00    -0.276 OA
ATOM      8  N   UNL     1      -2.945   2.928  24.462  0.00  0.00    -0.296 N 
ATOM     15  C   UNL     1      -3.235   4.229  25.067  0.00  0.00    +0.102 C 
ATOM     17  C   UNL     1      -1.895   4.968  24.997  0.00  0.00    +0.026 C 
ATOM     18  C   UNL     1      -1.507   2.715  24.325  0.00  0.00    +0.108 C 
ATOM     19  C   UNL     1      -0.868   3.848  25.113  0.00  0.00    +0.021 C 
ATOM     20  C   UNL     1      -3.941   2.078  24.008  0.00  0.00    +0.218 C 
BRANCH  15  22
ATOM     22  C   UNL     1      -3.736   4.079  26.502  0.00  0.00    +0.181 C 
BRANCH  22   5
ATOM      5  O   UNL     1      -5.122   3.795  26.466  0.00  0.00    -0.381 OA
ATOM     24  C   UNL     1      -5.838   4.753  25.694  0.00  0.00    +0.194 C 
ENDBRANCH  22   5
ENDBRANCH  15  22
ENDBRANCH  16  20
ENDBRANCH  11  16
BRANCH  14  21
ATOM     21  C   UNL     1      -2.014  -1.124  26.714  0.00  0.00    +0.140 C 
BRANCH  21   9
ATOM      7  O   UNL     1       0.120  -1.896  24.967  0.00  0.00    -0.253 OA
ATOM      9  N   UNL     1      -1.245  -0.261  25.867  0.00  0.00    -0.297 N 
ATOM     10  N   UNL     1       0.357   0.351  24.328  0.00  0.00    -0.269 N 
ATOM     23  C   UNL     1      -0.210  -0.714  25.034  0.00  0.00    +0.304 C 
ATOM     33  H   UNL     1      -1.471   0.730  25.863  0.00  0.00    +0.150 HD
ATOM     34  H   UNL     1      -0.034   1.273  24.500  0.00  0.00    +0.156 HD
BRANCH  10  25
ATOM      1  F   UNL     1       4.902   1.318  23.116  0.00  0.00    -0.205 F 
ATOM     25  C   UNL     1       1.419   0.305  23.394  0.00  0.00    +0.037 A 
ATOM     26  C   UNL     1       2.661   0.846  23.722  0.00  0.00    +0.061 A 
ATOM     27  C   UNL     1       1.223  -0.284  22.144  0.00  0.00    +0.023 A 
ATOM     28  C   UNL     1       3.708   0.798  22.802  0.00  0.00    +0.125 A 
ATOM     29  C   UNL     1       2.270  -0.331  21.223  0.00  0.00    +0.005 A 
ATOM     30  C   UNL     1       3.512   0.210  21.552  0.00  0.00    +0.038 A 
ENDBRANCH  10  25
ENDBRANCH  21   9
ENDBRANCH  14  21
TORSDOF 9
ENDMDL
MODEL 7
REMARK VINA RESULT:       1.4      1.957      4.659
REMARK  Name = 40777899
REMARK  10 active torsions:
REMARK  status: ('A' for Active; 'I' for Inactive)
REMARK    1  A    between atoms: O_3  and  C_12
REMARK    2  A    between atoms: O_4  and  C_13
REMARK    3  A    between atoms: O_5  and  C_22
REMARK    4  A    between atoms: O_5  and  C_24
REMARK    5  A    between atoms: N_9  and  C_21
REMARK    6  A    between atoms: N_10  and  C_25
REMARK    7  A    between atoms: C_11  and  C_16
REMARK    8  A    between atoms: C_14  and  C_21
REMARK    9  A    between atoms: C_15  and  C_22
REMARK   10  A    between atoms: C_16  and  C_20
REMARK                            x       y       z     vdW  Elec       q    Type
REMARK                         _______ _______ _______ _____ _____    ______ ____
ROOT
ATOM      2  O   UNL     1      -3.913  -1.334  25.927  0.00  0.00    -0.366 OA
ATOM     11  C   UNL     1      -4.346  -0.261  25.073  0.00  0.00    +0.159 C 
ATOM     12  C   UNL     1      -3.587  -0.440  23.770  0.00  0.00    +0.175 C 
ATOM     13  C   UNL     1      -3.520  -1.950  23.664  0.00  0.00    +0.176 C 
ATOM     14  C   UNL     1      -3.300  -2.361  25.115  0.00  0.00    +0.167 C 
ENDROOT
BRANCH  12   3
ATOM      3  O   UNL     1      -4.250   0.168  22.682  0.00  0.00    -0.387 OA
ATOM     31  H   UNL     1      -4.704   0.957  23.022  0.00  0.00    +0.210 HD
ENDBRANCH  12   3
BRANCH  13   4
ATOM      4  O   UNL     1      -4.779  -2.473  23.241  0.00  0.00    -0.387 OA
ATOM     32  H   UNL     1      -5.342  -2.546  24.031  0.00  0.00    +0.210 HD
ENDBRANCH  13   4
BRANCH  11  16
ATOM     16  C   UNL     1      -4.076   1.072  25.749  0.00  0.00    +0.130 C 
BRANCH  16  20
ATOM      6  O   UNL     1      -4.107   2.577  23.905  0.00  0.00    -0.276 OA
ATOM      8  N   UNL     1      -2.068   2.214  24.937  0.00  0.00    -0.296 N 
ATOM     15  C   UNL     1      -1.269   3.028  24.018  0.00  0.00    +0.102 C 
ATOM     17  C   UNL     1       0.171   2.600  24.313  0.00  0.00    +0.026 C 
ATOM     18  C   UNL     1      -1.228   1.581  25.950  0.00  0.00    +0.108 C 
ATOM     19  C   UNL     1       0.135   2.236  25.792  0.00  0.00    +0.021 C 
ATOM     20  C   UNL     1      -3.430   2.023  24.773  0.00  0.00    +0.218 C 
BRANCH  15  22
ATOM     22  C   UNL     1      -1.489   4.520  24.259  0.00  0.00    +0.181 C 
BRANCH  22   5
ATOM      5  O   UNL     1      -1.578   4.741  25.654  0.00  0.00    -0.381 OA
ATOM     24  C   UNL     1      -2.918   4.981  26.067  0.00  0.00    +0.194 C 
ENDBRANCH  22   5
ENDBRANCH  15  22
ENDBRANCH  16  20
ENDBRANCH  11  16
BRANCH  14  21
ATOM     21  C   UNL     1      -1.827  -2.438  25.495  0.00  0.00    +0.140 C 
BRANCH  21   9
ATOM      7  O   UNL     1       1.033  -2.289  25.441  0.00  0.00    -0.253 OA
ATOM      9  N   UNL     1      -1.028  -1.608  24.642  0.00  0.00    -0.297 N 
ATOM     10  N   UNL     1       0.878  -0.687  23.732  0.00  0.00    -0.269 N 
ATOM     23  C   UNL     1       0.376  -1.589  24.673  0.00  0.00    +0.304 C 
ATOM     33  H   UNL     1      -1.505  -1.011  23.973  0.00  0.00    +0.150 HD
ATOM     34  H   UNL     1       0.195  -0.183  23.172  0.00  0.00    +0.156 HD
BRANCH  10  25
ATOM      1  F   UNL     1       5.551  -1.731  24.096  0.00  0.00    -0.205 F 
ATOM     25  C   UNL     1       2.232  -0.383  23.457  0.00  0.00    +0.037 A 
ATOM     26  C   UNL     1       3.243  -1.223  23.922  0.00  0.00    +0.061 A 
ATOM     27  C   UNL     1       2.555   0.756  22.720  0.00  0.00    +0.023 A 
ATOM     28  C   UNL     1       4.579  -0.924  23.650  0.00  0.00    +0.125 A 
ATOM     29  C   UNL     1       3.891   1.055  22.448  0.00  0.00    +0.005 A 
ATOM     30  C   UNL     1       4.902   0.215  22.912  0.00  0.00    +0.038 A 
ENDBRANCH  10  25
ENDBRANCH  21   9
ENDBRANCH  14  21
TORSDOF 9
ENDMDL
MODEL 8
REMARK VINA RESULT:       1.9      1.811      4.325
REMARK  Name = 40777899
REMARK  10 active torsions:
REMARK  status: ('A' for Active; 'I' for Inactive)
REMARK    1  A    between atoms: O_3  and  C_12
REMARK    2  A    between atoms: O_4  and  C_13
REMARK    3  A    between atoms: O_5  and  C_22
REMARK    4  A    between atoms: O_5  and  C_24
REMARK    5  A    between atoms: N_9  and  C_21
REMARK    6  A    between atoms: N_10  and  C_25
REMARK    7  A    between atoms: C_11  and  C_16
REMARK    8  A    between atoms: C_14  and  C_21
REMARK    9  A    between atoms: C_15  and  C_22
REMARK   10  A    between atoms: C_16  and  C_20
REMARK                            x       y       z     vdW  Elec       q    Type
REMARK                         _______ _______ _______ _____ _____    ______ ____
ROOT
ATOM      2  O   UNL     1      -3.932  -0.677  25.432  0.00  0.00    -0.366 OA
ATOM     11  C   UNL     1      -3.885  -1.209  24.096  0.00  0.00    +0.159 C 
ATOM     12  C   UNL     1      -2.764  -2.234  24.100  0.00  0.00    +0.175 C 
ATOM     13  C   UNL     1      -2.889  -2.814  25.494  0.00  0.00    +0.176 C 
ATOM     14  C   UNL     1      -3.237  -1.581  26.321  0.00  0.00    +0.167 C 
ENDROOT
BRANCH  12   3
ATOM      3  O   UNL     1      -2.922  -3.195  23.078  0.00  0.00    -0.387 OA
ATOM     31  H   UNL     1      -2.041  -3.556  22.880  0.00  0.00    +0.210 HD
ENDBRANCH  12   3
BRANCH  13   4
ATOM      4  O   UNL     1      -3.992  -3.717  25.558  0.00  0.00    -0.387 OA
ATOM     32  H   UNL     1      -4.732  -3.304  25.081  0.00  0.00    +0.210 HD
ENDBRANCH  13   4
BRANCH  11  16
ATOM     16  C   UNL     1      -3.667  -0.081  23.104  0.00  0.00    +0.130 C 
BRANCH  16  20
ATOM      6  O   UNL     1      -2.047   1.529  23.771  0.00  0.00    -0.276 OA
ATOM      8  N   UNL     1      -4.211   1.834  24.529  0.00  0.00    -0.296 N 
ATOM     15  C   UNL     1      -3.932   3.004  25.364  0.00  0.00    +0.102 C 
ATOM     17  C   UNL     1      -5.173   3.120  26.254  0.00  0.00    +0.026 C 
ATOM     18  C   UNL     1      -5.614   1.438  24.624  0.00  0.00    +0.108 C 
ATOM     19  C   UNL     1      -6.291   2.576  25.373  0.00  0.00    +0.021 C 
ATOM     20  C   UNL     1      -3.222   1.164  23.828  0.00  0.00    +0.218 C 
BRANCH  15  22
ATOM     22  C   UNL     1      -3.711   4.255  24.517  0.00  0.00    +0.181 C 
BRANCH  22   5
ATOM      5  O   UNL     1      -2.582   4.944  25.021  0.00  0.00    -0.381 OA
ATOM     24  C   UNL     1      -1.645   4.057  25.620  0.00  0.00    +0.194 C 
ENDBRANCH  22   5
ENDBRANCH  15  22
ENDBRANCH  16  20
ENDBRANCH  11  16
BRANCH  14  21
ATOM     21  C   UNL     1      -2.010  -0.857  26.857  0.00  0.00    +0.140 C 
BRANCH  21   9
ATOM      7  O   UNL     1       0.296  -1.645  25.351  0.00  0.00    -0.253 OA
ATOM      9  N   UNL     1      -1.362  -0.103  25.825  0.00  0.00    -0.297 N 
ATOM     10  N   UNL     1       0.178   0.389  24.183  0.00  0.00    -0.269 N 
ATOM     23  C   UNL     1      -0.230  -0.557  25.128  0.00  0.00    +0.304 C 
ATOM     33  H   UNL     1      -1.750   0.803  25.579  0.00  0.00    +0.150 HD
ATOM     34  H   UNL     1      -0.369   1.243  24.125  0.00  0.00    +0.156 HD
BRANCH  10  25
ATOM      1  F   UNL     1       4.748   1.354  23.064  0.00  0.00    -0.205 F 
ATOM     25  C   UNL     1       1.271   0.304  23.288  0.00  0.00    +0.037 A 
ATOM     26  C   UNL     1       2.494   0.883  23.624  0.00  0.00    +0.061 A 
ATOM     27  C   UNL     1       1.125  -0.360  22.070  0.00  0.00    +0.023 A 
ATOM     28  C   UNL     1       3.572   0.798  22.742  0.00  0.00    +0.125 A 
ATOM     29  C   UNL     1       2.203  -0.445  21.188  0.00  0.00    +0.005 A 
ATOM     30  C   UNL     1       3.426   0.134  21.524  0.00  0.00    +0.038 A 
ENDBRANCH  10  25
ENDBRANCH  21   9
ENDBRANCH  14  21
TORSDOF 9
ENDMDL
MODEL 9
REMARK VINA RESULT:       2.2      3.146      6.873
REMARK  Name = 40777899
REMARK  10 active torsions:
REMARK  status: ('A' for Active; 'I' for Inactive)
REMARK    1  A    between atoms: O_3  and  C_12
REMARK    2  A    between atoms: O_4  and  C_13
REMARK    3  A    between atoms: O_5  and  C_22
REMARK    4  A    between atoms: O_5  and  C_24
REMARK    5  A    between atoms: N_9  and  C_21
REMARK    6  A    between atoms: N_10  and  C_25
REMARK    7  A    between atoms: C_11  and  C_16
REMARK    8  A    between atoms: C_14  and  C_21
REMARK    9  A    between atoms: C_15  and  C_22
REMARK   10  A    between atoms: C_16  and  C_20
REMARK                            x       y       z     vdW  Elec       q    Type
REMARK                         _______ _______ _______ _____ _____    ______ ____
ROOT
ATOM      2  O   UNL     1      -1.583  -2.213  23.390  0.00  0.00    -0.366 OA
ATOM     11  C   UNL     1      -0.632  -1.407  24.109  0.00  0.00    +0.159 C 
ATOM     12  C   UNL     1      -0.819  -1.759  25.574  0.00  0.00    +0.175 C 
ATOM     13  C   UNL     1      -1.144  -3.237  25.492  0.00  0.00    +0.176 C 
ATOM     14  C   UNL     1      -2.011  -3.301  24.240  0.00  0.00    +0.167 C 
ENDROOT
BRANCH  12   3
ATOM      3  O   UNL     1       0.337  -1.483  26.337  0.00  0.00    -0.387 OA
ATOM     31  H   UNL     1       1.068  -1.995  25.954  0.00  0.00    +0.210 HD
ENDBRANCH  12   3
BRANCH  13   4
ATOM      4  O   UNL     1       0.042  -3.992  25.249  0.00  0.00    -0.387 OA
ATOM     32  H   UNL     1      -0.225  -4.819  24.812  0.00  0.00    +0.210 HD
ENDBRANCH  13   4
BRANCH  11  16
ATOM     16  C   UNL     1      -0.874   0.061  23.807  0.00  0.00    +0.130 C 
BRANCH  16  20
ATOM      6  O   UNL     1      -1.003   0.293  26.172  0.00  0.00    -0.276 OA
ATOM      8  N   UNL     1      -0.696   2.226  24.938  0.00  0.00    -0.296 N 
ATOM     15  C   UNL     1      -0.760   3.156  26.067  0.00  0.00    +0.102 C 
ATOM     17  C   UNL     1      -0.963   4.521  25.401  0.00  0.00    +0.026 C 
ATOM     18  C   UNL     1      -0.531   2.938  23.673  0.00  0.00    +0.108 C 
ATOM     19  C   UNL     1      -0.234   4.376  24.071  0.00  0.00    +0.021 C 
ATOM     20  C   UNL     1      -0.867   0.859  25.086  0.00  0.00    +0.218 C 
BRANCH  15  22
ATOM     22  C   UNL     1       0.515   3.107  26.905  0.00  0.00    +0.181 C 
BRANCH  22   5
ATOM      5  O   UNL     1       0.234   2.416  28.108  0.00  0.00    -0.381 OA
ATOM     24  C   UNL     1       1.319   2.492  29.026  0.00  0.00    +0.194 C 
ENDBRANCH  22   5
ENDBRANCH  15  22
ENDBRANCH  16  20
ENDBRANCH  11  16
BRANCH  14  21
ATOM     21  C   UNL     1      -3.493  -3.109  24.531  0.00  0.00    +0.140 C 
BRANCH  21   9
ATOM      7  O   UNL     1      -3.852  -0.723  26.075  0.00  0.00    -0.253 OA
ATOM      9  N   UNL     1      -3.955  -1.840  24.052  0.00  0.00    -0.297 N 
ATOM     10  N   UNL     1      -4.571   0.379  24.131  0.00  0.00    -0.269 N 
ATOM     23  C   UNL     1      -4.106  -0.710  24.873  0.00  0.00    +0.304 C 
ATOM     33  H   UNL     1      -4.174  -1.753  23.064  0.00  0.00    +0.150 HD
ATOM     34  H   UNL     1      -4.733   0.222  23.140  0.00  0.00    +0.156 HD
BRANCH  10  25
ATOM      1  F   UNL     1      -3.721   5.105  24.051  0.00  0.00    -0.205 F 
ATOM     25  C   UNL     1      -4.848   1.688  24.592  0.00  0.00    +0.037 A 
ATOM     26  C   UNL     1      -4.133   2.772  24.084  0.00  0.00    +0.061 A 
ATOM     27  C   UNL     1      -5.838   1.894  25.554  0.00  0.00    +0.023 A 
ATOM     28  C   UNL     1      -4.407   4.063  24.538  0.00  0.00    +0.125 A 
ATOM     29  C   UNL     1      -6.112   3.184  26.007  0.00  0.00    +0.005 A 
ATOM     30  C   UNL     1      -5.397   4.268  25.500  0.00  0.00    +0.038 A 
ENDBRANCH  10  25
ENDBRANCH  21   9
ENDBRANCH  14  21
TORSDOF 9
ENDMDL
MODEL 10
REMARK VINA RESULT:       2.3      2.597      6.837
REMARK  Name = 40777899
REMARK  10 active torsions:
REMARK  status: ('A' for Active; 'I' for Inactive)
REMARK    1  A    between atoms: O_3  and  C_12
REMARK    2  A    between atoms: O_4  and  C_13
REMARK    3  A    between atoms: O_5  and  C_22
REMARK    4  A    between atoms: O_5  and  C_24
REMARK    5  A    between atoms: N_9  and  C_21
REMARK    6  A    between atoms: N_10  and  C_25
REMARK    7  A    between atoms: C_11  and  C_16
REMARK    8  A    between atoms: C_14  and  C_21
REMARK    9  A    between atoms: C_15  and  C_22
REMARK   10  A    between atoms: C_16  and  C_20
REMARK                            x       y       z     vdW  Elec       q    Type
REMARK                         _______ _______ _______ _____ _____    ______ ____
ROOT
ATOM      2  O   UNL     1      -1.368  -1.817  23.352  0.00  0.00    -0.366 OA
ATOM     11  C   UNL     1      -0.578  -1.013  24.246  0.00  0.00    +0.159 C 
ATOM     12  C   UNL     1      -1.140  -1.270  25.634  0.00  0.00    +0.175 C 
ATOM     13  C   UNL     1      -1.521  -2.733  25.541  0.00  0.00    +0.176 C 
ATOM     14  C   UNL     1      -2.056  -2.833  24.117  0.00  0.00    +0.167 C 
ENDROOT
BRANCH  12   3
ATOM      3  O   UNL     1      -0.194  -1.001  26.646  0.00  0.00    -0.387 OA
ATOM     31  H   UNL     1       0.082  -1.854  27.021  0.00  0.00    +0.210 HD
ENDBRANCH  12   3
BRANCH  13   4
ATOM      4  O   UNL     1      -0.357  -3.554  25.636  0.00  0.00    -0.387 OA
ATOM     32  H   UNL     1       0.380  -2.982  25.910  0.00  0.00    +0.210 HD
ENDBRANCH  13   4
BRANCH  11  16
ATOM     16  C   UNL     1      -0.652   0.444  23.825  0.00  0.00    +0.130 C 
BRANCH  16  20
ATOM      6  O   UNL     1       0.912   1.930  24.829  0.00  0.00    -0.276 OA
ATOM      8  N   UNL     1       1.658   0.659  23.045  0.00  0.00    -0.296 N 
ATOM     15  C   UNL     1       2.997   1.249  22.969  0.00  0.00    +0.102 C 
ATOM     17  C   UNL     1       3.511   0.805  21.597  0.00  0.00    +0.026 C 
ATOM     18  C   UNL     1       1.457  -0.335  21.995  0.00  0.00    +0.108 C 
ATOM     19  C   UNL     1       2.835  -0.545  21.387  0.00  0.00    +0.021 C 
ATOM     20  C   UNL     1       0.705   1.087  23.955  0.00  0.00    +0.218 C 
BRANCH  15  22
ATOM     22  C   UNL     1       3.889   0.758  24.106  0.00  0.00    +0.181 C 
BRANCH  22   5
ATOM      5  O   UNL     1       5.188   0.530  23.592  0.00  0.00    -0.381 OA
ATOM     24  C   UNL     1       5.735  -0.695  24.064  0.00  0.00    +0.194 C 
ENDBRANCH  22   5
ENDBRANCH  15  22
ENDBRANCH  16  20
ENDBRANCH  11  16
BRANCH  14  21
ATOM     21  C   UNL     1      -3.550  -2.557  24.021  0.00  0.00    +0.140 C 
BRANCH  21   9
ATOM      7  O   UNL     1      -3.841  -0.400  25.883  0.00  0.00    -0.253 OA
ATOM      9  N   UNL     1      -3.804  -1.182  23.707  0.00  0.00    -0.297 N 
ATOM     10  N   UNL     1      -4.178   1.061  24.076  0.00  0.00    -0.269 N 
ATOM     23  C   UNL     1      -3.935  -0.177  24.678  0.00  0.00    +0.304 C 
ATOM     33  H   UNL     1      -3.882  -0.922  22.728  0.00  0.00    +0.150 HD
ATOM     34  H   UNL     1      -4.227   1.074  23.061  0.00  0.00    +0.156 HD
BRANCH  10  25
ATOM      1  F   UNL     1      -2.401   5.133  25.901  0.00  0.00    -0.205 F 
ATOM     25  C   UNL     1      -4.367   2.312  24.711  0.00  0.00    +0.037 A 
ATOM     26  C   UNL     1      -3.268   3.121  25.000  0.00  0.00    +0.061 A 
ATOM     27  C   UNL     1      -5.653   2.736  25.046  0.00  0.00    +0.023 A 
ATOM     28  C   UNL     1      -3.455   4.355  25.624  0.00  0.00    +0.125 A 
ATOM     29  C   UNL     1      -5.840   3.970  25.670  0.00  0.00    +0.005 A 
ATOM     30  C   UNL     1      -4.742   4.779  25.959  0.00  0.00    +0.038 A 
ENDBRANCH  10  25
ENDBRANCH  21   9
ENDBRANCH  14  21
TORSDOF 9
ENDMDL
