MODEL 1
REMARK VINA RESULT:       2.4      0.000      0.000
REMARK  Name = 51138051
REMARK  9 active torsions:
REMARK  status: ('A' for Active; 'I' for Inactive)
REMARK    1  A    between atoms: N_3  and  C_19
REMARK    2  A    between atoms: N_4  and  C_24
REMARK    3  A    between atoms: C_6  and  C_10
REMARK    4  A    between atoms: C_9  and  C_18
REMARK    5  A    between atoms: C_10  and  C_14
REMARK    6  A    between atoms: C_14  and  C_21
REMARK    7  A    between atoms: C_14  and  C_22
REMARK    8  A    between atoms: C_19  and  C_23
REMARK    9  A    between atoms: C_24  and  C_29
REMARK                            x       y       z     vdW  Elec       q    Type
REMARK                         _______ _______ _______ _____ _____    ______ ____
ROOT
ATOM      2  N   UNL     1      -3.259   2.167  24.989  0.00  0.00    -0.299 NA
ATOM      3  N   UNL     1       0.698  -0.548  23.417  0.00  0.00    -0.342 N 
ATOM      6  C   UNL     1      -3.524   0.788  25.423  0.00  0.00    +0.085 C 
ATOM      7  C   UNL     1      -2.550  -0.275  24.906  0.00  0.00    -0.021 A 
ATOM      8  C   UNL     1      -1.266  -0.010  24.348  0.00  0.00    +0.008 A 
ATOM      9  C   UNL     1      -1.999   2.722  25.462  0.00  0.00    +0.145 C 
ATOM     11  C   UNL     1      -0.508   1.189  24.108  0.00  0.00    -0.020 A 
ATOM     12  C   UNL     1      -0.900   2.596  24.408  0.00  0.00    +0.065 C 
ATOM     13  C   UNL     1      -0.465  -1.076  23.923  0.00  0.00    +0.050 A 
ATOM     15  C   UNL     1       0.687   0.811  23.529  0.00  0.00    +0.091 A 
ATOM     16  C   UNL     1      -2.898  -1.642  25.052  0.00  0.00    +0.006 A 
ATOM     17  C   UNL     1      -0.845  -2.414  24.034  0.00  0.00    +0.026 A 
ATOM     20  C   UNL     1      -2.076  -2.681  24.621  0.00  0.00    +0.002 A 
ATOM     31  H   UNL     1      -3.342   2.252  23.976  0.00  0.00    +0.123 HD
ENDROOT
BRANCH   9  18
ATOM      1  O   UNL     1      -3.145   4.541  26.497  0.00  0.00    -0.274 OA
ATOM      4  N   UNL     1      -1.472   5.000  24.945  0.00  0.00    -0.303 N 
ATOM     18  C   UNL     1      -2.277   4.173  25.710  0.00  0.00    +0.231 C 
ATOM     32  H   UNL     1      -0.766   4.588  24.341  0.00  0.00    +0.150 HD
BRANCH   4  24
ATOM     24  C   UNL     1      -1.557   6.442  24.982  0.00  0.00    +0.193 C 
BRANCH  24  29
ATOM     29  C   UNL     1      -2.366   6.951  23.877  0.00  0.00    -0.087 C 
ATOM     30  C   UNL     1      -3.032   7.367  22.967  0.00  0.00    +0.005 C 
ENDBRANCH  24  29
ENDBRANCH   4  24
ENDBRANCH   9  18
BRANCH   6  10
ATOM     10  C   UNL     1      -4.976   0.518  24.994  0.00  0.00    +0.026 C 
BRANCH  10  14
ATOM     14  C   UNL     1      -5.869   1.759  25.083  0.00  0.00    -0.015 C 
ATOM     21  C   UNL     1      -7.136   1.636  24.236  0.00  0.00    +0.007 C 
ATOM     22  C   UNL     1      -6.247   2.006  26.545  0.00  0.00    +0.007 C 
ENDBRANCH  10  14
ENDBRANCH   6  10
BRANCH   3  19
ATOM     19  C   UNL     1       1.797  -1.308  22.861  0.00  0.00    +0.157 C 
BRANCH  19  23
ATOM      5  N   UNL     1       5.650   0.444  23.640  0.00  0.00    -0.263 NA
ATOM     23  C   UNL     1       3.148  -0.695  23.133  0.00  0.00    -0.025 A 
ATOM     25  C   UNL     1       4.114  -1.413  23.829  0.00  0.00    +0.025 A 
ATOM     26  C   UNL     1       3.432   0.593  22.689  0.00  0.00    +0.025 A 
ATOM     27  C   UNL     1       5.339  -0.804  24.055  0.00  0.00    +0.111 A 
ATOM     28  C   UNL     1       4.686   1.112  22.965  0.00  0.00    +0.111 A 
ENDBRANCH  19  23
ENDBRANCH   3  19
TORSDOF 7
ENDMDL
MODEL 2
REMARK VINA RESULT:       2.6      1.710      2.227
REMARK  Name = 51138051
REMARK  9 active torsions:
REMARK  status: ('A' for Active; 'I' for Inactive)
REMARK    1  A    between atoms: N_3  and  C_19
REMARK    2  A    between atoms: N_4  and  C_24
REMARK    3  A    between atoms: C_6  and  C_10
REMARK    4  A    between atoms: C_9  and  C_18
REMARK    5  A    between atoms: C_10  and  C_14
REMARK    6  A    between atoms: C_14  and  C_21
REMARK    7  A    between atoms: C_14  and  C_22
REMARK    8  A    between atoms: C_19  and  C_23
REMARK    9  A    between atoms: C_24  and  C_29
REMARK                            x       y       z     vdW  Elec       q    Type
REMARK                         _______ _______ _______ _____ _____    ______ ____
ROOT
ATOM      2  N   UNL     1      -3.052   1.285  25.257  0.00  0.00    -0.299 NA
ATOM      3  N   UNL     1       1.240   0.033  22.909  0.00  0.00    -0.342 N 
ATOM      6  C   UNL     1      -2.605   0.032  25.883  0.00  0.00    +0.085 C 
ATOM      7  C   UNL     1      -1.410  -0.658  25.220  0.00  0.00    -0.021 A 
ATOM      8  C   UNL     1      -0.514  -0.043  24.299  0.00  0.00    +0.008 A 
ATOM      9  C   UNL     1      -2.077   2.366  25.297  0.00  0.00    +0.145 C 
ATOM     11  C   UNL     1      -0.408   1.277  23.737  0.00  0.00    -0.020 A 
ATOM     12  C   UNL     1      -1.285   2.455  23.994  0.00  0.00    +0.065 C 
ATOM     13  C   UNL     1       0.551  -0.783  23.773  0.00  0.00    +0.050 A 
ATOM     15  C   UNL     1       0.677   1.275  22.884  0.00  0.00    +0.091 A 
ATOM     16  C   UNL     1      -1.103  -1.992  25.594  0.00  0.00    +0.006 A 
ATOM     17  C   UNL     1       0.808  -2.111  24.119  0.00  0.00    +0.026 A 
ATOM     20  C   UNL     1      -0.033  -2.701  25.054  0.00  0.00    +0.002 A 
ATOM     31  H   UNL     1      -3.380   1.120  24.306  0.00  0.00    +0.123 HD
ENDROOT
BRANCH   9  18
ATOM      1  O   UNL     1      -2.888   4.246  26.522  0.00  0.00    -0.274 OA
ATOM      4  N   UNL     1      -3.609   3.932  24.331  0.00  0.00    -0.303 N 
ATOM     18  C   UNL     1      -2.884   3.616  25.468  0.00  0.00    +0.231 C 
ATOM     32  H   UNL     1      -3.513   3.353  23.502  0.00  0.00    +0.150 HD
BRANCH   4  24
ATOM     24  C   UNL     1      -4.483   5.079  24.244  0.00  0.00    +0.193 C 
BRANCH  24  29
ATOM     29  C   UNL     1      -5.634   4.934  25.135  0.00  0.00    -0.087 C 
ATOM     30  C   UNL     1      -6.578   4.811  25.868  0.00  0.00    +0.005 C 
ENDBRANCH  24  29
ENDBRANCH   4  24
ENDBRANCH   9  18
BRANCH   6  10
ATOM     10  C   UNL     1      -3.861  -0.857  25.911  0.00  0.00    +0.026 C 
BRANCH  10  14
ATOM     14  C   UNL     1      -4.397  -1.181  24.513  0.00  0.00    -0.015 C 
ATOM     21  C   UNL     1      -3.867  -0.225  23.443  0.00  0.00    +0.007 C 
ATOM     22  C   UNL     1      -4.025  -2.620  24.150  0.00  0.00    +0.007 C 
ENDBRANCH  10  14
ENDBRANCH   6  10
BRANCH   3  19
ATOM     19  C   UNL     1       2.409  -0.345  22.143  0.00  0.00    +0.157 C 
BRANCH  19  23
ATOM      5  N   UNL     1       6.069  -0.129  24.396  0.00  0.00    -0.263 NA
ATOM     23  C   UNL     1       3.692  -0.270  22.932  0.00  0.00    -0.025 A 
ATOM     25  C   UNL     1       4.155  -1.386  23.620  0.00  0.00    +0.025 A 
ATOM     26  C   UNL     1       4.417   0.917  22.975  0.00  0.00    +0.025 A 
ATOM     27  C   UNL     1       5.339  -1.265  24.331  0.00  0.00    +0.111 A 
ATOM     28  C   UNL     1       5.588   0.935  23.714  0.00  0.00    +0.111 A 
ENDBRANCH  19  23
ENDBRANCH   3  19
TORSDOF 7
ENDMDL
MODEL 3
REMARK VINA RESULT:       3.3      2.343      7.342
REMARK  Name = 51138051
REMARK  9 active torsions:
REMARK  status: ('A' for Active; 'I' for Inactive)
REMARK    1  A    between atoms: N_3  and  C_19
REMARK    2  A    between atoms: N_4  and  C_24
REMARK    3  A    between atoms: C_6  and  C_10
REMARK    4  A    between atoms: C_9  and  C_18
REMARK    5  A    between atoms: C_10  and  C_14
REMARK    6  A    between atoms: C_14  and  C_21
REMARK    7  A    between atoms: C_14  and  C_22
REMARK    8  A    between atoms: C_19  and  C_23
REMARK    9  A    between atoms: C_24  and  C_29
REMARK                            x       y       z     vdW  Elec       q    Type
REMARK                         _______ _______ _______ _____ _____    ______ ____
ROOT
ATOM      2  N   UNL     1       0.450  -0.894  23.899  0.00  0.00    -0.299 NA
ATOM      3  N   UNL     1      -1.934   3.493  24.660  0.00  0.00    -0.342 N 
ATOM      6  C   UNL     1      -0.949  -1.127  23.512  0.00  0.00    +0.085 C 
ATOM      7  C   UNL     1      -1.928   0.008  23.825  0.00  0.00    -0.021 A 
ATOM      8  C   UNL     1      -1.559   1.350  24.128  0.00  0.00    +0.008 A 
ATOM      9  C   UNL     1       1.099   0.205  23.197  0.00  0.00    +0.145 C 
ATOM     11  C   UNL     1      -0.303   2.044  24.228  0.00  0.00    -0.020 A 
ATOM     12  C   UNL     1       1.067   1.492  24.019  0.00  0.00    +0.065 C 
ATOM     13  C   UNL     1      -2.555   2.299  24.383  0.00  0.00    +0.050 A 
ATOM     15  C   UNL     1      -0.581   3.353  24.564  0.00  0.00    +0.091 A 
ATOM     16  C   UNL     1      -3.320  -0.253  23.737  0.00  0.00    +0.006 A 
ATOM     17  C   UNL     1      -3.920   2.011  24.337  0.00  0.00    +0.026 A 
ATOM     20  C   UNL     1      -4.288   0.716  23.995  0.00  0.00    +0.002 A 
ATOM     31  H   UNL     1       0.535  -0.788  24.909  0.00  0.00    +0.123 HD
ENDROOT
BRANCH   9  18
ATOM      1  O   UNL     1       2.857  -1.406  23.119  0.00  0.00    -0.274 OA
ATOM      4  N   UNL     1       3.366   0.836  22.760  0.00  0.00    -0.303 N 
ATOM     18  C   UNL     1       2.521  -0.230  23.019  0.00  0.00    +0.231 C 
ATOM     32  H   UNL     1       2.977   1.771  22.674  0.00  0.00    +0.150 HD
BRANCH   4  24
ATOM     24  C   UNL     1       4.791   0.688  22.570  0.00  0.00    +0.193 C 
BRANCH  24  29
ATOM     29  C   UNL     1       5.396  -0.056  23.673  0.00  0.00    -0.087 C 
ATOM     30  C   UNL     1       5.890  -0.669  24.580  0.00  0.00    +0.005 C 
ENDBRANCH  24  29
ENDBRANCH   4  24
ENDBRANCH   9  18
BRANCH   6  10
ATOM     10  C   UNL     1      -1.330  -2.445  24.210  0.00  0.00    +0.026 C 
BRANCH  10  14
ATOM     14  C   UNL     1      -2.798  -2.490  24.646  0.00  0.00    -0.015 C 
ATOM     21  C   UNL     1      -3.553  -3.678  24.046  0.00  0.00    +0.007 C 
ATOM     22  C   UNL     1      -2.870  -2.549  26.173  0.00  0.00    +0.007 C 
ENDBRANCH  10  14
ENDBRANCH   6  10
BRANCH   3  19
ATOM     19  C   UNL     1      -2.601   4.734  24.990  0.00  0.00    +0.157 C 
BRANCH  19  23
ATOM      5  N   UNL     1      -6.735   4.217  26.069  0.00  0.00    -0.263 NA
ATOM     23  C   UNL     1      -4.049   4.553  25.369  0.00  0.00    -0.025 A 
ATOM     25  C   UNL     1      -4.413   3.585  26.299  0.00  0.00    +0.025 A 
ATOM     26  C   UNL     1      -5.028   5.354  24.789  0.00  0.00    +0.025 A 
ATOM     27  C   UNL     1      -5.757   3.458  26.612  0.00  0.00    +0.111 A 
ATOM     28  C   UNL     1      -6.344   5.149  25.169  0.00  0.00    +0.111 A 
ENDBRANCH  19  23
ENDBRANCH   3  19
TORSDOF 7
ENDMDL
MODEL 4
REMARK VINA RESULT:       5.3      2.174      5.012
REMARK  Name = 51138051
REMARK  9 active torsions:
REMARK  status: ('A' for Active; 'I' for Inactive)
REMARK    1  A    between atoms: N_3  and  C_19
REMARK    2  A    between atoms: N_4  and  C_24
REMARK    3  A    between atoms: C_6  and  C_10
REMARK    4  A    between atoms: C_9  and  C_18
REMARK    5  A    between atoms: C_10  and  C_14
REMARK    6  A    between atoms: C_14  and  C_21
REMARK    7  A    between atoms: C_14  and  C_22
REMARK    8  A    between atoms: C_19  and  C_23
REMARK    9  A    between atoms: C_24  and  C_29
REMARK                            x       y       z     vdW  Elec       q    Type
REMARK                         _______ _______ _______ _____ _____    ______ ____
ROOT
ATOM      2  N   UNL     1      -3.352   0.939  25.226  0.00  0.00    -0.299 NA
ATOM      3  N   UNL     1       1.319   1.770  23.494  0.00  0.00    -0.342 N 
ATOM      6  C   UNL     1      -3.276   2.383  24.960  0.00  0.00    +0.085 C 
ATOM      7  C   UNL     1      -1.891   2.924  24.595  0.00  0.00    -0.021 A 
ATOM      8  C   UNL     1      -0.785   2.131  24.171  0.00  0.00    +0.008 A 
ATOM      9  C   UNL     1      -3.039   0.093  24.083  0.00  0.00    +0.145 C 
ATOM     11  C   UNL     1      -0.592   0.724  23.947  0.00  0.00    -0.020 A 
ATOM     12  C   UNL     1      -1.586  -0.376  24.113  0.00  0.00    +0.065 C 
ATOM     13  C   UNL     1       0.428   2.753  23.853  0.00  0.00    +0.050 A 
ATOM     15  C   UNL     1       0.716   0.547  23.541  0.00  0.00    +0.091 A 
ATOM     16  C   UNL     1      -1.688   4.328  24.598  0.00  0.00    +0.006 A 
ATOM     17  C   UNL     1       0.621   4.134  23.907  0.00  0.00    +0.026 A 
ATOM     20  C   UNL     1      -0.468   4.916  24.274  0.00  0.00    +0.002 A 
ATOM     31  H   UNL     1      -2.786   0.688  26.036  0.00  0.00    +0.123 HD
ENDROOT
BRANCH   9  18
ATOM      1  O   UNL     1      -5.164  -0.984  24.216  0.00  0.00    -0.274 OA
ATOM      4  N   UNL     1      -3.235  -2.277  24.355  0.00  0.00    -0.303 N 
ATOM     18  C   UNL     1      -3.942  -1.095  24.216  0.00  0.00    +0.231 C 
ATOM     32  H   UNL     1      -2.219  -2.258  24.317  0.00  0.00    +0.150 HD
BRANCH   4  24
ATOM     24  C   UNL     1      -3.870  -3.564  24.522  0.00  0.00    +0.193 C 
BRANCH  24  29
ATOM     29  C   UNL     1      -4.808  -3.834  23.433  0.00  0.00    -0.087 C 
ATOM     30  C   UNL     1      -5.582  -4.055  22.541  0.00  0.00    +0.005 C 
ENDBRANCH  24  29
ENDBRANCH   4  24
ENDBRANCH   9  18
BRANCH   6  10
ATOM     10  C   UNL     1      -3.853   3.042  26.225  0.00  0.00    +0.026 C 
BRANCH  10  14
ATOM     14  C   UNL     1      -5.365   3.278  26.141  0.00  0.00    -0.015 C 
ATOM     21  C   UNL     1      -5.717   4.591  25.440  0.00  0.00    +0.007 C 
ATOM     22  C   UNL     1      -6.020   2.107  25.406  0.00  0.00    +0.007 C 
ENDBRANCH  10  14
ENDBRANCH   6  10
BRANCH   3  19
ATOM     19  C   UNL     1       2.695   1.982  23.102  0.00  0.00    +0.157 C 
BRANCH  19  23
ATOM      5  N   UNL     1       5.218  -1.435  23.798  0.00  0.00    -0.263 NA
ATOM     23  C   UNL     1       3.579   0.784  23.345  0.00  0.00    -0.025 A 
ATOM     25  C   UNL     1       3.030  -0.492  23.385  0.00  0.00    +0.025 A 
ATOM     26  C   UNL     1       4.947   0.953  23.531  0.00  0.00    +0.025 A 
ATOM     27  C   UNL     1       3.885  -1.560  23.612  0.00  0.00    +0.111 A 
ATOM     28  C   UNL     1       5.716  -0.178  23.752  0.00  0.00    +0.111 A 
ENDBRANCH  19  23
ENDBRANCH   3  19
TORSDOF 7
ENDMDL
