MODEL 1
REMARK VINA RESULT:      -3.9      0.000      0.000
REMARK  Name = 75536078
REMARK  7 active torsions:
REMARK  status: ('A' for Active; 'I' for Inactive)
REMARK    1  A    between atoms: O_1  and  C_10
REMARK    2  A    between atoms: O_2  and  C_12
REMARK    3  A    between atoms: N_4  and  C_9
REMARK    4  A    between atoms: N_6  and  C_22
REMARK    5  A    between atoms: C_8  and  C_13
REMARK    6  A    between atoms: C_15  and  C_17
REMARK    7  A    between atoms: C_21  and  C_23
REMARK                            x       y       z     vdW  Elec       q    Type
REMARK                         _______ _______ _______ _____ _____    ______ ____
ROOT
ATOM      8  C   UNL     1      -3.037   1.510  23.716  0.00  0.00    +0.046 C 
ATOM      9  C   UNL     1      -1.864   2.162  24.485  0.00  0.00    +0.112 C 
ATOM     10  C   UNL     1      -2.200   3.652  24.450  0.00  0.00    +0.164 C 
ATOM     11  C   UNL     1      -4.213   2.515  23.809  0.00  0.00    +0.044 C 
ATOM     12  C   UNL     1      -3.709   3.672  24.669  0.00  0.00    +0.145 C 
ENDROOT
BRANCH   8  13
ATOM      5  N   UNL     1      -3.507  -1.442  26.050  0.00  0.00    -0.263 NA
ATOM     13  C   UNL     1      -3.365   0.117  24.208  0.00  0.00    -0.024 A 
ATOM     14  C   UNL     1      -3.808  -0.867  23.331  0.00  0.00    +0.007 A 
ATOM     16  C   UNL     1      -3.233  -0.219  25.545  0.00  0.00    +0.114 A 
ATOM     18  C   UNL     1      -4.101  -2.139  23.812  0.00  0.00    +0.020 A 
ATOM     19  C   UNL     1      -3.934  -2.374  25.168  0.00  0.00    +0.111 A 
ENDBRANCH   8  13
BRANCH   9   4
ATOM      3  O   UNL     1      -0.364  -0.279  24.682  0.00  0.00    -0.269 OA
ATOM      4  N   UNL     1      -0.592   1.882  23.871  0.00  0.00    -0.304 N 
ATOM     15  C   UNL     1       0.061   0.666  24.022  0.00  0.00    +0.262 C 
ATOM     24  H   UNL     1      -0.177   2.601  23.285  0.00  0.00    +0.149 HD
BRANCH  15  17
ATOM      6  N   UNL     1       1.601  -0.069  22.149  0.00  0.00    -0.262 N 
ATOM      7  N   UNL     1       2.885  -0.042  21.755  0.00  0.00    -0.176 NA
ATOM     17  C   UNL     1       1.379   0.545  23.346  0.00  0.00    +0.123 A 
ATOM     20  C   UNL     1       2.604   1.005  23.765  0.00  0.00    +0.057 A 
ATOM     21  C   UNL     1       3.493   0.616  22.746  0.00  0.00    +0.061 A 
ATOM     22  C   UNL     1       0.617  -0.713  21.310  0.00  0.00    +0.173 C 
ATOM     23  C   UNL     1       4.944   0.854  22.682  0.00  0.00    +0.067 C 
ENDBRANCH  15  17
ENDBRANCH   9   4
BRANCH  10   1
ATOM      1  O   UNL     1      -1.527   4.378  25.461  0.00  0.00    -0.387 OA
ATOM     25  H   UNL     1      -1.273   3.745  26.155  0.00  0.00    +0.210 HD
ENDBRANCH  10   1
BRANCH  12   2
ATOM      2  O   UNL     1      -4.030   3.403  26.030  0.00  0.00    -0.389 OA
ATOM     26  H   UNL     1      -4.795   2.804  26.036  0.00  0.00    +0.210 HD
ENDBRANCH  12   2
TORSDOF 5
ENDMDL
MODEL 2
REMARK VINA RESULT:      -3.3      2.506      3.928
REMARK  Name = 75536078
REMARK  7 active torsions:
REMARK  status: ('A' for Active; 'I' for Inactive)
REMARK    1  A    between atoms: O_1  and  C_10
REMARK    2  A    between atoms: O_2  and  C_12
REMARK    3  A    between atoms: N_4  and  C_9
REMARK    4  A    between atoms: N_6  and  C_22
REMARK    5  A    between atoms: C_8  and  C_13
REMARK    6  A    between atoms: C_15  and  C_17
REMARK    7  A    between atoms: C_21  and  C_23
REMARK                            x       y       z     vdW  Elec       q    Type
REMARK                         _______ _______ _______ _____ _____    ______ ____
ROOT
ATOM      8  C   UNL     1      -2.368  -0.172  25.473  0.00  0.00    +0.046 C 
ATOM      9  C   UNL     1      -1.618  -0.843  24.299  0.00  0.00    +0.112 C 
ATOM     10  C   UNL     1      -1.723  -2.334  24.615  0.00  0.00    +0.164 C 
ATOM     11  C   UNL     1      -3.327  -1.252  26.034  0.00  0.00    +0.044 C 
ATOM     12  C   UNL     1      -3.148  -2.477  25.139  0.00  0.00    +0.145 C 
ENDROOT
BRANCH   8  13
ATOM      5  N   UNL     1      -2.860   3.475  24.551  0.00  0.00    -0.263 NA
ATOM     13  C   UNL     1      -3.047   1.123  25.079  0.00  0.00    -0.024 A 
ATOM     14  C   UNL     1      -4.422   1.181  24.887  0.00  0.00    +0.007 A 
ATOM     16  C   UNL     1      -2.317   2.287  24.900  0.00  0.00    +0.114 A 
ATOM     18  C   UNL     1      -5.018   2.385  24.527  0.00  0.00    +0.020 A 
ATOM     19  C   UNL     1      -4.200   3.493  24.373  0.00  0.00    +0.111 A 
ENDBRANCH   8  13
BRANCH   9   4
ATOM      3  O   UNL     1       0.045  -0.869  21.958  0.00  0.00    -0.269 OA
ATOM      4  N   UNL     1      -0.249  -0.406  24.211  0.00  0.00    -0.304 N 
ATOM     15  C   UNL     1       0.479  -0.456  23.030  0.00  0.00    +0.262 C 
ATOM     24  H   UNL     1       0.185  -0.026  25.048  0.00  0.00    +0.149 HD
BRANCH  15  17
ATOM      6  N   UNL     1       2.289   1.292  23.325  0.00  0.00    -0.262 N 
ATOM      7  N   UNL     1       3.623   1.448  23.357  0.00  0.00    -0.176 NA
ATOM     17  C   UNL     1       1.889   0.007  23.112  0.00  0.00    +0.123 A 
ATOM     20  C   UNL     1       3.042  -0.731  22.996  0.00  0.00    +0.057 A 
ATOM     21  C   UNL     1       4.078   0.208  23.156  0.00  0.00    +0.061 A 
ATOM     22  C   UNL     1       1.439   2.445  23.512  0.00  0.00    +0.173 C 
ATOM     23  C   UNL     1       5.529  -0.041  23.120  0.00  0.00    +0.067 C 
ENDBRANCH  15  17
ENDBRANCH   9   4
BRANCH  10   1
ATOM      1  O   UNL     1      -1.516  -3.141  23.472  0.00  0.00    -0.387 OA
ATOM     25  H   UNL     1      -0.559  -3.161  23.298  0.00  0.00    +0.210 HD
ENDBRANCH  10   1
BRANCH  12   2
ATOM      2  O   UNL     1      -4.092  -2.407  24.075  0.00  0.00    -0.389 OA
ATOM     26  H   UNL     1      -4.245  -1.467  23.882  0.00  0.00    +0.210 HD
ENDBRANCH  12   2
TORSDOF 5
ENDMDL
MODEL 3
REMARK VINA RESULT:      -2.1      1.944      3.847
REMARK  Name = 75536078
REMARK  7 active torsions:
REMARK  status: ('A' for Active; 'I' for Inactive)
REMARK    1  A    between atoms: O_1  and  C_10
REMARK    2  A    between atoms: O_2  and  C_12
REMARK    3  A    between atoms: N_4  and  C_9
REMARK    4  A    between atoms: N_6  and  C_22
REMARK    5  A    between atoms: C_8  and  C_13
REMARK    6  A    between atoms: C_15  and  C_17
REMARK    7  A    between atoms: C_21  and  C_23
REMARK                            x       y       z     vdW  Elec       q    Type
REMARK                         _______ _______ _______ _____ _____    ______ ____
ROOT
ATOM      8  C   UNL     1      -2.230  -0.055  25.530  0.00  0.00    +0.046 C 
ATOM      9  C   UNL     1      -1.839  -0.877  24.280  0.00  0.00    +0.112 C 
ATOM     10  C   UNL     1      -2.182  -2.313  24.676  0.00  0.00    +0.164 C 
ATOM     11  C   UNL     1      -3.275  -0.913  26.289  0.00  0.00    +0.044 C 
ATOM     12  C   UNL     1      -3.497  -2.158  25.433  0.00  0.00    +0.145 C 
ENDROOT
BRANCH   8  13
ATOM      5  N   UNL     1      -4.270   2.779  24.048  0.00  0.00    -0.263 NA
ATOM     13  C   UNL     1      -2.696   1.345  25.195  0.00  0.00    -0.024 A 
ATOM     14  C   UNL     1      -2.027   2.460  25.687  0.00  0.00    +0.007 A 
ATOM     16  C   UNL     1      -3.802   1.557  24.387  0.00  0.00    +0.114 A 
ATOM     18  C   UNL     1      -2.478   3.735  25.360  0.00  0.00    +0.020 A 
ATOM     19  C   UNL     1      -3.593   3.839  24.544  0.00  0.00    +0.111 A 
ENDBRANCH   8  13
BRANCH   9   4
ATOM      3  O   UNL     1      -0.613   1.378  22.993  0.00  0.00    -0.269 OA
ATOM      4  N   UNL     1      -0.446  -0.728  23.949  0.00  0.00    -0.304 N 
ATOM     15  C   UNL     1       0.059   0.404  23.324  0.00  0.00    +0.262 C 
ATOM     24  H   UNL     1       0.189  -1.478  24.210  0.00  0.00    +0.149 HD
BRANCH  15  17
ATOM      6  N   UNL     1       2.091  -0.149  21.916  0.00  0.00    -0.262 N 
ATOM      7  N   UNL     1       3.429  -0.029  21.885  0.00  0.00    -0.176 NA
ATOM     17  C   UNL     1       1.515   0.392  23.027  0.00  0.00    +0.123 A 
ATOM     20  C   UNL     1       2.548   0.901  23.776  0.00  0.00    +0.057 A 
ATOM     21  C   UNL     1       3.702   0.614  23.024  0.00  0.00    +0.061 A 
ATOM     22  C   UNL     1       1.415  -0.807  20.822  0.00  0.00    +0.173 C 
ATOM     23  C   UNL     1       5.098   0.939  23.363  0.00  0.00    +0.067 C 
ENDBRANCH  15  17
ENDBRANCH   9   4
BRANCH  10   1
ATOM      1  O   UNL     1      -2.336  -3.157  23.552  0.00  0.00    -0.387 OA
ATOM     25  H   UNL     1      -1.514  -3.669  23.456  0.00  0.00    +0.210 HD
ENDBRANCH  10   1
BRANCH  12   2
ATOM      2  O   UNL     1      -4.575  -1.910  24.536  0.00  0.00    -0.389 OA
ATOM     26  H   UNL     1      -5.322  -1.579  25.063  0.00  0.00    +0.210 HD
ENDBRANCH  12   2
TORSDOF 5
ENDMDL
MODEL 4
REMARK VINA RESULT:      -1.3     14.156     17.579
REMARK  Name = 75536078
REMARK  7 active torsions:
REMARK  status: ('A' for Active; 'I' for Inactive)
REMARK    1  A    between atoms: O_1  and  C_10
REMARK    2  A    between atoms: O_2  and  C_12
REMARK    3  A    between atoms: N_4  and  C_9
REMARK    4  A    between atoms: N_6  and  C_22
REMARK    5  A    between atoms: C_8  and  C_13
REMARK    6  A    between atoms: C_15  and  C_17
REMARK    7  A    between atoms: C_21  and  C_23
REMARK                            x       y       z     vdW  Elec       q    Type
REMARK                         _______ _______ _______ _____ _____    ______ ____
ROOT
ATOM      8  C   UNL     1      14.320   8.139  21.296  0.00  0.00    +0.046 C 
ATOM      9  C   UNL     1      14.950   7.176  20.264  0.00  0.00    +0.112 C 
ATOM     10  C   UNL     1      16.406   7.070  20.717  0.00  0.00    +0.164 C 
ATOM     11  C   UNL     1      15.220   8.056  22.555  0.00  0.00    +0.044 C 
ATOM     12  C   UNL     1      16.291   7.015  22.237  0.00  0.00    +0.145 C 
ENDROOT
BRANCH   8  13
ATOM      5  N   UNL     1      11.056   6.246  21.674  0.00  0.00    -0.263 NA
ATOM     13  C   UNL     1      12.856   7.855  21.555  0.00  0.00    -0.024 A 
ATOM     14  C   UNL     1      11.976   8.876  21.894  0.00  0.00    +0.007 A 
ATOM     16  C   UNL     1      12.350   6.569  21.458  0.00  0.00    +0.114 A 
ATOM     18  C   UNL     1      10.636   8.584  22.124  0.00  0.00    +0.020 A 
ATOM     19  C   UNL     1      10.230   7.265  22.002  0.00  0.00    +0.111 A 
ENDBRANCH   8  13
BRANCH   9   4
ATOM      3  O   UNL     1      12.625   7.078  18.581  0.00  0.00    -0.269 OA
ATOM      4  N   UNL     1      14.841   7.677  18.919  0.00  0.00    -0.304 N 
ATOM     15  C   UNL     1      13.670   7.585  18.178  0.00  0.00    +0.262 C 
ATOM     24  H   UNL     1      15.652   8.136  18.513  0.00  0.00    +0.149 HD
BRANCH  15  17
ATOM      6  N   UNL     1      12.682   8.679  16.117  0.00  0.00    -0.262 N 
ATOM      7  N   UNL     1      12.996   9.094  14.879  0.00  0.00    -0.176 NA
ATOM     17  C   UNL     1      13.727   8.126  16.796  0.00  0.00    +0.123 A 
ATOM     20  C   UNL     1      14.801   8.183  15.941  0.00  0.00    +0.057 A 
ATOM     21  C   UNL     1      14.293   8.789  14.777  0.00  0.00    +0.061 A 
ATOM     22  C   UNL     1      11.330   8.849  16.598  0.00  0.00    +0.173 C 
ATOM     23  C   UNL     1      15.019   9.094  13.533  0.00  0.00    +0.067 C 
ENDBRANCH  15  17
ENDBRANCH   9   4
BRANCH  10   1
ATOM      1  O   UNL     1      17.043   5.913  20.211  0.00  0.00    -0.387 OA
ATOM     25  H   UNL     1      17.900   5.830  20.664  0.00  0.00    +0.210 HD
ENDBRANCH  10   1
BRANCH  12   2
ATOM      2  O   UNL     1      15.830   5.739  22.668  0.00  0.00    -0.389 OA
ATOM     26  H   UNL     1      14.879   5.820  22.855  0.00  0.00    +0.210 HD
ENDBRANCH  12   2
TORSDOF 5
ENDMDL
MODEL 5
REMARK VINA RESULT:      -1.0      2.990      5.500
REMARK  Name = 75536078
REMARK  7 active torsions:
REMARK  status: ('A' for Active; 'I' for Inactive)
REMARK    1  A    between atoms: O_1  and  C_10
REMARK    2  A    between atoms: O_2  and  C_12
REMARK    3  A    between atoms: N_4  and  C_9
REMARK    4  A    between atoms: N_6  and  C_22
REMARK    5  A    between atoms: C_8  and  C_13
REMARK    6  A    between atoms: C_15  and  C_17
REMARK    7  A    between atoms: C_21  and  C_23
REMARK                            x       y       z     vdW  Elec       q    Type
REMARK                         _______ _______ _______ _____ _____    ______ ____
ROOT
ATOM      8  C   UNL     1      -3.317   3.265  26.101  0.00  0.00    +0.046 C 
ATOM      9  C   UNL     1      -4.297   2.497  25.183  0.00  0.00    +0.112 C 
ATOM     10  C   UNL     1      -5.660   2.755  25.823  0.00  0.00    +0.164 C 
ATOM     11  C   UNL     1      -4.166   4.353  26.808  0.00  0.00    +0.044 C 
ATOM     12  C   UNL     1      -5.576   4.220  26.238  0.00  0.00    +0.145 C 
ENDROOT
BRANCH   8  13
ATOM      5  N   UNL     1      -0.082   3.348  24.121  0.00  0.00    -0.263 NA
ATOM     13  C   UNL     1      -2.108   3.798  25.361  0.00  0.00    -0.024 A 
ATOM     14  C   UNL     1      -1.892   5.166  25.234  0.00  0.00    +0.007 A 
ATOM     16  C   UNL     1      -1.182   2.940  24.792  0.00  0.00    +0.114 A 
ATOM     18  C   UNL     1      -0.772   5.626  24.551  0.00  0.00    +0.020 A 
ATOM     19  C   UNL     1       0.095   4.685  24.018  0.00  0.00    +0.111 A 
ENDBRANCH   8  13
BRANCH   9   4
ATOM      3  O   UNL     1      -3.087   1.104  22.983  0.00  0.00    -0.269 OA
ATOM      4  N   UNL     1      -3.989   1.092  25.120  0.00  0.00    -0.304 N 
ATOM     15  C   UNL     1      -3.400   0.504  24.008  0.00  0.00    +0.262 C 
ATOM     24  H   UNL     1      -4.193   0.521  25.936  0.00  0.00    +0.149 HD
BRANCH  15  17
ATOM      6  N   UNL     1      -1.987  -1.563  24.393  0.00  0.00    -0.262 N 
ATOM      7  N   UNL     1      -2.044  -2.905  24.401  0.00  0.00    -0.176 NA
ATOM     17  C   UNL     1      -3.172  -0.962  24.089  0.00  0.00    +0.123 A 
ATOM     20  C   UNL     1      -4.068  -1.982  23.884  0.00  0.00    +0.057 A 
ATOM     21  C   UNL     1      -3.319  -3.156  24.090  0.00  0.00    +0.061 A 
ATOM     22  C   UNL     1      -0.734  -0.908  24.693  0.00  0.00    +0.173 C 
ATOM     23  C   UNL     1      -3.788  -4.548  23.996  0.00  0.00    +0.067 C 
ENDBRANCH  15  17
ENDBRANCH   9   4
BRANCH  10   1
ATOM      1  O   UNL     1      -6.726   2.540  24.919  0.00  0.00    -0.387 OA
ATOM     25  H   UNL     1      -6.951   3.399  24.522  0.00  0.00    +0.210 HD
ENDBRANCH  10   1
BRANCH  12   2
ATOM      2  O   UNL     1      -5.694   5.077  25.107  0.00  0.00    -0.389 OA
ATOM     26  H   UNL     1      -6.640   5.154  24.896  0.00  0.00    +0.210 HD
ENDBRANCH  12   2
TORSDOF 5
ENDMDL
MODEL 6
REMARK VINA RESULT:      -0.7      1.629      1.944
REMARK  Name = 75536078
REMARK  7 active torsions:
REMARK  status: ('A' for Active; 'I' for Inactive)
REMARK    1  A    between atoms: O_1  and  C_10
REMARK    2  A    between atoms: O_2  and  C_12
REMARK    3  A    between atoms: N_4  and  C_9
REMARK    4  A    between atoms: N_6  and  C_22
REMARK    5  A    between atoms: C_8  and  C_13
REMARK    6  A    between atoms: C_15  and  C_17
REMARK    7  A    between atoms: C_21  and  C_23
REMARK                            x       y       z     vdW  Elec       q    Type
REMARK                         _______ _______ _______ _____ _____    ______ ____
ROOT
ATOM      8  C   UNL     1      -1.665   0.904  23.501  0.00  0.00    +0.046 C 
ATOM      9  C   UNL     1      -0.749   1.571  24.553  0.00  0.00    +0.112 C 
ATOM     10  C   UNL     1      -0.910   3.064  24.271  0.00  0.00    +0.164 C 
ATOM     11  C   UNL     1      -2.705   1.983  23.104  0.00  0.00    +0.044 C 
ATOM     12  C   UNL     1      -2.399   3.201  23.972  0.00  0.00    +0.145 C 
ENDROOT
BRANCH   8  13
ATOM      5  N   UNL     1      -1.954  -2.569  24.998  0.00  0.00    -0.263 NA
ATOM     13  C   UNL     1      -2.269  -0.398  23.982  0.00  0.00    -0.024 A 
ATOM     14  C   UNL     1      -3.633  -0.642  23.865  0.00  0.00    +0.007 A 
ATOM     16  C   UNL     1      -1.480  -1.385  24.550  0.00  0.00    +0.114 A 
ATOM     18  C   UNL     1      -4.158  -1.849  24.314  0.00  0.00    +0.020 A 
ATOM     19  C   UNL     1      -3.284  -2.771  24.867  0.00  0.00    +0.111 A 
ENDBRANCH   8  13
BRANCH   9   4
ATOM      3  O   UNL     1       0.452   0.317  22.266  0.00  0.00    -0.269 OA
ATOM      4  N   UNL     1       0.620   1.143  24.427  0.00  0.00    -0.304 N 
ATOM     15  C   UNL     1       1.114   0.543  23.276  0.00  0.00    +0.262 C 
ATOM     24  H   UNL     1       1.248   1.314  25.208  0.00  0.00    +0.149 HD
BRANCH  15  17
ATOM      6  N   UNL     1       3.597   0.909  22.932  0.00  0.00    -0.262 N 
ATOM      7  N   UNL     1       4.790   0.306  23.064  0.00  0.00    -0.176 NA
ATOM     17  C   UNL     1       2.542   0.135  23.314  0.00  0.00    +0.123 A 
ATOM     20  C   UNL     1       3.082  -1.060  23.723  0.00  0.00    +0.057 A 
ATOM     21  C   UNL     1       4.469  -0.897  23.549  0.00  0.00    +0.061 A 
ATOM     22  C   UNL     1       3.541   2.261  22.424  0.00  0.00    +0.173 C 
ATOM     23  C   UNL     1       5.530  -1.877  23.833  0.00  0.00    +0.067 C 
ENDBRANCH  15  17
ENDBRANCH   9   4
BRANCH  10   1
ATOM      1  O   UNL     1      -0.535   3.862  25.377  0.00  0.00    -0.387 OA
ATOM     25  H   UNL     1      -0.136   3.274  26.041  0.00  0.00    +0.210 HD
ENDBRANCH  10   1
BRANCH  12   2
ATOM      2  O   UNL     1      -3.168   3.116  25.167  0.00  0.00    -0.389 OA
ATOM     26  H   UNL     1      -2.564   2.866  25.886  0.00  0.00    +0.210 HD
ENDBRANCH  12   2
TORSDOF 5
ENDMDL
MODEL 7
REMARK VINA RESULT:      -0.6      1.490      2.058
REMARK  Name = 75536078
REMARK  7 active torsions:
REMARK  status: ('A' for Active; 'I' for Inactive)
REMARK    1  A    between atoms: O_1  and  C_10
REMARK    2  A    between atoms: O_2  and  C_12
REMARK    3  A    between atoms: N_4  and  C_9
REMARK    4  A    between atoms: N_6  and  C_22
REMARK    5  A    between atoms: C_8  and  C_13
REMARK    6  A    between atoms: C_15  and  C_17
REMARK    7  A    between atoms: C_21  and  C_23
REMARK                            x       y       z     vdW  Elec       q    Type
REMARK                         _______ _______ _______ _____ _____    ______ ____
ROOT
ATOM      8  C   UNL     1      -3.918   0.872  24.110  0.00  0.00    +0.046 C 
ATOM      9  C   UNL     1      -2.981   1.714  25.006  0.00  0.00    +0.112 C 
ATOM     10  C   UNL     1      -3.682   3.069  25.081  0.00  0.00    +0.164 C 
ATOM     11  C   UNL     1      -5.314   1.537  24.217  0.00  0.00    +0.044 C 
ATOM     12  C   UNL     1      -5.154   2.690  25.206  0.00  0.00    +0.145 C 
ENDROOT
BRANCH   8  13
ATOM      5  N   UNL     1      -4.281  -2.889  23.768  0.00  0.00    -0.263 NA
ATOM     13  C   UNL     1      -3.901  -0.602  24.456  0.00  0.00    -0.024 A 
ATOM     14  C   UNL     1      -3.513  -1.038  25.718  0.00  0.00    +0.007 A 
ATOM     16  C   UNL     1      -4.272  -1.559  23.525  0.00  0.00    +0.114 A 
ATOM     18  C   UNL     1      -3.509  -2.398  26.007  0.00  0.00    +0.020 A 
ATOM     19  C   UNL     1      -3.899  -3.275  25.006  0.00  0.00    +0.111 A 
ENDBRANCH   8  13
BRANCH   9   4
ATOM      3  O   UNL     1      -0.912  -0.276  25.097  0.00  0.00    -0.269 OA
ATOM      4  N   UNL     1      -1.657   1.823  24.450  0.00  0.00    -0.304 N 
ATOM     15  C   UNL     1      -0.719   0.804  24.543  0.00  0.00    +0.262 C 
ATOM     24  H   UNL     1      -1.418   2.676  23.951  0.00  0.00    +0.149 HD
BRANCH  15  17
ATOM      6  N   UNL     1       1.145   2.322  23.741  0.00  0.00    -0.262 N 
ATOM      7  N   UNL     1       2.365   2.303  23.180  0.00  0.00    -0.176 NA
ATOM     17  C   UNL     1       0.611   1.083  23.942  0.00  0.00    +0.123 A 
ATOM     20  C   UNL     1       1.547   0.191  23.478  0.00  0.00    +0.057 A 
ATOM     21  C   UNL     1       2.606   0.998  23.022  0.00  0.00    +0.061 A 
ATOM     22  C   UNL     1       0.537   3.591  24.068  0.00  0.00    +0.173 C 
ATOM     23  C   UNL     1       3.876   0.557  22.421  0.00  0.00    +0.067 C 
ENDBRANCH  15  17
ENDBRANCH   9   4
BRANCH  10   1
ATOM      1  O   UNL     1      -3.256   3.833  26.192  0.00  0.00    -0.387 OA
ATOM     25  H   UNL     1      -2.857   3.220  26.833  0.00  0.00    +0.210 HD
ENDBRANCH  10   1
BRANCH  12   2
ATOM      2  O   UNL     1      -5.448   2.213  26.515  0.00  0.00    -0.389 OA
ATOM     26  H   UNL     1      -5.299   2.948  27.134  0.00  0.00    +0.210 HD
ENDBRANCH  12   2
TORSDOF 5
ENDMDL
