MODEL 1
REMARK VINA RESULT:      -9.6      0.000      0.000
REMARK  Name = 51137970
REMARK  8 active torsions:
REMARK  status: ('A' for Active; 'I' for Inactive)
REMARK    1  A    between atoms: N_4  and  C_21
REMARK    2  A    between atoms: C_5  and  C_7
REMARK    3  A    between atoms: C_6  and  C_16
REMARK    4  A    between atoms: C_7  and  C_12
REMARK    5  A    between atoms: C_12  and  C_17
REMARK    6  A    between atoms: C_12  and  C_18
REMARK    7  A    between atoms: C_21  and  C_22
REMARK    8  A    between atoms: C_22  and  C_23
REMARK                            x       y       z     vdW  Elec       q    Type
REMARK                         _______ _______ _______ _____ _____    ______ ____
ROOT
ATOM      2  N   UNL     1      -1.269  -0.013  24.822  0.00  0.00    -0.299 NA
ATOM      3  N   UNL     1      -2.225   4.917  25.360  0.00  0.00    -0.360 N 
ATOM      5  C   UNL     1      -2.726   0.126  24.697  0.00  0.00    +0.085 C 
ATOM      6  C   UNL     1      -0.499   0.793  23.886  0.00  0.00    +0.145 C 
ATOM      8  C   UNL     1      -3.295   1.514  25.007  0.00  0.00    -0.021 A 
ATOM      9  C   UNL     1      -2.535   2.718  25.066  0.00  0.00    +0.008 A 
ATOM     10  C   UNL     1      -0.033   2.101  24.522  0.00  0.00    +0.065 C 
ATOM     11  C   UNL     1      -1.145   3.034  24.870  0.00  0.00    -0.020 A 
ATOM     13  C   UNL     1      -3.180   3.929  25.346  0.00  0.00    +0.047 A 
ATOM     14  C   UNL     1      -4.696   1.651  25.177  0.00  0.00    +0.006 A 
ATOM     15  C   UNL     1      -1.000   4.391  25.070  0.00  0.00    +0.087 A 
ATOM     19  C   UNL     1      -4.555   4.036  25.556  0.00  0.00    +0.026 A 
ATOM     20  C   UNL     1      -5.307   2.873  25.453  0.00  0.00    +0.002 A 
ATOM     24  H   UNL     1      -0.968   0.150  25.782  0.00  0.00    +0.123 HD
ATOM     25  H   UNL     1      -2.408   5.894  25.541  0.00  0.00    +0.165 HD
ENDROOT
BRANCH   6  16
ATOM      1  O   UNL     1       0.780  -1.221  23.866  0.00  0.00    -0.274 OA
ATOM      4  N   UNL     1       1.665   0.686  22.866  0.00  0.00    -0.314 N 
ATOM     16  C   UNL     1       0.698  -0.039  23.544  0.00  0.00    +0.230 C 
ATOM     26  H   UNL     1       1.498   1.662  22.643  0.00  0.00    +0.149 HD
BRANCH   4  21
ATOM     21  C   UNL     1       2.924   0.120  22.441  0.00  0.00    +0.104 C 
BRANCH  21  22
ATOM     22  C   UNL     1       4.113   0.985  22.842  0.00  0.00    +0.015 C 
ATOM     23  C   UNL     1       5.229   0.184  23.498  0.00  0.00    +0.005 C 
ENDBRANCH  21  22
ENDBRANCH   4  21
ENDBRANCH   6  16
BRANCH   5   7
ATOM      7  C   UNL     1      -3.301  -0.966  25.618  0.00  0.00    +0.026 C 
BRANCH   7  12
ATOM     12  C   UNL     1      -3.544  -2.293  24.891  0.00  0.00    -0.015 C 
ATOM     17  C   UNL     1      -2.198  -2.892  24.474  0.00  0.00    +0.007 C 
ATOM     18  C   UNL     1      -4.442  -2.136  23.664  0.00  0.00    +0.007 C 
ENDBRANCH   7  12
ENDBRANCH   5   7
TORSDOF 5
ENDMDL
MODEL 2
REMARK VINA RESULT:      -5.6      1.512      2.042
REMARK  Name = 51137970
REMARK  8 active torsions:
REMARK  status: ('A' for Active; 'I' for Inactive)
REMARK    1  A    between atoms: N_4  and  C_21
REMARK    2  A    between atoms: C_5  and  C_7
REMARK    3  A    between atoms: C_6  and  C_16
REMARK    4  A    between atoms: C_7  and  C_12
REMARK    5  A    between atoms: C_12  and  C_17
REMARK    6  A    between atoms: C_12  and  C_18
REMARK    7  A    between atoms: C_21  and  C_22
REMARK    8  A    between atoms: C_22  and  C_23
REMARK                            x       y       z     vdW  Elec       q    Type
REMARK                         _______ _______ _______ _____ _____    ______ ____
ROOT
ATOM      2  N   UNL     1      -1.583   0.751  25.514  0.00  0.00    -0.299 NA
ATOM      3  N   UNL     1      -4.948   4.518  25.529  0.00  0.00    -0.360 N 
ATOM      5  C   UNL     1      -2.832   0.172  25.002  0.00  0.00    +0.085 C 
ATOM      6  C   UNL     1      -1.103   1.910  24.775  0.00  0.00    +0.145 C 
ATOM      8  C   UNL     1      -4.069   1.072  25.079  0.00  0.00    -0.021 A 
ATOM      9  C   UNL     1      -4.046   2.484  25.275  0.00  0.00    +0.008 A 
ATOM     10  C   UNL     1      -1.522   3.217  25.444  0.00  0.00    +0.065 C 
ATOM     11  C   UNL     1      -2.996   3.453  25.438  0.00  0.00    -0.020 A 
ATOM     13  C   UNL     1      -5.251   3.195  25.314  0.00  0.00    +0.047 A 
ATOM     14  C   UNL     1      -5.345   0.492  24.866  0.00  0.00    +0.006 A 
ATOM     15  C   UNL     1      -3.596   4.686  25.600  0.00  0.00    +0.087 A 
ATOM     19  C   UNL     1      -6.501   2.598  25.147  0.00  0.00    +0.026 A 
ATOM     20  C   UNL     1      -6.527   1.230  24.909  0.00  0.00    +0.002 A 
ATOM     24  H   UNL     1      -1.657   0.955  26.510  0.00  0.00    +0.123 HD
ATOM     25  H   UNL     1      -5.628   5.261  25.606  0.00  0.00    +0.165 HD
ENDROOT
BRANCH   6  16
ATOM      1  O   UNL     1       1.057   2.263  25.728  0.00  0.00    -0.274 OA
ATOM      4  N   UNL     1       0.893   1.163  23.682  0.00  0.00    -0.314 N 
ATOM     16  C   UNL     1       0.391   1.803  24.803  0.00  0.00    +0.230 C 
ATOM     26  H   UNL     1       0.255   0.814  22.973  0.00  0.00    +0.149 HD
BRANCH   4  21
ATOM     21  C   UNL     1       2.304   0.951  23.458  0.00  0.00    +0.104 C 
BRANCH  21  22
ATOM     22  C   UNL     1       2.572   0.026  22.277  0.00  0.00    +0.015 C 
ATOM     23  C   UNL     1       1.292  -0.500  21.640  0.00  0.00    +0.005 C 
ENDBRANCH  21  22
ENDBRANCH   4  21
ENDBRANCH   6  16
BRANCH   5   7
ATOM      7  C   UNL     1      -3.005  -1.138  25.792  0.00  0.00    +0.026 C 
BRANCH   7  12
ATOM     12  C   UNL     1      -2.934  -2.385  24.904  0.00  0.00    -0.015 C 
ATOM     17  C   UNL     1      -1.579  -2.421  24.195  0.00  0.00    +0.007 C 
ATOM     18  C   UNL     1      -4.060  -2.436  23.871  0.00  0.00    +0.007 C 
ENDBRANCH   7  12
ENDBRANCH   5   7
TORSDOF 5
ENDMDL
