MODEL 1
REMARK VINA RESULT:      -1.7      0.000      0.000
REMARK  Name = 71693359
REMARK  10 active torsions:
REMARK  status: ('A' for Active; 'I' for Inactive)
REMARK    1  A    between atoms: O_2  and  C_11
REMARK    2  A    between atoms: O_5  and  C_23
REMARK    3  A    between atoms: O_5  and  C_24
REMARK    4  A    between atoms: N_6  and  C_10
REMARK    5  A    between atoms: N_7  and  C_21
REMARK    6  A    between atoms: C_8  and  C_11
REMARK    7  A    between atoms: C_9  and  C_13
REMARK    8  A    between atoms: C_10  and  C_15
REMARK    9  A    between atoms: C_10  and  C_16
REMARK   10  A    between atoms: C_22  and  C_23
REMARK                            x       y       z     vdW  Elec       q    Type
REMARK                         _______ _______ _______ _____ _____    ______ ____
ROOT
ATOM      1  O   UNL     1      -3.367   0.041  23.824  0.00  0.00    -0.361 OA
ATOM      3  O   UNL     1      -5.481   1.083  26.304  0.00  0.00    -0.273 OA
ATOM      6  N   UNL     1      -4.012   2.377  25.032  0.00  0.00    -0.289 N 
ATOM      8  C   UNL     1      -3.362   2.540  23.728  0.00  0.00    +0.135 C 
ATOM      9  C   UNL     1      -2.807   1.195  23.187  0.00  0.00    +0.171 C 
ATOM     12  C   UNL     1      -4.786   1.251  25.305  0.00  0.00    +0.242 C 
ATOM     14  C   UNL     1      -4.715   0.206  24.216  0.00  0.00    +0.256 C 
ENDROOT
BRANCH   9  13
ATOM     13  C   UNL     1      -1.302   1.113  23.361  0.00  0.00    -0.017 A 
ATOM     17  C   UNL     1      -0.601   2.201  23.879  0.00  0.00    +0.008 A 
ATOM     18  C   UNL     1      -0.620  -0.050  23.003  0.00  0.00    +0.008 A 
ATOM     19  C   UNL     1       0.784   2.127  24.038  0.00  0.00    +0.023 A 
ATOM     20  C   UNL     1       0.763  -0.124  23.163  0.00  0.00    +0.023 A 
ATOM     21  C   UNL     1       1.465   0.965  23.681  0.00  0.00    +0.033 A 
BRANCH  21   7
ATOM      4  O   UNL     1       3.645   0.566  21.645  0.00  0.00    -0.273 OA
ATOM      7  N   UNL     1       2.849   0.889  23.840  0.00  0.00    -0.284 N 
ATOM     22  C   UNL     1       3.824   0.704  22.851  0.00  0.00    +0.243 C 
ATOM     26  H   UNL     1       3.183   0.981  24.797  0.00  0.00    +0.155 HD
BRANCH  22  23
ATOM     23  C   UNL     1       5.224   0.677  23.426  0.00  0.00    +0.255 C 
BRANCH  23   5
ATOM      5  O   UNL     1       5.288  -0.326  24.421  0.00  0.00    -0.374 OA
ATOM     24  C   UNL     1       4.880  -1.595  23.921  0.00  0.00    +0.194 C 
ENDBRANCH  23   5
ENDBRANCH  22  23
ENDBRANCH  21   7
ENDBRANCH   9  13
BRANCH   6  10
ATOM     10  C   UNL     1      -3.937   3.480  25.978  0.00  0.00    +0.070 C 
ATOM     15  C   UNL     1      -2.604   4.207  25.844  0.00  0.00    +0.028 C 
ATOM     16  C   UNL     1      -5.107   4.432  25.778  0.00  0.00    +0.028 C 
ENDBRANCH   6  10
BRANCH   8  11
ATOM     11  C   UNL     1      -4.321   3.188  22.722  0.00  0.00    +0.181 C 
BRANCH  11   2
ATOM      2  O   UNL     1      -3.671   3.254  21.470  0.00  0.00    -0.393 OA
ATOM     25  H   UNL     1      -3.900   2.445  20.982  0.00  0.00    +0.209 HD
ENDBRANCH  11   2
ENDBRANCH   8  11
TORSDOF 7
ENDMDL
MODEL 2
REMARK VINA RESULT:       1.4      1.747      2.274
REMARK  Name = 71693359
REMARK  10 active torsions:
REMARK  status: ('A' for Active; 'I' for Inactive)
REMARK    1  A    between atoms: O_2  and  C_11
REMARK    2  A    between atoms: O_5  and  C_23
REMARK    3  A    between atoms: O_5  and  C_24
REMARK    4  A    between atoms: N_6  and  C_10
REMARK    5  A    between atoms: N_7  and  C_21
REMARK    6  A    between atoms: C_8  and  C_11
REMARK    7  A    between atoms: C_9  and  C_13
REMARK    8  A    between atoms: C_10  and  C_15
REMARK    9  A    between atoms: C_10  and  C_16
REMARK   10  A    between atoms: C_22  and  C_23
REMARK                            x       y       z     vdW  Elec       q    Type
REMARK                         _______ _______ _______ _____ _____    ______ ____
ROOT
ATOM      1  O   UNL     1      -3.010  -0.511  26.193  0.00  0.00    -0.361 OA
ATOM      3  O   UNL     1      -5.561   1.724  26.645  0.00  0.00    -0.273 OA
ATOM      6  N   UNL     1      -4.509   1.132  24.647  0.00  0.00    -0.289 N 
ATOM      8  C   UNL     1      -3.839   0.059  23.904  0.00  0.00    +0.135 C 
ATOM      9  C   UNL     1      -2.819  -0.705  24.787  0.00  0.00    +0.171 C 
ATOM     12  C   UNL     1      -4.878   0.950  25.978  0.00  0.00    +0.242 C 
ATOM     14  C   UNL     1      -4.363  -0.343  26.564  0.00  0.00    +0.256 C 
ENDROOT
BRANCH   9  13
ATOM     13  C   UNL     1      -1.395  -0.286  24.470  0.00  0.00    -0.017 A 
ATOM     17  C   UNL     1      -1.029   1.056  24.562  0.00  0.00    +0.008 A 
ATOM     18  C   UNL     1      -0.454  -1.242  24.087  0.00  0.00    +0.008 A 
ATOM     19  C   UNL     1       0.280   1.444  24.269  0.00  0.00    +0.023 A 
ATOM     20  C   UNL     1       0.853  -0.854  23.796  0.00  0.00    +0.023 A 
ATOM     21  C   UNL     1       1.220   0.489  23.886  0.00  0.00    +0.033 A 
BRANCH  21   7
ATOM      4  O   UNL     1       2.899  -0.001  21.438  0.00  0.00    -0.273 OA
ATOM      7  N   UNL     1       2.529   0.874  23.594  0.00  0.00    -0.284 N 
ATOM     22  C   UNL     1       3.265   0.620  22.430  0.00  0.00    +0.243 C 
ATOM     26  H   UNL     1       2.999   1.406  24.324  0.00  0.00    +0.155 HD
BRANCH  22  23
ATOM     23  C   UNL     1       4.659   1.208  22.495  0.00  0.00    +0.255 C 
BRANCH  23   5
ATOM      5  O   UNL     1       5.220   0.908  23.757  0.00  0.00    -0.374 OA
ATOM     24  C   UNL     1       5.534  -0.475  23.884  0.00  0.00    +0.194 C 
ENDBRANCH  23   5
ENDBRANCH  22  23
ENDBRANCH  21   7
ENDBRANCH   9  13
BRANCH   6  10
ATOM     10  C   UNL     1      -4.893   2.332  23.921  0.00  0.00    +0.070 C 
ATOM     15  C   UNL     1      -5.092   3.498  24.884  0.00  0.00    +0.028 C 
ATOM     16  C   UNL     1      -3.855   2.666  22.859  0.00  0.00    +0.028 C 
ENDBRANCH   6  10
BRANCH   8  11
ATOM     11  C   UNL     1      -4.869  -0.898  23.290  0.00  0.00    +0.181 C 
BRANCH  11   2
ATOM      2  O   UNL     1      -4.509  -2.218  23.642  0.00  0.00    -0.393 OA
ATOM     25  H   UNL     1      -4.144  -2.640  22.847  0.00  0.00    +0.209 HD
ENDBRANCH  11   2
ENDBRANCH   8  11
TORSDOF 7
ENDMDL
MODEL 3
REMARK VINA RESULT:       1.4      1.586      2.676
REMARK  Name = 71693359
REMARK  10 active torsions:
REMARK  status: ('A' for Active; 'I' for Inactive)
REMARK    1  A    between atoms: O_2  and  C_11
REMARK    2  A    between atoms: O_5  and  C_23
REMARK    3  A    between atoms: O_5  and  C_24
REMARK    4  A    between atoms: N_6  and  C_10
REMARK    5  A    between atoms: N_7  and  C_21
REMARK    6  A    between atoms: C_8  and  C_11
REMARK    7  A    between atoms: C_9  and  C_13
REMARK    8  A    between atoms: C_10  and  C_15
REMARK    9  A    between atoms: C_10  and  C_16
REMARK   10  A    between atoms: C_22  and  C_23
REMARK                            x       y       z     vdW  Elec       q    Type
REMARK                         _______ _______ _______ _____ _____    ______ ____
ROOT
ATOM      1  O   UNL     1      -3.167   3.155  23.093  0.00  0.00    -0.361 OA
ATOM      3  O   UNL     1      -6.267   1.976  23.936  0.00  0.00    -0.273 OA
ATOM      6  N   UNL     1      -4.349   2.053  25.265  0.00  0.00    -0.289 N 
ATOM      8  C   UNL     1      -3.112   2.782  25.564  0.00  0.00    +0.135 C 
ATOM      9  C   UNL     1      -2.357   3.192  24.272  0.00  0.00    +0.171 C 
ATOM     12  C   UNL     1      -5.151   2.426  24.189  0.00  0.00    +0.242 C 
ATOM     14  C   UNL     1      -4.521   3.490  23.322  0.00  0.00    +0.256 C 
ENDROOT
BRANCH   9  13
ATOM     13  C   UNL     1      -1.165   2.287  24.023  0.00  0.00    -0.017 A 
ATOM     17  C   UNL     1      -1.358   1.017  23.479  0.00  0.00    +0.008 A 
ATOM     18  C   UNL     1       0.122   2.724  24.335  0.00  0.00    +0.008 A 
ATOM     19  C   UNL     1      -0.263   0.183  23.250  0.00  0.00    +0.023 A 
ATOM     20  C   UNL     1       1.216   1.891  24.105  0.00  0.00    +0.023 A 
ATOM     21  C   UNL     1       1.023   0.620  23.562  0.00  0.00    +0.033 A 
BRANCH  21   7
ATOM      4  O   UNL     1       3.786   1.262  22.558  0.00  0.00    -0.273 OA
ATOM      7  N   UNL     1       2.119  -0.213  23.333  0.00  0.00    -0.284 N 
ATOM     22  C   UNL     1       3.391   0.141  22.864  0.00  0.00    +0.243 C 
ATOM     26  H   UNL     1       1.966  -1.199  23.534  0.00  0.00    +0.155 HD
BRANCH  22  23
ATOM     23  C   UNL     1       4.310  -1.055  22.747  0.00  0.00    +0.255 C 
BRANCH  23   5
ATOM      5  O   UNL     1       4.835  -1.354  24.025  0.00  0.00    -0.374 OA
ATOM     24  C   UNL     1       5.719  -0.338  24.486  0.00  0.00    +0.194 C 
ENDBRANCH  23   5
ENDBRANCH  22  23
ENDBRANCH  21   7
ENDBRANCH   9  13
BRANCH   6  10
ATOM     10  C   UNL     1      -4.780   1.023  26.198  0.00  0.00    +0.070 C 
ATOM     15  C   UNL     1      -6.266   1.169  26.506  0.00  0.00    +0.028 C 
ATOM     16  C   UNL     1      -4.465  -0.360  25.643  0.00  0.00    +0.028 C 
ENDBRANCH   6  10
BRANCH   8  11
ATOM     11  C   UNL     1      -3.403   4.003  26.447  0.00  0.00    +0.181 C 
BRANCH  11   2
ATOM      2  O   UNL     1      -2.561   5.058  26.033  0.00  0.00    -0.393 OA
ATOM     25  H   UNL     1      -2.765   5.243  25.102  0.00  0.00    +0.209 HD
ENDBRANCH  11   2
ENDBRANCH   8  11
TORSDOF 7
ENDMDL
MODEL 4
REMARK VINA RESULT:       1.4      1.646      2.711
REMARK  Name = 71693359
REMARK  10 active torsions:
REMARK  status: ('A' for Active; 'I' for Inactive)
REMARK    1  A    between atoms: O_2  and  C_11
REMARK    2  A    between atoms: O_5  and  C_23
REMARK    3  A    between atoms: O_5  and  C_24
REMARK    4  A    between atoms: N_6  and  C_10
REMARK    5  A    between atoms: N_7  and  C_21
REMARK    6  A    between atoms: C_8  and  C_11
REMARK    7  A    between atoms: C_9  and  C_13
REMARK    8  A    between atoms: C_10  and  C_15
REMARK    9  A    between atoms: C_10  and  C_16
REMARK   10  A    between atoms: C_22  and  C_23
REMARK                            x       y       z     vdW  Elec       q    Type
REMARK                         _______ _______ _______ _____ _____    ______ ____
ROOT
ATOM      1  O   UNL     1      -2.036   2.500  26.079  0.00  0.00    -0.361 OA
ATOM      3  O   UNL     1      -4.098   4.890  24.758  0.00  0.00    -0.273 OA
ATOM      6  N   UNL     1      -3.685   2.741  23.945  0.00  0.00    -0.289 N 
ATOM      8  C   UNL     1      -3.364   1.354  24.298  0.00  0.00    +0.135 C 
ATOM      9  C   UNL     1      -2.244   1.275  25.369  0.00  0.00    +0.171 C 
ATOM     12  C   UNL     1      -3.710   3.735  24.920  0.00  0.00    +0.242 C 
ATOM     14  C   UNL     1      -3.214   3.257  26.265  0.00  0.00    +0.256 C 
ENDROOT
BRANCH   9  13
ATOM     13  C   UNL     1      -0.916   0.890  24.746  0.00  0.00    -0.017 A 
ATOM     17  C   UNL     1       0.027   1.875  24.453  0.00  0.00    +0.008 A 
ATOM     18  C   UNL     1      -0.636  -0.448  24.466  0.00  0.00    +0.008 A 
ATOM     19  C   UNL     1       1.249   1.522  23.879  0.00  0.00    +0.023 A 
ATOM     20  C   UNL     1       0.585  -0.800  23.894  0.00  0.00    +0.023 A 
ATOM     21  C   UNL     1       1.529   0.185  23.600  0.00  0.00    +0.033 A 
BRANCH  21   7
ATOM      4  O   UNL     1       3.953   1.858  22.985  0.00  0.00    -0.273 OA
ATOM      7  N   UNL     1       2.750  -0.168  23.026  0.00  0.00    -0.284 N 
ATOM     22  C   UNL     1       3.853   0.655  22.764  0.00  0.00    +0.243 C 
ATOM     26  H   UNL     1       2.843  -1.149  22.770  0.00  0.00    +0.155 HD
BRANCH  22  23
ATOM     23  C   UNL     1       4.997  -0.106  22.130  0.00  0.00    +0.255 C 
BRANCH  23   5
ATOM      5  O   UNL     1       6.058  -0.192  23.059  0.00  0.00    -0.374 OA
ATOM     24  C   UNL     1       5.631  -0.740  24.302  0.00  0.00    +0.194 C 
ENDBRANCH  23   5
ENDBRANCH  22  23
ENDBRANCH  21   7
ENDBRANCH   9  13
BRANCH   6  10
ATOM     10  C   UNL     1      -4.103   3.021  22.580  0.00  0.00    +0.070 C 
ATOM     15  C   UNL     1      -4.239   4.524  22.361  0.00  0.00    +0.028 C 
ATOM     16  C   UNL     1      -3.124   2.407  21.588  0.00  0.00    +0.028 C 
ENDBRANCH   6  10
BRANCH   8  11
ATOM     11  C   UNL     1      -4.624   0.608  24.757  0.00  0.00    +0.181 C 
BRANCH  11   2
ATOM      2  O   UNL     1      -4.222  -0.496  25.541  0.00  0.00    -0.393 OA
ATOM     25  H   UNL     1      -4.429  -1.300  25.036  0.00  0.00    +0.209 HD
ENDBRANCH  11   2
ENDBRANCH   8  11
TORSDOF 7
ENDMDL
MODEL 5
REMARK VINA RESULT:       2.2      2.073      3.240
REMARK  Name = 71693359
REMARK  10 active torsions:
REMARK  status: ('A' for Active; 'I' for Inactive)
REMARK    1  A    between atoms: O_2  and  C_11
REMARK    2  A    between atoms: O_5  and  C_23
REMARK    3  A    between atoms: O_5  and  C_24
REMARK    4  A    between atoms: N_6  and  C_10
REMARK    5  A    between atoms: N_7  and  C_21
REMARK    6  A    between atoms: C_8  and  C_11
REMARK    7  A    between atoms: C_9  and  C_13
REMARK    8  A    between atoms: C_10  and  C_15
REMARK    9  A    between atoms: C_10  and  C_16
REMARK   10  A    between atoms: C_22  and  C_23
REMARK                            x       y       z     vdW  Elec       q    Type
REMARK                         _______ _______ _______ _____ _____    ______ ____
ROOT
ATOM      1  O   UNL     1      -2.153   1.535  22.690  0.00  0.00    -0.361 OA
ATOM      3  O   UNL     1      -4.679  -0.498  23.782  0.00  0.00    -0.273 OA
ATOM      6  N   UNL     1      -2.817   0.247  24.977  0.00  0.00    -0.289 N 
ATOM      8  C   UNL     1      -1.857   1.341  25.165  0.00  0.00    +0.135 C 
ATOM      9  C   UNL     1      -1.336   1.890  23.811  0.00  0.00    +0.171 C 
ATOM     12  C   UNL     1      -3.749   0.289  23.943  0.00  0.00    +0.242 C 
ATOM     14  C   UNL     1      -3.529   1.445  22.995  0.00  0.00    +0.256 C 
ENDROOT
BRANCH   9  13
ATOM     13  C   UNL     1       0.065   1.387  23.517  0.00  0.00    -0.017 A 
ATOM     17  C   UNL     1       0.254   0.088  23.046  0.00  0.00    +0.008 A 
ATOM     18  C   UNL     1       1.164   2.222  23.719  0.00  0.00    +0.008 A 
ATOM     19  C   UNL     1       1.542  -0.376  22.777  0.00  0.00    +0.023 A 
ATOM     20  C   UNL     1       2.451   1.758  23.448  0.00  0.00    +0.023 A 
ATOM     21  C   UNL     1       2.640   0.459  22.978  0.00  0.00    +0.033 A 
BRANCH  21   7
ATOM      4  O   UNL     1       5.151   0.605  24.629  0.00  0.00    -0.273 OA
ATOM      7  N   UNL     1       3.928  -0.004  22.709  0.00  0.00    -0.284 N 
ATOM     22  C   UNL     1       5.067   0.089  23.519  0.00  0.00    +0.243 C 
ATOM     26  H   UNL     1       4.046  -0.465  21.809  0.00  0.00    +0.155 HD
BRANCH  22  23
ATOM     23  C   UNL     1       6.284  -0.536  22.870  0.00  0.00    +0.255 C 
BRANCH  23   5
ATOM      5  O   UNL     1       7.442   0.113  23.353  0.00  0.00    -0.374 OA
ATOM     24  C   UNL     1       8.633  -0.496  22.866  0.00  0.00    +0.194 C 
ENDBRANCH  23   5
ENDBRANCH  22  23
ENDBRANCH  21   7
ENDBRANCH   9  13
BRANCH   6  10
ATOM     10  C   UNL     1      -2.854  -0.811  25.976  0.00  0.00    +0.070 C 
ATOM     15  C   UNL     1      -3.404  -2.097  25.370  0.00  0.00    +0.028 C 
ATOM     16  C   UNL     1      -1.469  -1.029  26.569  0.00  0.00    +0.028 C 
ENDBRANCH   6  10
BRANCH   8  11
ATOM     11  C   UNL     1      -2.471   2.459  26.017  0.00  0.00    +0.181 C 
BRANCH  11   2
ATOM      2  O   UNL     1      -1.954   3.693  25.565  0.00  0.00    -0.393 OA
ATOM     25  H   UNL     1      -1.443   3.515  24.758  0.00  0.00    +0.209 HD
ENDBRANCH  11   2
ENDBRANCH   8  11
TORSDOF 7
ENDMDL
MODEL 6
REMARK VINA RESULT:       2.2      1.700      2.082
REMARK  Name = 71693359
REMARK  10 active torsions:
REMARK  status: ('A' for Active; 'I' for Inactive)
REMARK    1  A    between atoms: O_2  and  C_11
REMARK    2  A    between atoms: O_5  and  C_23
REMARK    3  A    between atoms: O_5  and  C_24
REMARK    4  A    between atoms: N_6  and  C_10
REMARK    5  A    between atoms: N_7  and  C_21
REMARK    6  A    between atoms: C_8  and  C_11
REMARK    7  A    between atoms: C_9  and  C_13
REMARK    8  A    between atoms: C_10  and  C_15
REMARK    9  A    between atoms: C_10  and  C_16
REMARK   10  A    between atoms: C_22  and  C_23
REMARK                            x       y       z     vdW  Elec       q    Type
REMARK                         _______ _______ _______ _____ _____    ______ ____
ROOT
ATOM      1  O   UNL     1      -4.503  -0.046  25.757  0.00  0.00    -0.361 OA
ATOM      3  O   UNL     1      -5.869   2.373  27.755  0.00  0.00    -0.273 OA
ATOM      6  N   UNL     1      -4.939   2.624  25.628  0.00  0.00    -0.289 N 
ATOM      8  C   UNL     1      -4.713   1.992  24.324  0.00  0.00    +0.135 C 
ATOM      9  C   UNL     1      -4.242   0.521  24.468  0.00  0.00    +0.171 C 
ATOM     12  C   UNL     1      -5.512   1.906  26.675  0.00  0.00    +0.242 C 
ATOM     14  C   UNL     1      -5.684   0.438  26.362  0.00  0.00    +0.256 C 
ENDROOT
BRANCH   9  13
ATOM     13  C   UNL     1      -2.750   0.396  24.221  0.00  0.00    -0.017 A 
ATOM     17  C   UNL     1      -2.056   1.439  23.608  0.00  0.00    +0.008 A 
ATOM     18  C   UNL     1      -2.073  -0.762  24.605  0.00  0.00    +0.008 A 
ATOM     19  C   UNL     1      -0.684   1.325  23.379  0.00  0.00    +0.023 A 
ATOM     20  C   UNL     1      -0.702  -0.875  24.377  0.00  0.00    +0.023 A 
ATOM     21  C   UNL     1      -0.007   0.168  23.763  0.00  0.00    +0.033 A 
BRANCH  21   7
ATOM      4  O   UNL     1       1.510  -0.349  21.218  0.00  0.00    -0.273 OA
ATOM      7  N   UNL     1       1.364   0.053  23.535  0.00  0.00    -0.284 N 
ATOM     22  C   UNL     1       2.021  -0.187  22.321  0.00  0.00    +0.243 C 
ATOM     26  H   UNL     1       1.952   0.157  24.359  0.00  0.00    +0.155 HD
BRANCH  22  23
ATOM     23  C   UNL     1       3.525  -0.245  22.487  0.00  0.00    +0.255 C 
BRANCH  23   5
ATOM      5  O   UNL     1       3.939   0.855  23.270  0.00  0.00    -0.374 OA
ATOM     24  C   UNL     1       5.272   0.696  23.746  0.00  0.00    +0.194 C 
ENDBRANCH  23   5
ENDBRANCH  22  23
ENDBRANCH  21   7
ENDBRANCH   9  13
BRANCH   6  10
ATOM     10  C   UNL     1      -4.672   4.048  25.756  0.00  0.00    +0.070 C 
ATOM     15  C   UNL     1      -3.507   4.455  24.861  0.00  0.00    +0.028 C 
ATOM     16  C   UNL     1      -5.924   4.853  25.432  0.00  0.00    +0.028 C 
ENDBRANCH   6  10
BRANCH   8  11
ATOM     11  C   UNL     1      -5.971   2.089  23.451  0.00  0.00    +0.181 C 
BRANCH  11   2
ATOM      2  O   UNL     1      -7.096   1.846  24.269  0.00  0.00    -0.393 OA
ATOM     25  H   UNL     1      -7.817   1.550  23.689  0.00  0.00    +0.209 HD
ENDBRANCH  11   2
ENDBRANCH   8  11
TORSDOF 7
ENDMDL
