MODEL 1
REMARK VINA RESULT:      -4.4      0.000      0.000
REMARK  Name = 7134352
REMARK  12 active torsions:
REMARK  status: ('A' for Active; 'I' for Inactive)
REMARK    1  A    between atoms: S_1  and  N_12
REMARK    2  A    between atoms: S_1  and  C_23
REMARK    3  A    between atoms: O_7  and  C_22
REMARK    4  A    between atoms: O_7  and  C_29
REMARK    5  A    between atoms: O_9  and  C_31
REMARK    6  A    between atoms: N_12  and  C_15
REMARK    7  A    between atoms: N_13  and  C_24
REMARK    8  A    between atoms: C_17  and  C_20
REMARK    9  A    between atoms: C_21  and  C_22
REMARK   10  A    between atoms: C_24  and  C_25
REMARK   11  A    between atoms: C_25  and  C_30
REMARK   12  A    between atoms: C_29  and  C_31
REMARK                            x       y       z     vdW  Elec       q    Type
REMARK                         _______ _______ _______ _____ _____    ______ ____
ROOT
ATOM      4  O   UNL     1      -3.045   4.718  26.466  0.00  0.00    -0.273 OA
ATOM     11  N   UNL     1      -2.250   3.002  25.108  0.00  0.00    -0.288 N 
ATOM     15  C   UNL     1       0.022   1.461  24.134  0.00  0.00    +0.080 C 
ATOM     16  C   UNL     1      -1.183   1.727  23.232  0.00  0.00    +0.052 C 
ATOM     17  C   UNL     1      -2.462   2.039  24.015  0.00  0.00    +0.163 C 
ATOM     18  C   UNL     1       0.196   2.591  25.144  0.00  0.00    +0.039 C 
ATOM     19  C   UNL     1      -1.075   2.782  25.961  0.00  0.00    +0.110 C 
ATOM     21  C   UNL     1      -3.163   4.002  25.468  0.00  0.00    +0.242 C 
ENDROOT
BRANCH  17  20
ATOM      3  O   UNL     1      -3.041   0.612  25.839  0.00  0.00    -0.274 OA
ATOM     13  N   UNL     1      -3.598  -0.043  23.676  0.00  0.00    -0.313 N 
ATOM     20  C   UNL     1      -3.063   0.809  24.627  0.00  0.00    +0.234 C 
ATOM     33  H   UNL     1      -3.616   0.238  22.700  0.00  0.00    +0.149 HD
BRANCH  13  24
ATOM     24  C   UNL     1      -4.217  -1.306  24.005  0.00  0.00    +0.113 C 
BRANCH  24  25
ATOM     25  C   UNL     1      -3.419  -2.086  25.042  0.00  0.00    +0.114 C 
BRANCH  25  30
ATOM      8  O   UNL     1      -1.743  -3.167  23.655  0.00  0.00    -0.276 OA
ATOM     14  N   UNL     1      -1.051  -1.787  25.359  0.00  0.00    -0.329 N 
ATOM     30  C   UNL     1      -2.007  -2.417  24.590  0.00  0.00    +0.212 C 
ATOM     34  H   UNL     1      -0.062  -1.919  25.172  0.00  0.00    +0.145 HD
ATOM     35  H   UNL     1      -1.293  -1.173  26.130  0.00  0.00    +0.145 HD
ENDBRANCH  25  30
ENDBRANCH  24  25
ENDBRANCH  13  24
ENDBRANCH  17  20
BRANCH  15  12
ATOM     12  N   UNL     1       1.244   1.354  23.298  0.00  0.00    -0.186 NA
ATOM     32  H   UNL     1       1.980   2.043  23.494  0.00  0.00    +0.148 HD
BRANCH  12   1
ATOM      1  S   UNL     1       1.711  -0.204  22.768  0.00  0.00    +0.065 S 
ATOM      5  O   UNL     1       1.686  -0.246  21.318  0.00  0.00    -0.153 OA
ATOM      6  O   UNL     1       1.016  -1.197  23.563  0.00  0.00    -0.153 OA
BRANCH   1  23
ATOM      2  S   UNL     1       4.451   0.894  22.837  0.00  0.00    -0.077 S 
ATOM     23  C   UNL     1       3.431  -0.425  23.222  0.00  0.00    +0.142 A 
ATOM     26  C   UNL     1       4.120  -1.453  23.827  0.00  0.00    +0.036 A 
ATOM     27  C   UNL     1       5.505  -1.153  23.976  0.00  0.00    +0.010 A 
ATOM     28  C   UNL     1       5.821   0.092  23.480  0.00  0.00    +0.047 A 
ENDBRANCH   1  23
ENDBRANCH  12   1
ENDBRANCH  15  12
BRANCH  21  22
ATOM     22  C   UNL     1      -4.349   4.200  24.558  0.00  0.00    +0.256 C 
BRANCH  22   7
ATOM      7  O   UNL     1      -5.495   4.127  25.370  0.00  0.00    -0.359 OA
BRANCH   7  29
ATOM     29  C   UNL     1      -5.435   3.034  26.285  0.00  0.00    +0.280 C 
BRANCH  29  31
ATOM     10  O   UNL     1      -6.405   1.523  24.647  0.00  0.00    -0.248 OA
ATOM     31  C   UNL     1      -6.318   1.917  25.801  0.00  0.00    +0.331 C 
BRANCH  31   9
ATOM      9  O   UNL     1      -7.018   1.391  26.836  0.00  0.00    -0.479 OA
ATOM     36  H   UNL     1      -7.015   1.982  27.619  0.00  0.00    +0.295 HD
ENDBRANCH  31   9
ENDBRANCH  29  31
ENDBRANCH   7  29
ENDBRANCH  22   7
ENDBRANCH  21  22
TORSDOF 12
ENDMDL
MODEL 2
REMARK VINA RESULT:      -3.4      3.251      7.786
REMARK  Name = 7134352
REMARK  12 active torsions:
REMARK  status: ('A' for Active; 'I' for Inactive)
REMARK    1  A    between atoms: S_1  and  N_12
REMARK    2  A    between atoms: S_1  and  C_23
REMARK    3  A    between atoms: O_7  and  C_22
REMARK    4  A    between atoms: O_7  and  C_29
REMARK    5  A    between atoms: O_9  and  C_31
REMARK    6  A    between atoms: N_12  and  C_15
REMARK    7  A    between atoms: N_13  and  C_24
REMARK    8  A    between atoms: C_17  and  C_20
REMARK    9  A    between atoms: C_21  and  C_22
REMARK   10  A    between atoms: C_24  and  C_25
REMARK   11  A    between atoms: C_25  and  C_30
REMARK   12  A    between atoms: C_29  and  C_31
REMARK                            x       y       z     vdW  Elec       q    Type
REMARK                         _______ _______ _______ _____ _____    ______ ____
ROOT
ATOM      4  O   UNL     1       1.277  -1.795  24.438  0.00  0.00    -0.273 OA
ATOM     11  N   UNL     1      -0.451  -0.236  24.438  0.00  0.00    -0.288 N 
ATOM     15  C   UNL     1      -3.134   0.493  25.310  0.00  0.00    +0.080 C 
ATOM     16  C   UNL     1      -2.599   0.964  23.958  0.00  0.00    +0.052 C 
ATOM     17  C   UNL     1      -1.070   0.983  23.890  0.00  0.00    +0.163 C 
ATOM     18  C   UNL     1      -2.498  -0.836  25.705  0.00  0.00    +0.039 C 
ATOM     19  C   UNL     1      -0.979  -0.722  25.719  0.00  0.00    +0.110 C 
ATOM     21  C   UNL     1       0.684  -0.856  23.901  0.00  0.00    +0.242 C 
ENDROOT
BRANCH  17  20
ATOM      3  O   UNL     1      -0.388   3.258  24.133  0.00  0.00    -0.274 OA
ATOM     13  N   UNL     1      -0.069   1.791  25.912  0.00  0.00    -0.313 N 
ATOM     20  C   UNL     1      -0.486   2.144  24.639  0.00  0.00    +0.234 C 
ATOM     33  H   UNL     1      -0.246   0.853  26.258  0.00  0.00    +0.149 HD
BRANCH  13  24
ATOM     24  C   UNL     1       0.548   2.722  26.828  0.00  0.00    +0.113 C 
BRANCH  24  25
ATOM     25  C   UNL     1       0.563   2.199  28.257  0.00  0.00    +0.114 C 
BRANCH  25  30
ATOM      8  O   UNL     1       2.785   3.140  28.531  0.00  0.00    -0.276 OA
ATOM     14  N   UNL     1       1.959   1.753  30.167  0.00  0.00    -0.329 N 
ATOM     30  C   UNL     1       1.883   2.434  28.971  0.00  0.00    +0.212 C 
ATOM     34  H   UNL     1       2.787   1.816  30.751  0.00  0.00    +0.145 HD
ATOM     35  H   UNL     1       1.201   1.172  30.510  0.00  0.00    +0.145 HD
ENDBRANCH  25  30
ENDBRANCH  24  25
ENDBRANCH  13  24
ENDBRANCH  17  20
BRANCH  15  12
ATOM     12  N   UNL     1      -4.606   0.329  25.224  0.00  0.00    -0.186 NA
ATOM     32  H   UNL     1      -4.973  -0.580  25.529  0.00  0.00    +0.148 HD
BRANCH  12   1
ATOM      1  S   UNL     1      -5.576   1.718  25.463  0.00  0.00    +0.065 S 
ATOM      5  O   UNL     1      -6.157   1.676  26.792  0.00  0.00    -0.153 OA
ATOM      6  O   UNL     1      -6.399   1.922  24.287  0.00  0.00    -0.153 OA
BRANCH   1  23
ATOM      2  S   UNL     1      -4.239   3.859  23.933  0.00  0.00    -0.077 S 
ATOM     23  C   UNL     1      -4.481   3.136  25.465  0.00  0.00    +0.142 A 
ATOM     26  C   UNL     1      -3.777   3.781  26.459  0.00  0.00    +0.036 A 
ATOM     27  C   UNL     1      -3.029   4.884  25.955  0.00  0.00    +0.010 A 
ATOM     28  C   UNL     1      -3.189   5.040  24.596  0.00  0.00    +0.047 A 
ENDBRANCH   1  23
ENDBRANCH  12   1
ENDBRANCH  15  12
BRANCH  21  22
ATOM     22  C   UNL     1       1.184  -0.331  22.579  0.00  0.00    +0.256 C 
BRANCH  22   7
ATOM      7  O   UNL     1       2.167   0.632  22.876  0.00  0.00    -0.359 OA
BRANCH   7  29
ATOM     29  C   UNL     1       3.433   0.298  22.309  0.00  0.00    +0.280 C 
BRANCH  29  31
ATOM     10  O   UNL     1       5.253   0.765  23.850  0.00  0.00    -0.248 OA
ATOM     31  C   UNL     1       4.416  -0.007  23.405  0.00  0.00    +0.331 C 
BRANCH  31   9
ATOM      9  O   UNL     1       4.246  -1.278  23.846  0.00  0.00    -0.479 OA
ATOM     36  H   UNL     1       3.484  -1.355  24.459  0.00  0.00    +0.295 HD
ENDBRANCH  31   9
ENDBRANCH  29  31
ENDBRANCH   7  29
ENDBRANCH  22   7
ENDBRANCH  21  22
TORSDOF 12
ENDMDL
MODEL 3
REMARK VINA RESULT:      -2.5      2.624      6.538
REMARK  Name = 7134352
REMARK  12 active torsions:
REMARK  status: ('A' for Active; 'I' for Inactive)
REMARK    1  A    between atoms: S_1  and  N_12
REMARK    2  A    between atoms: S_1  and  C_23
REMARK    3  A    between atoms: O_7  and  C_22
REMARK    4  A    between atoms: O_7  and  C_29
REMARK    5  A    between atoms: O_9  and  C_31
REMARK    6  A    between atoms: N_12  and  C_15
REMARK    7  A    between atoms: N_13  and  C_24
REMARK    8  A    between atoms: C_17  and  C_20
REMARK    9  A    between atoms: C_21  and  C_22
REMARK   10  A    between atoms: C_24  and  C_25
REMARK   11  A    between atoms: C_25  and  C_30
REMARK   12  A    between atoms: C_29  and  C_31
REMARK                            x       y       z     vdW  Elec       q    Type
REMARK                         _______ _______ _______ _____ _____    ______ ____
ROOT
ATOM      4  O   UNL     1      -1.632  -1.897  26.490  0.00  0.00    -0.273 OA
ATOM     11  N   UNL     1      -0.841  -0.341  24.948  0.00  0.00    -0.288 N 
ATOM     15  C   UNL     1      -0.149   2.424  24.348  0.00  0.00    +0.080 C 
ATOM     16  C   UNL     1      -0.706   1.506  23.260  0.00  0.00    +0.052 C 
ATOM     17  C   UNL     1      -0.498   0.021  23.563  0.00  0.00    +0.163 C 
ATOM     18  C   UNL     1      -0.674   2.011  25.719  0.00  0.00    +0.039 C 
ATOM     19  C   UNL     1      -0.345   0.551  26.004  0.00  0.00    +0.110 C 
ATOM     21  C   UNL     1      -1.467  -1.537  25.321  0.00  0.00    +0.242 C 
ENDROOT
BRANCH  17  20
ATOM      3  O   UNL     1       1.456  -1.271  24.032  0.00  0.00    -0.274 OA
ATOM     13  N   UNL     1       1.525   0.291  22.306  0.00  0.00    -0.313 N 
ATOM     20  C   UNL     1       0.922  -0.408  23.339  0.00  0.00    +0.234 C 
ATOM     33  H   UNL     1       0.979   0.947  21.756  0.00  0.00    +0.149 HD
BRANCH  13  24
ATOM     24  C   UNL     1       2.897   0.082  21.906  0.00  0.00    +0.113 C 
BRANCH  24  25
ATOM     25  C   UNL     1       3.878   0.830  22.798  0.00  0.00    +0.114 C 
BRANCH  25  30
ATOM      8  O   UNL     1       6.124   0.209  23.482  0.00  0.00    -0.276 OA
ATOM     14  N   UNL     1       4.393  -1.242  23.910  0.00  0.00    -0.329 N 
ATOM     30  C   UNL     1       4.930  -0.069  23.423  0.00  0.00    +0.212 C 
ATOM     34  H   UNL     1       4.981  -1.940  24.353  0.00  0.00    +0.145 HD
ATOM     35  H   UNL     1       3.402  -1.452  23.848  0.00  0.00    +0.145 HD
ENDBRANCH  25  30
ENDBRANCH  24  25
ENDBRANCH  13  24
ENDBRANCH  17  20
BRANCH  15  12
ATOM     12  N   UNL     1      -0.557   3.823  24.065  0.00  0.00    -0.186 NA
ATOM     32  H   UNL     1      -0.630   4.074  23.072  0.00  0.00    +0.148 HD
BRANCH  12   1
ATOM      1  S   UNL     1      -1.613   4.584  25.174  0.00  0.00    +0.065 S 
ATOM      5  O   UNL     1      -1.763   5.981  24.815  0.00  0.00    -0.153 OA
ATOM      6  O   UNL     1      -1.246   4.185  26.519  0.00  0.00    -0.153 OA
BRANCH   1  23
ATOM      2  S   UNL     1      -4.194   3.779  26.361  0.00  0.00    -0.077 S 
ATOM     23  C   UNL     1      -3.236   3.855  24.945  0.00  0.00    +0.142 A 
ATOM     26  C   UNL     1      -3.888   3.334  23.850  0.00  0.00    +0.036 A 
ATOM     27  C   UNL     1      -5.192   2.864  24.178  0.00  0.00    +0.010 A 
ATOM     28  C   UNL     1      -5.488   3.045  25.511  0.00  0.00    +0.047 A 
ENDBRANCH   1  23
ENDBRANCH  12   1
ENDBRANCH  15  12
BRANCH  21  22
ATOM     22  C   UNL     1      -1.970  -2.418  24.204  0.00  0.00    +0.256 C 
BRANCH  22   7
ATOM      7  O   UNL     1      -3.246  -2.869  24.593  0.00  0.00    -0.359 OA
BRANCH   7  29
ATOM     29  C   UNL     1      -4.290  -2.153  23.935  0.00  0.00    +0.280 C 
BRANCH  29  31
ATOM     10  O   UNL     1      -4.492  -0.266  25.454  0.00  0.00    -0.248 OA
ATOM     31  C   UNL     1      -4.246  -0.705  24.340  0.00  0.00    +0.331 C 
BRANCH  31   9
ATOM      9  O   UNL     1      -3.889   0.066  23.282  0.00  0.00    -0.479 OA
ATOM     36  H   UNL     1      -3.635  -0.474  22.504  0.00  0.00    +0.295 HD
ENDBRANCH  31   9
ENDBRANCH  29  31
ENDBRANCH   7  29
ENDBRANCH  22   7
ENDBRANCH  21  22
TORSDOF 12
ENDMDL
MODEL 4
REMARK VINA RESULT:      -2.2      1.364      4.313
REMARK  Name = 7134352
REMARK  12 active torsions:
REMARK  status: ('A' for Active; 'I' for Inactive)
REMARK    1  A    between atoms: S_1  and  N_12
REMARK    2  A    between atoms: S_1  and  C_23
REMARK    3  A    between atoms: O_7  and  C_22
REMARK    4  A    between atoms: O_7  and  C_29
REMARK    5  A    between atoms: O_9  and  C_31
REMARK    6  A    between atoms: N_12  and  C_15
REMARK    7  A    between atoms: N_13  and  C_24
REMARK    8  A    between atoms: C_17  and  C_20
REMARK    9  A    between atoms: C_21  and  C_22
REMARK   10  A    between atoms: C_24  and  C_25
REMARK   11  A    between atoms: C_25  and  C_30
REMARK   12  A    between atoms: C_29  and  C_31
REMARK                            x       y       z     vdW  Elec       q    Type
REMARK                         _______ _______ _______ _____ _____    ______ ____
ROOT
ATOM      4  O   UNL     1      -4.691  -0.289  23.841  0.00  0.00    -0.273 OA
ATOM     11  N   UNL     1      -2.716   0.790  24.441  0.00  0.00    -0.288 N 
ATOM     15  C   UNL     1      -0.079   1.750  23.660  0.00  0.00    +0.080 C 
ATOM     16  C   UNL     1      -0.339   1.257  25.084  0.00  0.00    +0.052 C 
ATOM     17  C   UNL     1      -1.817   1.318  25.480  0.00  0.00    +0.163 C 
ATOM     18  C   UNL     1      -0.997   1.039  22.671  0.00  0.00    +0.039 C 
ATOM     19  C   UNL     1      -2.457   1.224  23.062  0.00  0.00    +0.110 C 
ATOM     21  C   UNL     1      -3.869   0.038  24.701  0.00  0.00    +0.242 C 
ENDROOT
BRANCH  17  20
ATOM      3  O   UNL     1      -1.551   3.514  26.379  0.00  0.00    -0.274 OA
ATOM     13  N   UNL     1      -3.547   2.967  25.313  0.00  0.00    -0.313 N 
ATOM     20  C   UNL     1      -2.265   2.719  25.774  0.00  0.00    +0.234 C 
ATOM     33  H   UNL     1      -4.035   2.258  24.774  0.00  0.00    +0.149 HD
BRANCH  13  24
ATOM     24  C   UNL     1      -4.219   4.234  25.490  0.00  0.00    +0.113 C 
BRANCH  24  25
ATOM     25  C   UNL     1      -5.735   4.087  25.483  0.00  0.00    +0.114 C 
BRANCH  25  30
ATOM      8  O   UNL     1      -6.153   2.237  27.001  0.00  0.00    -0.276 OA
ATOM     14  N   UNL     1      -6.693   1.994  24.780  0.00  0.00    -0.329 N 
ATOM     30  C   UNL     1      -6.207   2.694  25.863  0.00  0.00    +0.212 C 
ATOM     34  H   UNL     1      -7.042   1.047  24.886  0.00  0.00    +0.145 HD
ATOM     35  H   UNL     1      -6.727   2.391  23.847  0.00  0.00    +0.145 HD
ENDBRANCH  25  30
ENDBRANCH  24  25
ENDBRANCH  13  24
ENDBRANCH  17  20
BRANCH  15  12
ATOM     12  N   UNL     1       1.336   1.483  23.301  0.00  0.00    -0.186 NA
ATOM     32  H   UNL     1       2.037   2.038  23.806  0.00  0.00    +0.148 HD
BRANCH  12   1
ATOM      1  S   UNL     1       1.749  -0.108  22.826  0.00  0.00    +0.065 S 
ATOM      5  O   UNL     1       1.699  -0.206  21.379  0.00  0.00    -0.153 OA
ATOM      6  O   UNL     1       1.039  -1.048  23.671  0.00  0.00    -0.153 OA
BRANCH   1  23
ATOM      2  S   UNL     1       4.509   0.940  22.870  0.00  0.00    -0.077 S 
ATOM     23  C   UNL     1       3.469  -0.361  23.262  0.00  0.00    +0.142 A 
ATOM     26  C   UNL     1       4.146  -1.403  23.857  0.00  0.00    +0.036 A 
ATOM     27  C   UNL     1       5.537  -1.129  23.994  0.00  0.00    +0.010 A 
ATOM     28  C   UNL     1       5.871   0.112  23.498  0.00  0.00    +0.047 A 
ENDBRANCH   1  23
ENDBRANCH  12   1
ENDBRANCH  15  12
BRANCH  21  22
ATOM     22  C   UNL     1      -4.089  -0.396  26.129  0.00  0.00    +0.256 C 
BRANCH  22   7
ATOM      7  O   UNL     1      -3.178  -1.439  26.377  0.00  0.00    -0.359 OA
BRANCH   7  29
ATOM     29  C   UNL     1      -3.253  -2.463  25.386  0.00  0.00    +0.280 C 
BRANCH  29  31
ATOM     10  O   UNL     1      -1.746  -3.099  23.589  0.00  0.00    -0.248 OA
ATOM     31  C   UNL     1      -1.930  -2.590  24.685  0.00  0.00    +0.331 C 
BRANCH  31   9
ATOM      9  O   UNL     1      -0.943  -2.051  25.445  0.00  0.00    -0.479 OA
ATOM     36  H   UNL     1      -1.301  -1.494  26.169  0.00  0.00    +0.295 HD
ENDBRANCH  31   9
ENDBRANCH  29  31
ENDBRANCH   7  29
ENDBRANCH  22   7
ENDBRANCH  21  22
TORSDOF 12
ENDMDL
MODEL 5
REMARK VINA RESULT:      -2.2      2.852      6.799
REMARK  Name = 7134352
REMARK  12 active torsions:
REMARK  status: ('A' for Active; 'I' for Inactive)
REMARK    1  A    between atoms: S_1  and  N_12
REMARK    2  A    between atoms: S_1  and  C_23
REMARK    3  A    between atoms: O_7  and  C_22
REMARK    4  A    between atoms: O_7  and  C_29
REMARK    5  A    between atoms: O_9  and  C_31
REMARK    6  A    between atoms: N_12  and  C_15
REMARK    7  A    between atoms: N_13  and  C_24
REMARK    8  A    between atoms: C_17  and  C_20
REMARK    9  A    between atoms: C_21  and  C_22
REMARK   10  A    between atoms: C_24  and  C_25
REMARK   11  A    between atoms: C_25  and  C_30
REMARK   12  A    between atoms: C_29  and  C_31
REMARK                            x       y       z     vdW  Elec       q    Type
REMARK                         _______ _______ _______ _____ _____    ______ ____
ROOT
ATOM      4  O   UNL     1      -0.651  -1.346  26.631  0.00  0.00    -0.273 OA
ATOM     11  N   UNL     1      -0.614   0.446  25.145  0.00  0.00    -0.288 N 
ATOM     15  C   UNL     1      -1.140   3.268  24.649  0.00  0.00    +0.080 C 
ATOM     16  C   UNL     1      -1.298   2.237  23.531  0.00  0.00    +0.052 C 
ATOM     17  C   UNL     1      -0.487   0.961  23.772  0.00  0.00    +0.163 C 
ATOM     18  C   UNL     1      -1.412   2.630  26.008  0.00  0.00    +0.039 C 
ATOM     19  C   UNL     1      -0.502   1.429  26.230  0.00  0.00    +0.110 C 
ATOM     21  C   UNL     1      -0.680  -0.913  25.476  0.00  0.00    +0.242 C 
ENDROOT
BRANCH  17  20
ATOM      3  O   UNL     1       1.574   2.158  23.925  0.00  0.00    -0.274 OA
ATOM     13  N   UNL     1       1.527   0.138  22.768  0.00  0.00    -0.313 N 
ATOM     20  C   UNL     1       0.977   1.165  23.516  0.00  0.00    +0.234 C 
ATOM     33  H   UNL     1       0.960  -0.668  22.525  0.00  0.00    +0.149 HD
BRANCH  13  24
ATOM     24  C   UNL     1       2.915   0.108  22.367  0.00  0.00    +0.113 C 
BRANCH  24  25
ATOM     25  C   UNL     1       3.773  -0.706  23.326  0.00  0.00    +0.114 C 
BRANCH  25  30
ATOM      8  O   UNL     1       6.093  -0.224  22.793  0.00  0.00    -0.276 OA
ATOM     14  N   UNL     1       5.214   0.589  24.755  0.00  0.00    -0.329 N 
ATOM     30  C   UNL     1       5.146  -0.103  23.564  0.00  0.00    +0.212 C 
ATOM     34  H   UNL     1       6.074   1.044  25.046  0.00  0.00    +0.145 HD
ATOM     35  H   UNL     1       4.419   0.674  25.379  0.00  0.00    +0.145 HD
ENDBRANCH  25  30
ENDBRANCH  24  25
ENDBRANCH  13  24
ENDBRANCH  17  20
BRANCH  15  12
ATOM     12  N   UNL     1      -2.096   4.381  24.427  0.00  0.00    -0.186 NA
ATOM     32  H   UNL     1      -1.678   5.312  24.309  0.00  0.00    +0.148 HD
BRANCH  12   1
ATOM      1  S   UNL     1      -3.544   4.030  23.586  0.00  0.00    +0.065 S 
ATOM      5  O   UNL     1      -3.254   3.136  22.481  0.00  0.00    -0.153 OA
ATOM      6  O   UNL     1      -4.279   5.263  23.385  0.00  0.00    -0.153 OA
BRANCH   1  23
ATOM      2  S   UNL     1      -4.505   1.393  24.501  0.00  0.00    -0.077 S 
ATOM     23  C   UNL     1      -4.589   3.091  24.699  0.00  0.00    +0.142 A 
ATOM     26  C   UNL     1      -5.464   3.452  25.699  0.00  0.00    +0.036 A 
ATOM     27  C   UNL     1      -6.074   2.320  26.312  0.00  0.00    +0.010 A 
ATOM     28  C   UNL     1      -5.642   1.136  25.757  0.00  0.00    +0.047 A 
ENDBRANCH   1  23
ENDBRANCH  12   1
ENDBRANCH  15  12
BRANCH  21  22
ATOM     22  C   UNL     1      -0.805  -1.887  24.330  0.00  0.00    +0.256 C 
BRANCH  22   7
ATOM      7  O   UNL     1      -1.566  -2.971  24.806  0.00  0.00    -0.359 OA
BRANCH   7  29
ATOM     29  C   UNL     1      -2.725  -3.203  24.008  0.00  0.00    +0.280 C 
BRANCH  29  31
ATOM     10  O   UNL     1      -4.752  -1.888  23.744  0.00  0.00    -0.248 OA
ATOM     31  C   UNL     1      -3.835  -2.287  24.446  0.00  0.00    +0.331 C 
BRANCH  31   9
ATOM      9  O   UNL     1      -3.682  -1.958  25.753  0.00  0.00    -0.479 OA
ATOM     36  H   UNL     1      -2.810  -2.241  26.103  0.00  0.00    +0.295 HD
ENDBRANCH  31   9
ENDBRANCH  29  31
ENDBRANCH   7  29
ENDBRANCH  22   7
ENDBRANCH  21  22
TORSDOF 12
ENDMDL
MODEL 6
REMARK VINA RESULT:      -2.1      2.854      7.482
REMARK  Name = 7134352
REMARK  12 active torsions:
REMARK  status: ('A' for Active; 'I' for Inactive)
REMARK    1  A    between atoms: S_1  and  N_12
REMARK    2  A    between atoms: S_1  and  C_23
REMARK    3  A    between atoms: O_7  and  C_22
REMARK    4  A    between atoms: O_7  and  C_29
REMARK    5  A    between atoms: O_9  and  C_31
REMARK    6  A    between atoms: N_12  and  C_15
REMARK    7  A    between atoms: N_13  and  C_24
REMARK    8  A    between atoms: C_17  and  C_20
REMARK    9  A    between atoms: C_21  and  C_22
REMARK   10  A    between atoms: C_24  and  C_25
REMARK   11  A    between atoms: C_25  and  C_30
REMARK   12  A    between atoms: C_29  and  C_31
REMARK                            x       y       z     vdW  Elec       q    Type
REMARK                         _______ _______ _______ _____ _____    ______ ____
ROOT
ATOM      4  O   UNL     1       0.900  -0.192  21.297  0.00  0.00    -0.273 OA
ATOM     11  N   UNL     1       0.172   0.504  23.396  0.00  0.00    -0.288 N 
ATOM     15  C   UNL     1      -1.417   2.364  24.978  0.00  0.00    +0.080 C 
ATOM     16  C   UNL     1      -0.115   1.784  25.531  0.00  0.00    +0.052 C 
ATOM     17  C   UNL     1       0.289   0.468  24.863  0.00  0.00    +0.163 C 
ATOM     18  C   UNL     1      -1.360   2.455  23.457  0.00  0.00    +0.039 C 
ATOM     19  C   UNL     1      -1.057   1.092  22.847  0.00  0.00    +0.110 C 
ATOM     21  C   UNL     1       1.072  -0.110  22.516  0.00  0.00    +0.242 C 
ENDROOT
BRANCH  17  20
ATOM      3  O   UNL     1      -0.156  -1.847  25.245  0.00  0.00    -0.274 OA
ATOM     13  N   UNL     1      -1.765  -0.276  25.849  0.00  0.00    -0.313 N 
ATOM     20  C   UNL     1      -0.545  -0.685  25.338  0.00  0.00    +0.234 C 
ATOM     33  H   UNL     1      -1.969   0.715  25.934  0.00  0.00    +0.149 HD
BRANCH  13  24
ATOM     24  C   UNL     1      -2.760  -1.195  26.351  0.00  0.00    +0.113 C 
BRANCH  24  25
ATOM     25  C   UNL     1      -3.966  -1.300  25.427  0.00  0.00    +0.114 C 
BRANCH  25  30
ATOM      8  O   UNL     1      -4.516  -2.422  23.345  0.00  0.00    -0.276 OA
ATOM     14  N   UNL     1      -2.764  -3.217  24.604  0.00  0.00    -0.329 N 
ATOM     30  C   UNL     1      -3.802  -2.348  24.341  0.00  0.00    +0.212 C 
ATOM     34  H   UNL     1      -2.540  -3.971  23.963  0.00  0.00    +0.145 HD
ATOM     35  H   UNL     1      -2.188  -3.137  25.435  0.00  0.00    +0.145 HD
ENDBRANCH  25  30
ENDBRANCH  24  25
ENDBRANCH  13  24
ENDBRANCH  17  20
BRANCH  15  12
ATOM     12  N   UNL     1      -1.630   3.718  25.546  0.00  0.00    -0.186 NA
ATOM     32  H   UNL     1      -0.803   4.327  25.569  0.00  0.00    +0.148 HD
BRANCH  12   1
ATOM      1  S   UNL     1      -3.165   4.441  25.326  0.00  0.00    +0.065 S 
ATOM      5  O   UNL     1      -3.174   5.182  24.079  0.00  0.00    -0.153 OA
ATOM      6  O   UNL     1      -3.575   5.057  26.572  0.00  0.00    -0.153 OA
BRANCH   1  23
ATOM      2  S   UNL     1      -5.531   2.990  26.332  0.00  0.00    -0.077 S 
ATOM     23  C   UNL     1      -4.348   3.113  25.101  0.00  0.00    +0.142 A 
ATOM     26  C   UNL     1      -4.511   2.151  24.128  0.00  0.00    +0.036 A 
ATOM     27  C   UNL     1      -5.622   1.301  24.397  0.00  0.00    +0.010 A 
ATOM     28  C   UNL     1      -6.267   1.646  25.565  0.00  0.00    +0.047 A 
ENDBRANCH   1  23
ENDBRANCH  12   1
ENDBRANCH  15  12
BRANCH  21  22
ATOM     22  C   UNL     1       2.326  -0.690  23.121  0.00  0.00    +0.256 C 
BRANCH  22   7
ATOM      7  O   UNL     1       3.391  -0.300  22.289  0.00  0.00    -0.359 OA
BRANCH   7  29
ATOM     29  C   UNL     1       4.110   0.810  22.824  0.00  0.00    +0.280 C 
BRANCH  29  31
ATOM     10  O   UNL     1       6.298  -0.220  23.071  0.00  0.00    -0.248 OA
ATOM     31  C   UNL     1       5.321   0.320  23.569  0.00  0.00    +0.331 C 
BRANCH  31   9
ATOM      9  O   UNL     1       5.184   0.563  24.897  0.00  0.00    -0.479 OA
ATOM     36  H   UNL     1       5.151  -0.266  25.420  0.00  0.00    +0.295 HD
ENDBRANCH  31   9
ENDBRANCH  29  31
ENDBRANCH   7  29
ENDBRANCH  22   7
ENDBRANCH  21  22
TORSDOF 12
ENDMDL
MODEL 7
REMARK VINA RESULT:      -0.5      2.956      8.127
REMARK  Name = 7134352
REMARK  12 active torsions:
REMARK  status: ('A' for Active; 'I' for Inactive)
REMARK    1  A    between atoms: S_1  and  N_12
REMARK    2  A    between atoms: S_1  and  C_23
REMARK    3  A    between atoms: O_7  and  C_22
REMARK    4  A    between atoms: O_7  and  C_29
REMARK    5  A    between atoms: O_9  and  C_31
REMARK    6  A    between atoms: N_12  and  C_15
REMARK    7  A    between atoms: N_13  and  C_24
REMARK    8  A    between atoms: C_17  and  C_20
REMARK    9  A    between atoms: C_21  and  C_22
REMARK   10  A    between atoms: C_24  and  C_25
REMARK   11  A    between atoms: C_25  and  C_30
REMARK   12  A    between atoms: C_29  and  C_31
REMARK                            x       y       z     vdW  Elec       q    Type
REMARK                         _______ _______ _______ _____ _____    ______ ____
ROOT
ATOM      4  O   UNL     1       2.856  -1.511  23.326  0.00  0.00    -0.273 OA
ATOM     11  N   UNL     1       0.848  -0.344  23.486  0.00  0.00    -0.288 N 
ATOM     15  C   UNL     1      -1.996  -0.376  24.117  0.00  0.00    +0.080 C 
ATOM     16  C   UNL     1      -1.449   0.550  23.031  0.00  0.00    +0.052 C 
ATOM     17  C   UNL     1       0.042   0.854  23.195  0.00  0.00    +0.163 C 
ATOM     18  C   UNL     1      -1.136  -1.631  24.234  0.00  0.00    +0.039 C 
ATOM     19  C   UNL     1       0.318  -1.264  24.500  0.00  0.00    +0.110 C 
ATOM     21  C   UNL     1       2.132  -0.576  22.976  0.00  0.00    +0.242 C 
ENDROOT
BRANCH  17  20
ATOM      3  O   UNL     1       1.394   2.373  24.447  0.00  0.00    -0.274 OA
ATOM     13  N   UNL     1      -0.807   2.011  25.114  0.00  0.00    -0.313 N 
ATOM     20  C   UNL     1       0.301   1.832  24.302  0.00  0.00    +0.234 C 
ATOM     33  H   UNL     1      -1.684   1.559  24.876  0.00  0.00    +0.149 HD
BRANCH  13  24
ATOM     24  C   UNL     1      -0.811   2.885  26.264  0.00  0.00    +0.113 C 
BRANCH  24  25
ATOM     25  C   UNL     1      -1.791   4.040  26.106  0.00  0.00    +0.114 C 
BRANCH  25  30
ATOM      8  O   UNL     1      -0.371   4.950  24.359  0.00  0.00    -0.276 OA
ATOM     14  N   UNL     1      -2.097   6.236  25.168  0.00  0.00    -0.329 N 
ATOM     30  C   UNL     1      -1.327   5.092  25.115  0.00  0.00    +0.212 C 
ATOM     34  H   UNL     1      -1.900   7.025  24.562  0.00  0.00    +0.145 HD
ATOM     35  H   UNL     1      -2.882   6.332  25.803  0.00  0.00    +0.145 HD
ENDBRANCH  25  30
ENDBRANCH  24  25
ENDBRANCH  13  24
ENDBRANCH  17  20
BRANCH  15  12
ATOM     12  N   UNL     1      -3.388  -0.762  23.775  0.00  0.00    -0.186 NA
ATOM     32  H   UNL     1      -3.497  -1.669  23.305  0.00  0.00    +0.148 HD
BRANCH  12   1
ATOM      1  S   UNL     1      -4.638  -0.230  24.814  0.00  0.00    +0.065 S 
ATOM      5  O   UNL     1      -4.277  -0.518  26.189  0.00  0.00    -0.153 OA
ATOM      6  O   UNL     1      -5.913  -0.650  24.265  0.00  0.00    -0.153 OA
BRANCH   1  23
ATOM      2  S   UNL     1      -5.584   2.328  25.946  0.00  0.00    -0.077 S 
ATOM     23  C   UNL     1      -4.698   1.558  24.700  0.00  0.00    +0.142 A 
ATOM     26  C   UNL     1      -4.172   2.463  23.804  0.00  0.00    +0.036 A 
ATOM     27  C   UNL     1      -4.501   3.806  24.145  0.00  0.00    +0.010 A 
ATOM     28  C   UNL     1      -5.265   3.877  25.289  0.00  0.00    +0.047 A 
ENDBRANCH   1  23
ENDBRANCH  12   1
ENDBRANCH  15  12
BRANCH  21  22
ATOM     22  C   UNL     1       2.631   0.388  21.928  0.00  0.00    +0.256 C 
BRANCH  22   7
ATOM      7  O   UNL     1       4.035   0.289  21.929  0.00  0.00    -0.359 OA
BRANCH   7  29
ATOM     29  C   UNL     1       4.610   0.839  23.113  0.00  0.00    +0.280 C 
BRANCH  29  31
ATOM     10  O   UNL     1       6.803  -0.209  23.104  0.00  0.00    -0.248 OA
ATOM     31  C   UNL     1       5.702  -0.065  23.614  0.00  0.00    +0.331 C 
BRANCH  31   9
ATOM      9  O   UNL     1       5.295  -0.714  24.735  0.00  0.00    -0.479 OA
ATOM     36  H   UNL     1       4.347  -0.554  24.927  0.00  0.00    +0.295 HD
ENDBRANCH  31   9
ENDBRANCH  29  31
ENDBRANCH   7  29
ENDBRANCH  22   7
ENDBRANCH  21  22
TORSDOF 12
ENDMDL
