MODEL 1
REMARK VINA RESULT:      -3.2      0.000      0.000
REMARK  Name = 30734266
REMARK  5 active torsions:
REMARK  status: ('A' for Active; 'I' for Inactive)
REMARK    1  A    between atoms: N_2  and  C_22
REMARK    2  A    between atoms: N_4  and  C_13
REMARK    3  A    between atoms: C_6  and  C_12
REMARK    4  A    between atoms: C_7  and  C_13
REMARK    5  A    between atoms: C_15  and  C_16
REMARK                            x       y       z     vdW  Elec       q    Type
REMARK                         _______ _______ _______ _____ _____    ______ ____
ROOT
ATOM      1  N   UNL     1      -3.179   3.367  25.889  0.00  0.00    -0.298 NA
ATOM      5  C   UNL     1      -3.332   2.052  23.645  0.00  0.00    +0.002 C 
ATOM      6  C   UNL     1      -2.558   1.224  24.709  0.00  0.00    +0.055 C 
ATOM      7  C   UNL     1      -2.751   4.236  24.759  0.00  0.00    +0.070 C 
ATOM      8  C   UNL     1      -2.636   3.417  23.456  0.00  0.00    +0.024 C 
ATOM      9  C   UNL     1      -2.334   2.148  25.941  0.00  0.00    +0.094 C 
ATOM     10  C   UNL     1      -4.731   2.333  24.232  0.00  0.00    +0.019 C 
ATOM     11  C   UNL     1      -4.579   2.949  25.634  0.00  0.00    +0.085 C 
ENDROOT
BRANCH   6  12
ATOM      2  N   UNL     1      -1.145  -0.841  24.287  0.00  0.00    -0.271 N 
ATOM      3  N   UNL     1       0.060  -1.268  23.871  0.00  0.00    -0.176 NA
ATOM     12  C   UNL     1      -1.282   0.516  24.280  0.00  0.00    +0.044 A 
ATOM     14  C   UNL     1      -0.083   1.011  23.826  0.00  0.00    +0.048 A 
ATOM     16  C   UNL     1       0.704  -0.132  23.590  0.00  0.00    +0.066 A 
ATOM     22  C   UNL     1      -2.138  -1.811  24.687  0.00  0.00    +0.172 C 
BRANCH  16  15
ATOM     15  C   UNL     1       2.131  -0.182  23.077  0.00  0.00    +0.040 C 
ATOM     17  C   UNL     1       3.003  -1.145  23.901  0.00  0.00    +0.010 C 
ATOM     18  C   UNL     1       2.766   1.219  23.013  0.00  0.00    +0.010 C 
ATOM     19  C   UNL     1       4.435  -1.195  23.371  0.00  0.00    +0.001 C 
ATOM     20  C   UNL     1       4.199   1.158  22.487  0.00  0.00    +0.001 C 
ATOM     21  C   UNL     1       5.058   0.196  23.300  0.00  0.00    +0.000 C 
ENDBRANCH  16  15
ENDBRANCH   6  12
BRANCH   7  13
ATOM     13  C   UNL     1      -1.462   4.999  25.069  0.00  0.00    +0.096 C 
BRANCH  13   4
ATOM      4  N   UNL     1      -0.342   4.442  24.327  0.00  0.00    -0.329 NA
ATOM     23  H   UNL     1      -0.546   3.486  24.042  0.00  0.00    +0.118 HD
ATOM     24  H   UNL     1       0.473   4.385  24.937  0.00  0.00    +0.118 HD
ENDBRANCH  13   4
ENDBRANCH   7  13
TORSDOF 4
ENDMDL
MODEL 2
REMARK VINA RESULT:      -2.0      1.667      3.615
REMARK  Name = 30734266
REMARK  5 active torsions:
REMARK  status: ('A' for Active; 'I' for Inactive)
REMARK    1  A    between atoms: N_2  and  C_22
REMARK    2  A    between atoms: N_4  and  C_13
REMARK    3  A    between atoms: C_6  and  C_12
REMARK    4  A    between atoms: C_7  and  C_13
REMARK    5  A    between atoms: C_15  and  C_16
REMARK                            x       y       z     vdW  Elec       q    Type
REMARK                         _______ _______ _______ _____ _____    ______ ____
ROOT
ATOM      1  N   UNL     1      -4.291  -0.764  23.832  0.00  0.00    -0.298 NA
ATOM      5  C   UNL     1      -2.999   0.763  25.501  0.00  0.00    +0.002 C 
ATOM      6  C   UNL     1      -2.456   0.954  24.058  0.00  0.00    +0.055 C 
ATOM      7  C   UNL     1      -3.832  -1.562  25.000  0.00  0.00    +0.070 C 
ATOM      8  C   UNL     1      -2.891  -0.726  25.894  0.00  0.00    +0.024 C 
ATOM      9  C   UNL     1      -3.130  -0.127  23.163  0.00  0.00    +0.094 C 
ATOM     10  C   UNL     1      -4.502   1.114  25.461  0.00  0.00    +0.019 C 
ATOM     11  C   UNL     1      -5.180   0.310  24.337  0.00  0.00    +0.085 C 
ENDROOT
BRANCH   6  12
ATOM      2  N   UNL     1      -0.204   2.124  24.113  0.00  0.00    -0.271 N 
ATOM      3  N   UNL     1       1.109   1.966  23.873  0.00  0.00    -0.176 NA
ATOM     12  C   UNL     1      -0.949   1.009  23.858  0.00  0.00    +0.044 A 
ATOM     14  C   UNL     1      -0.060   0.056  23.424  0.00  0.00    +0.048 A 
ATOM     16  C   UNL     1       1.191   0.701  23.454  0.00  0.00    +0.066 A 
ATOM     22  C   UNL     1      -0.687   3.398  24.591  0.00  0.00    +0.172 C 
BRANCH  16  15
ATOM     15  C   UNL     1       2.540   0.119  23.073  0.00  0.00    +0.040 C 
ATOM     17  C   UNL     1       2.954  -1.028  24.010  0.00  0.00    +0.010 C 
ATOM     18  C   UNL     1       3.633   1.200  23.009  0.00  0.00    +0.010 C 
ATOM     19  C   UNL     1       4.308  -1.614  23.613  0.00  0.00    +0.001 C 
ATOM     20  C   UNL     1       4.984   0.605  22.616  0.00  0.00    +0.001 C 
ATOM     21  C   UNL     1       5.388  -0.537  23.542  0.00  0.00    +0.000 C 
ENDBRANCH  16  15
ENDBRANCH   6  12
BRANCH   7  13
ATOM     13  C   UNL     1      -3.193  -2.888  24.584  0.00  0.00    +0.096 C 
BRANCH  13   4
ATOM      4  N   UNL     1      -1.743  -2.783  24.577  0.00  0.00    -0.329 NA
ATOM     23  H   UNL     1      -1.333  -3.572  24.082  0.00  0.00    +0.118 HD
ATOM     24  H   UNL     1      -1.396  -2.840  25.533  0.00  0.00    +0.118 HD
ENDBRANCH  13   4
ENDBRANCH   7  13
TORSDOF 4
ENDMDL
MODEL 3
REMARK VINA RESULT:      -1.8     15.868     18.662
REMARK  Name = 30734266
REMARK  5 active torsions:
REMARK  status: ('A' for Active; 'I' for Inactive)
REMARK    1  A    between atoms: N_2  and  C_22
REMARK    2  A    between atoms: N_4  and  C_13
REMARK    3  A    between atoms: C_6  and  C_12
REMARK    4  A    between atoms: C_7  and  C_13
REMARK    5  A    between atoms: C_15  and  C_16
REMARK                            x       y       z     vdW  Elec       q    Type
REMARK                         _______ _______ _______ _____ _____    ______ ____
ROOT
ATOM      1  N   UNL     1      16.679  -2.542  22.386  0.00  0.00    -0.298 NA
ATOM      5  C   UNL     1      16.514  -2.305  24.975  0.00  0.00    +0.002 C 
ATOM      6  C   UNL     1      17.404  -3.521  24.596  0.00  0.00    +0.055 C 
ATOM      7  C   UNL     1      15.255  -2.406  22.795  0.00  0.00    +0.070 C 
ATOM      8  C   UNL     1      15.121  -2.472  24.331  0.00  0.00    +0.024 C 
ATOM      9  C   UNL     1      17.289  -3.717  23.057  0.00  0.00    +0.094 C 
ATOM     10  C   UNL     1      17.164  -1.060  24.333  0.00  0.00    +0.019 C 
ATOM     11  C   UNL     1      17.399  -1.327  22.835  0.00  0.00    +0.085 C 
ENDROOT
BRANCH   6  12
ATOM      2  N   UNL     1      17.213  -4.894  26.721  0.00  0.00    -0.271 N 
ATOM      3  N   UNL     1      17.020  -6.136  27.200  0.00  0.00    -0.176 NA
ATOM     12  C   UNL     1      17.206  -4.822  25.359  0.00  0.00    +0.044 A 
ATOM     14  C   UNL     1      16.992  -6.105  24.916  0.00  0.00    +0.048 A 
ATOM     16  C   UNL     1      16.885  -6.870  26.093  0.00  0.00    +0.066 A 
ATOM     22  C   UNL     1      17.404  -3.803  27.647  0.00  0.00    +0.172 C 
BRANCH  16  15
ATOM     15  C   UNL     1      16.645  -8.364  26.205  0.00  0.00    +0.040 C 
ATOM     17  C   UNL     1      15.413  -8.809  25.397  0.00  0.00    +0.010 C 
ATOM     18  C   UNL     1      16.537  -8.820  27.671  0.00  0.00    +0.010 C 
ATOM     19  C   UNL     1      15.186 -10.316  25.508  0.00  0.00    +0.001 C 
ATOM     20  C   UNL     1      16.305 -10.327  27.771  0.00  0.00    +0.001 C 
ATOM     21  C   UNL     1      15.088 -10.765  26.963  0.00  0.00    +0.000 C 
ENDBRANCH  16  15
ENDBRANCH   6  12
BRANCH   7  13
ATOM     13  C   UNL     1      14.349  -3.424  22.099  0.00  0.00    +0.096 C 
BRANCH  13   4
ATOM      4  N   UNL     1      13.141  -2.785  21.604  0.00  0.00    -0.329 NA
ATOM     23  H   UNL     1      13.019  -1.872  22.038  0.00  0.00    +0.118 HD
ATOM     24  H   UNL     1      12.330  -3.337  21.879  0.00  0.00    +0.118 HD
ENDBRANCH  13   4
ENDBRANCH   7  13
TORSDOF 4
ENDMDL
MODEL 4
REMARK VINA RESULT:      -1.4      1.523      2.201
REMARK  Name = 30734266
REMARK  5 active torsions:
REMARK  status: ('A' for Active; 'I' for Inactive)
REMARK    1  A    between atoms: N_2  and  C_22
REMARK    2  A    between atoms: N_4  and  C_13
REMARK    3  A    between atoms: C_6  and  C_12
REMARK    4  A    between atoms: C_7  and  C_13
REMARK    5  A    between atoms: C_15  and  C_16
REMARK                            x       y       z     vdW  Elec       q    Type
REMARK                         _______ _______ _______ _____ _____    ______ ____
ROOT
ATOM      1  N   UNL     1      -4.001   1.543  25.391  0.00  0.00    -0.298 NA
ATOM      5  C   UNL     1      -3.134   0.180  23.347  0.00  0.00    +0.002 C 
ATOM      6  C   UNL     1      -2.081   0.176  24.490  0.00  0.00    +0.055 C 
ATOM      7  C   UNL     1      -4.155   2.341  24.145  0.00  0.00    +0.070 C 
ATOM      8  C   UNL     1      -3.460   1.638  22.959  0.00  0.00    +0.024 C 
ATOM      9  C   UNL     1      -2.579   1.167  25.581  0.00  0.00    +0.094 C 
ATOM     10  C   UNL     1      -4.425  -0.434  23.929  0.00  0.00    +0.019 C 
ATOM     11  C   UNL     1      -4.791   0.298  25.233  0.00  0.00    +0.085 C 
ENDROOT
BRANCH   6  12
ATOM      2  N   UNL     1      -0.034   1.638  24.149  0.00  0.00    -0.271 N 
ATOM      3  N   UNL     1       1.262   1.628  23.792  0.00  0.00    -0.176 NA
ATOM     12  C   UNL     1      -0.622   0.406  24.124  0.00  0.00    +0.044 A 
ATOM     14  C   UNL     1       0.358  -0.469  23.725  0.00  0.00    +0.048 A 
ATOM     16  C   UNL     1       1.496   0.338  23.535  0.00  0.00    +0.066 A 
ATOM     22  C   UNL     1      -0.659   2.890  24.505  0.00  0.00    +0.172 C 
BRANCH  16  15
ATOM     15  C   UNL     1       2.878  -0.103  23.092  0.00  0.00    +0.040 C 
ATOM     17  C   UNL     1       3.447  -1.206  24.001  0.00  0.00    +0.010 C 
ATOM     18  C   UNL     1       3.853   1.083  22.988  0.00  0.00    +0.010 C 
ATOM     19  C   UNL     1       4.835  -1.650  23.540  0.00  0.00    +0.001 C 
ATOM     20  C   UNL     1       5.238   0.629  22.531  0.00  0.00    +0.001 C 
ATOM     21  C   UNL     1       5.796  -0.470  23.429  0.00  0.00    +0.000 C 
ENDBRANCH  16  15
ENDBRANCH   6  12
BRANCH   7  13
ATOM     13  C   UNL     1      -3.673   3.783  24.314  0.00  0.00    +0.096 C 
BRANCH  13   4
ATOM      4  N   UNL     1      -3.839   4.224  25.690  0.00  0.00    -0.329 NA
ATOM     23  H   UNL     1      -4.073   3.435  26.289  0.00  0.00    +0.118 HD
ATOM     24  H   UNL     1      -4.631   4.863  25.747  0.00  0.00    +0.118 HD
ENDBRANCH  13   4
ENDBRANCH   7  13
TORSDOF 4
ENDMDL
MODEL 5
REMARK VINA RESULT:      -0.7      1.431      2.542
REMARK  Name = 30734266
REMARK  5 active torsions:
REMARK  status: ('A' for Active; 'I' for Inactive)
REMARK    1  A    between atoms: N_2  and  C_22
REMARK    2  A    between atoms: N_4  and  C_13
REMARK    3  A    between atoms: C_6  and  C_12
REMARK    4  A    between atoms: C_7  and  C_13
REMARK    5  A    between atoms: C_15  and  C_16
REMARK                            x       y       z     vdW  Elec       q    Type
REMARK                         _______ _______ _______ _____ _____    ______ ____
ROOT
ATOM      1  N   UNL     1      -3.918   2.574  23.863  0.00  0.00    -0.298 NA
ATOM      5  C   UNL     1      -1.788   2.799  25.346  0.00  0.00    +0.002 C 
ATOM      6  C   UNL     1      -1.395   2.490  23.874  0.00  0.00    +0.055 C 
ATOM      7  C   UNL     1      -4.056   1.733  25.082  0.00  0.00    +0.070 C 
ATOM      8  C   UNL     1      -2.727   1.690  25.867  0.00  0.00    +0.024 C 
ATOM      9  C   UNL     1      -2.709   2.172  23.102  0.00  0.00    +0.094 C 
ATOM     10  C   UNL     1      -2.602   4.110  25.323  0.00  0.00    +0.019 C 
ATOM     11  C   UNL     1      -3.743   3.981  24.299  0.00  0.00    +0.085 C 
ENDROOT
BRANCH   6  12
ATOM      2  N   UNL     1      -0.577   0.120  23.479  0.00  0.00    -0.271 N 
ATOM      3  N   UNL     1       0.517  -0.631  23.262  0.00  0.00    -0.176 NA
ATOM     12  C   UNL     1      -0.313   1.451  23.622  0.00  0.00    +0.044 A 
ATOM     14  C   UNL     1       1.048   1.579  23.486  0.00  0.00    +0.048 A 
ATOM     16  C   UNL     1       1.506   0.266  23.266  0.00  0.00    +0.066 A 
ATOM     22  C   UNL     1      -1.871  -0.520  23.543  0.00  0.00    +0.172 C 
BRANCH  16  15
ATOM     15  C   UNL     1       2.937  -0.189  23.048  0.00  0.00    +0.040 C 
ATOM     17  C   UNL     1       3.326  -1.333  24.000  0.00  0.00    +0.010 C 
ATOM     18  C   UNL     1       3.933   0.980  23.155  0.00  0.00    +0.010 C 
ATOM     19  C   UNL     1       4.765  -1.790  23.766  0.00  0.00    +0.001 C 
ATOM     20  C   UNL     1       5.369   0.512  22.925  0.00  0.00    +0.001 C 
ATOM     21  C   UNL     1       5.748  -0.627  23.864  0.00  0.00    +0.000 C 
ENDBRANCH  16  15
ENDBRANCH   6  12
BRANCH   7  13
ATOM     13  C   UNL     1      -4.577   0.330  24.766  0.00  0.00    +0.096 C 
BRANCH  13   4
ATOM      4  N   UNL     1      -4.004  -0.650  25.674  0.00  0.00    -0.329 NA
ATOM     23  H   UNL     1      -3.193  -0.260  26.150  0.00  0.00    +0.118 HD
ATOM     24  H   UNL     1      -3.660  -1.446  25.139  0.00  0.00    +0.118 HD
ENDBRANCH  13   4
ENDBRANCH   7  13
TORSDOF 4
ENDMDL
