MODEL 1
REMARK VINA RESULT:      -6.0      0.000      0.000
REMARK  Name = 38029904
REMARK  9 active torsions:
REMARK  status: ('A' for Active; 'I' for Inactive)
REMARK    1  A    between atoms: N_2  and  C_13
REMARK    2  A    between atoms: C_4  and  C_8
REMARK    3  A    between atoms: C_6  and  C_11
REMARK    4  A    between atoms: C_7  and  C_12
REMARK    5  A    between atoms: C_8  and  C_14
REMARK    6  A    between atoms: C_8  and  C_15
REMARK    7  A    between atoms: C_9  and  C_19
REMARK    8  A    between atoms: C_11  and  C_18
REMARK    9  A    between atoms: C_12  and  C_23
REMARK                            x       y       z     vdW  Elec       q    Type
REMARK                         _______ _______ _______ _____ _____    ______ ____
ROOT
ATOM      4  C   UNL     1      -0.880   0.653  24.405  0.00  0.00    -0.000 C 
ATOM      5  C   UNL     1      -1.860   0.391  25.558  0.00  0.00    +0.012 C 
ATOM      6  C   UNL     1      -2.880  -0.711  25.217  0.00  0.00    +0.023 C 
ATOM      7  C   UNL     1      -0.103  -0.640  24.051  0.00  0.00    +0.029 C 
ATOM      9  C   UNL     1      -2.211  -1.928  24.609  0.00  0.00    -0.073 C 
ATOM     10  C   UNL     1      -0.965  -1.881  24.105  0.00  0.00    -0.023 C 
ATOM     19  C   UNL     1      -2.991  -3.213  24.634  0.00  0.00    +0.039 C 
ENDROOT
BRANCH   4   8
ATOM      8  C   UNL     1       0.066   1.800  24.778  0.00  0.00    -0.013 C 
ATOM     14  C   UNL     1      -0.124   2.977  23.826  0.00  0.00    +0.007 C 
ATOM     15  C   UNL     1      -0.164   2.229  26.223  0.00  0.00    +0.007 C 
ENDBRANCH   4   8
BRANCH   6  11
ATOM     11  C   UNL     1      -3.986  -0.177  24.299  0.00  0.00    +0.103 C 
BRANCH  11  18
ATOM      1  O   UNL     1      -5.481   1.041  25.762  0.00  0.00    -0.276 OA
ATOM      2  N   UNL     1      -4.175   2.205  24.231  0.00  0.00    -0.312 N 
ATOM     18  C   UNL     1      -4.643   1.063  24.863  0.00  0.00    +0.214 C 
ATOM     24  H   UNL     1      -3.445   2.116  23.532  0.00  0.00    +0.149 HD
BRANCH   2  13
ATOM     13  C   UNL     1      -4.632   3.536  24.566  0.00  0.00    +0.073 C 
ATOM     16  C   UNL     1      -4.514   3.795  26.072  0.00  0.00    +0.022 C 
ATOM     17  C   UNL     1      -3.877   4.597  23.758  0.00  0.00    +0.022 C 
ATOM     20  C   UNL     1      -3.063   3.958  26.525  0.00  0.00    +0.002 C 
ATOM     21  C   UNL     1      -2.427   4.758  24.216  0.00  0.00    +0.002 C 
ATOM     22  C   UNL     1      -2.336   5.028  25.714  0.00  0.00    +0.000 C 
ENDBRANCH   2  13
ENDBRANCH  11  18
ENDBRANCH   6  11
BRANCH   7  12
ATOM     12  C   UNL     1       0.551  -0.533  22.670  0.00  0.00    +0.126 C 
BRANCH  12  23
ATOM      3  N   UNL     1       2.979   0.445  22.852  0.00  0.00    -0.197 NA
ATOM     23  C   UNL     1       1.904   0.011  22.778  0.00  0.00    +0.063 C 
ENDBRANCH  12  23
ENDBRANCH   7  12
TORSDOF 6
ENDMDL
MODEL 2
REMARK VINA RESULT:      -4.7      2.224      5.752
REMARK  Name = 38029904
REMARK  9 active torsions:
REMARK  status: ('A' for Active; 'I' for Inactive)
REMARK    1  A    between atoms: N_2  and  C_13
REMARK    2  A    between atoms: C_4  and  C_8
REMARK    3  A    between atoms: C_6  and  C_11
REMARK    4  A    between atoms: C_7  and  C_12
REMARK    5  A    between atoms: C_8  and  C_14
REMARK    6  A    between atoms: C_8  and  C_15
REMARK    7  A    between atoms: C_9  and  C_19
REMARK    8  A    between atoms: C_11  and  C_18
REMARK    9  A    between atoms: C_12  and  C_23
REMARK                            x       y       z     vdW  Elec       q    Type
REMARK                         _______ _______ _______ _____ _____    ______ ____
ROOT
ATOM      4  C   UNL     1      -3.908   3.025  25.512  0.00  0.00    -0.000 C 
ATOM      5  C   UNL     1      -3.079   3.705  26.613  0.00  0.00    +0.012 C 
ATOM      6  C   UNL     1      -1.592   3.824  26.233  0.00  0.00    +0.023 C 
ATOM      7  C   UNL     1      -3.802   3.821  24.187  0.00  0.00    +0.029 C 
ATOM      9  C   UNL     1      -1.411   4.355  24.826  0.00  0.00    -0.073 C 
ATOM     10  C   UNL     1      -2.413   4.359  23.929  0.00  0.00    -0.023 C 
ATOM     19  C   UNL     1      -0.062   4.926  24.485  0.00  0.00    +0.039 C 
ENDROOT
BRANCH   4   8
ATOM      8  C   UNL     1      -5.362   2.879  25.973  0.00  0.00    -0.013 C 
ATOM     14  C   UNL     1      -6.138   4.163  25.700  0.00  0.00    +0.007 C 
ATOM     15  C   UNL     1      -6.021   1.689  25.282  0.00  0.00    +0.007 C 
ENDBRANCH   4   8
BRANCH   6  11
ATOM     11  C   UNL     1      -0.867   2.485  26.411  0.00  0.00    +0.103 C 
BRANCH  11  18
ATOM      1  O   UNL     1      -0.012   1.878  24.231  0.00  0.00    -0.276 OA
ATOM      2  N   UNL     1      -1.825   0.721  25.112  0.00  0.00    -0.312 N 
ATOM     18  C   UNL     1      -0.827   1.684  25.129  0.00  0.00    +0.214 C 
ATOM     24  H   UNL     1      -2.417   0.613  25.929  0.00  0.00    +0.149 HD
BRANCH   2  13
ATOM     13  C   UNL     1      -2.026  -0.189  24.007  0.00  0.00    +0.073 C 
ATOM     16  C   UNL     1      -1.215  -1.475  24.200  0.00  0.00    +0.022 C 
ATOM     17  C   UNL     1      -3.514  -0.495  23.808  0.00  0.00    +0.022 C 
ATOM     20  C   UNL     1      -1.786  -2.366  25.303  0.00  0.00    +0.002 C 
ATOM     21  C   UNL     1      -4.080  -1.388  24.912  0.00  0.00    +0.002 C 
ATOM     22  C   UNL     1      -3.265  -2.666  25.076  0.00  0.00    +0.000 C 
ENDBRANCH   2  13
ENDBRANCH  11  18
ENDBRANCH   6  11
BRANCH   7  12
ATOM     12  C   UNL     1      -4.250   2.971  22.993  0.00  0.00    +0.126 C 
BRANCH  12  23
ATOM      3  N   UNL     1      -2.189   2.169  21.582  0.00  0.00    -0.197 NA
ATOM     23  C   UNL     1      -3.098   2.528  22.210  0.00  0.00    +0.063 C 
ENDBRANCH  12  23
ENDBRANCH   7  12
TORSDOF 6
ENDMDL
MODEL 3
REMARK VINA RESULT:      -4.0      1.446      3.693
REMARK  Name = 38029904
REMARK  9 active torsions:
REMARK  status: ('A' for Active; 'I' for Inactive)
REMARK    1  A    between atoms: N_2  and  C_13
REMARK    2  A    between atoms: C_4  and  C_8
REMARK    3  A    between atoms: C_6  and  C_11
REMARK    4  A    between atoms: C_7  and  C_12
REMARK    5  A    between atoms: C_8  and  C_14
REMARK    6  A    between atoms: C_8  and  C_15
REMARK    7  A    between atoms: C_9  and  C_19
REMARK    8  A    between atoms: C_11  and  C_18
REMARK    9  A    between atoms: C_12  and  C_23
REMARK                            x       y       z     vdW  Elec       q    Type
REMARK                         _______ _______ _______ _____ _____    ______ ____
ROOT
ATOM      4  C   UNL     1      -3.309  -0.698  24.822  0.00  0.00    -0.000 C 
ATOM      5  C   UNL     1      -4.703  -0.319  24.301  0.00  0.00    +0.012 C 
ATOM      6  C   UNL     1      -4.873   1.204  24.148  0.00  0.00    +0.023 C 
ATOM      7  C   UNL     1      -2.212  -0.176  23.860  0.00  0.00    +0.029 C 
ATOM      9  C   UNL     1      -3.692   1.835  23.439  0.00  0.00    -0.073 C 
ATOM     10  C   UNL     1      -2.515   1.198  23.308  0.00  0.00    -0.023 C 
ATOM     19  C   UNL     1      -3.909   3.197  22.843  0.00  0.00    +0.039 C 
ENDROOT
BRANCH   4   8
ATOM      8  C   UNL     1      -3.222  -2.216  25.013  0.00  0.00    -0.013 C 
ATOM     14  C   UNL     1      -4.141  -2.930  24.027  0.00  0.00    +0.007 C 
ATOM     15  C   UNL     1      -1.782  -2.691  24.853  0.00  0.00    +0.007 C 
ENDBRANCH   4   8
BRANCH   6  11
ATOM     11  C   UNL     1      -5.118   1.872  25.507  0.00  0.00    +0.103 C 
BRANCH  11  18
ATOM      1  O   UNL     1      -4.755   4.264  25.478  0.00  0.00    -0.276 OA
ATOM      2  N   UNL     1      -3.008   2.848  26.066  0.00  0.00    -0.312 N 
ATOM     18  C   UNL     1      -4.307   3.137  25.673  0.00  0.00    +0.214 C 
ATOM     24  H   UNL     1      -2.754   1.882  26.246  0.00  0.00    +0.149 HD
BRANCH   2  13
ATOM     13  C   UNL     1      -2.008   3.865  26.299  0.00  0.00    +0.073 C 
ATOM     16  C   UNL     1      -0.735   3.258  26.900  0.00  0.00    +0.022 C 
ATOM     17  C   UNL     1      -1.701   4.640  25.013  0.00  0.00    +0.022 C 
ATOM     20  C   UNL     1       0.051   2.428  25.886  0.00  0.00    +0.002 C 
ATOM     21  C   UNL     1      -0.912   3.806  24.003  0.00  0.00    +0.002 C 
ATOM     22  C   UNL     1       0.354   3.224  24.620  0.00  0.00    +0.000 C 
ENDBRANCH   2  13
ENDBRANCH  11  18
ENDBRANCH   6  11
BRANCH   7  12
ATOM     12  C   UNL     1      -0.840  -0.161  24.542  0.00  0.00    +0.126 C 
BRANCH  12  23
ATOM      3  N   UNL     1       1.092  -0.129  22.768  0.00  0.00    -0.197 NA
ATOM     23  C   UNL     1       0.233  -0.146  23.549  0.00  0.00    +0.063 C 
ENDBRANCH  12  23
ENDBRANCH   7  12
TORSDOF 6
ENDMDL
MODEL 4
REMARK VINA RESULT:      -3.9      2.021      5.649
REMARK  Name = 38029904
REMARK  9 active torsions:
REMARK  status: ('A' for Active; 'I' for Inactive)
REMARK    1  A    between atoms: N_2  and  C_13
REMARK    2  A    between atoms: C_4  and  C_8
REMARK    3  A    between atoms: C_6  and  C_11
REMARK    4  A    between atoms: C_7  and  C_12
REMARK    5  A    between atoms: C_8  and  C_14
REMARK    6  A    between atoms: C_8  and  C_15
REMARK    7  A    between atoms: C_9  and  C_19
REMARK    8  A    between atoms: C_11  and  C_18
REMARK    9  A    between atoms: C_12  and  C_23
REMARK                            x       y       z     vdW  Elec       q    Type
REMARK                         _______ _______ _______ _____ _____    ______ ____
ROOT
ATOM      4  C   UNL     1      -2.039   3.436  25.120  0.00  0.00    -0.000 C 
ATOM      5  C   UNL     1      -1.033   3.640  23.977  0.00  0.00    +0.012 C 
ATOM      6  C   UNL     1      -0.902   2.391  23.087  0.00  0.00    +0.023 C 
ATOM      7  C   UNL     1      -3.439   3.091  24.552  0.00  0.00    +0.029 C 
ATOM      9  C   UNL     1      -2.256   1.829  22.702  0.00  0.00    -0.073 C 
ATOM     10  C   UNL     1      -3.381   2.164  23.360  0.00  0.00    -0.023 C 
ATOM     19  C   UNL     1      -2.296   0.909  21.515  0.00  0.00    +0.039 C 
ENDROOT
BRANCH   4   8
ATOM      8  C   UNL     1      -2.078   4.686  26.006  0.00  0.00    -0.013 C 
ATOM     14  C   UNL     1      -1.758   5.931  25.184  0.00  0.00    +0.007 C 
ATOM     15  C   UNL     1      -3.439   4.817  26.681  0.00  0.00    +0.007 C 
ENDBRANCH   4   8
BRANCH   6  11
ATOM     11  C   UNL     1      -0.035   1.320  23.759  0.00  0.00    +0.103 C 
BRANCH  11  18
ATOM      1  O   UNL     1      -0.760   1.133  26.060  0.00  0.00    -0.276 OA
ATOM      2  N   UNL     1      -1.353  -0.518  24.534  0.00  0.00    -0.312 N 
ATOM     18  C   UNL     1      -0.742   0.665  24.924  0.00  0.00    +0.214 C 
ATOM     24  H   UNL     1      -1.317  -0.790  23.558  0.00  0.00    +0.149 HD
BRANCH   2  13
ATOM     13  C   UNL     1      -2.100  -1.358  25.444  0.00  0.00    +0.073 C 
ATOM     16  C   UNL     1      -3.554  -0.885  25.560  0.00  0.00    +0.022 C 
ATOM     17  C   UNL     1      -2.026  -2.829  25.022  0.00  0.00    +0.022 C 
ATOM     20  C   UNL     1      -4.366  -1.178  24.299  0.00  0.00    +0.002 C 
ATOM     21  C   UNL     1      -2.841  -3.118  23.762  0.00  0.00    +0.002 C 
ATOM     22  C   UNL     1      -4.286  -2.651  23.906  0.00  0.00    +0.000 C 
ENDBRANCH   2  13
ENDBRANCH  11  18
ENDBRANCH   6  11
BRANCH   7  12
ATOM     12  C   UNL     1      -4.339   2.479  25.631  0.00  0.00    +0.126 C 
BRANCH  12  23
ATOM      3  N   UNL     1      -6.687   1.849  24.645  0.00  0.00    -0.197 NA
ATOM     23  C   UNL     1      -5.644   2.124  25.077  0.00  0.00    +0.063 C 
ENDBRANCH  12  23
ENDBRANCH   7  12
TORSDOF 6
ENDMDL
MODEL 5
REMARK VINA RESULT:      -3.3      2.409      6.797
REMARK  Name = 38029904
REMARK  9 active torsions:
REMARK  status: ('A' for Active; 'I' for Inactive)
REMARK    1  A    between atoms: N_2  and  C_13
REMARK    2  A    between atoms: C_4  and  C_8
REMARK    3  A    between atoms: C_6  and  C_11
REMARK    4  A    between atoms: C_7  and  C_12
REMARK    5  A    between atoms: C_8  and  C_14
REMARK    6  A    between atoms: C_8  and  C_15
REMARK    7  A    between atoms: C_9  and  C_19
REMARK    8  A    between atoms: C_11  and  C_18
REMARK    9  A    between atoms: C_12  and  C_23
REMARK                            x       y       z     vdW  Elec       q    Type
REMARK                         _______ _______ _______ _____ _____    ______ ____
ROOT
ATOM      4  C   UNL     1      -2.376  -0.837  24.421  0.00  0.00    -0.000 C 
ATOM      5  C   UNL     1      -0.865  -0.998  24.647  0.00  0.00    +0.012 C 
ATOM      6  C   UNL     1      -0.137   0.357  24.711  0.00  0.00    +0.023 C 
ATOM      7  C   UNL     1      -3.006   0.005  25.560  0.00  0.00    +0.029 C 
ATOM      9  C   UNL     1      -0.855   1.340  25.615  0.00  0.00    -0.073 C 
ATOM     10  C   UNL     1      -2.132   1.159  25.995  0.00  0.00    -0.023 C 
ATOM     19  C   UNL     1      -0.056   2.512  26.110  0.00  0.00    +0.039 C 
ENDROOT
BRANCH   4   8
ATOM      8  C   UNL     1      -3.033  -2.216  24.303  0.00  0.00    -0.013 C 
ATOM     14  C   UNL     1      -3.203  -2.844  25.683  0.00  0.00    +0.007 C 
ATOM     15  C   UNL     1      -4.377  -2.105  23.590  0.00  0.00    +0.007 C 
ENDBRANCH   4   8
BRANCH   6  11
ATOM     11  C   UNL     1       0.060   0.945  23.309  0.00  0.00    +0.103 C 
BRANCH  11  18
ATOM      1  O   UNL     1       0.887  -0.680  21.718  0.00  0.00    -0.276 OA
ATOM      2  N   UNL     1       2.393   0.675  22.858  0.00  0.00    -0.312 N 
ATOM     18  C   UNL     1       1.128   0.210  22.530  0.00  0.00    +0.214 C 
ATOM     24  H   UNL     1       2.478   1.450  23.508  0.00  0.00    +0.149 HD
BRANCH   2  13
ATOM     13  C   UNL     1       3.604   0.152  22.268  0.00  0.00    +0.073 C 
ATOM     16  C   UNL     1       4.822   0.986  22.681  0.00  0.00    +0.022 C 
ATOM     17  C   UNL     1       3.797  -1.326  22.623  0.00  0.00    +0.022 C 
ATOM     20  C   UNL     1       5.203   0.777  24.146  0.00  0.00    +0.002 C 
ATOM     21  C   UNL     1       4.180  -1.530  24.088  0.00  0.00    +0.002 C 
ATOM     22  C   UNL     1       5.400  -0.701  24.472  0.00  0.00    +0.000 C 
ENDBRANCH   2  13
ENDBRANCH  11  18
ENDBRANCH   6  11
BRANCH   7  12
ATOM     12  C   UNL     1      -4.387   0.534  25.158  0.00  0.00    +0.126 C 
BRANCH  12  23
ATOM      3  N   UNL     1      -4.171   2.814  23.880  0.00  0.00    -0.197 NA
ATOM     23  C   UNL     1      -4.268   1.802  24.440  0.00  0.00    +0.063 C 
ENDBRANCH  12  23
ENDBRANCH   7  12
TORSDOF 6
ENDMDL
MODEL 6
REMARK VINA RESULT:      -2.9      2.216      4.268
REMARK  Name = 38029904
REMARK  9 active torsions:
REMARK  status: ('A' for Active; 'I' for Inactive)
REMARK    1  A    between atoms: N_2  and  C_13
REMARK    2  A    between atoms: C_4  and  C_8
REMARK    3  A    between atoms: C_6  and  C_11
REMARK    4  A    between atoms: C_7  and  C_12
REMARK    5  A    between atoms: C_8  and  C_14
REMARK    6  A    between atoms: C_8  and  C_15
REMARK    7  A    between atoms: C_9  and  C_19
REMARK    8  A    between atoms: C_11  and  C_18
REMARK    9  A    between atoms: C_12  and  C_23
REMARK                            x       y       z     vdW  Elec       q    Type
REMARK                         _______ _______ _______ _____ _____    ______ ____
ROOT
ATOM      4  C   UNL     1      -2.075   0.379  24.354  0.00  0.00    -0.000 C 
ATOM      5  C   UNL     1      -1.575   1.505  23.436  0.00  0.00    +0.012 C 
ATOM      6  C   UNL     1      -0.059   1.736  23.570  0.00  0.00    +0.023 C 
ATOM      7  C   UNL     1      -1.346  -0.949  24.027  0.00  0.00    +0.029 C 
ATOM      9  C   UNL     1       0.716   0.434  23.525  0.00  0.00    -0.073 C 
ATOM     10  C   UNL     1       0.122  -0.757  23.718  0.00  0.00    -0.023 C 
ATOM     19  C   UNL     1       2.182   0.528  23.208  0.00  0.00    +0.039 C 
ENDROOT
BRANCH   4   8
ATOM      8  C   UNL     1      -3.595   0.239  24.223  0.00  0.00    -0.013 C 
ATOM     14  C   UNL     1      -3.945  -0.747  23.113  0.00  0.00    +0.007 C 
ATOM     15  C   UNL     1      -4.204  -0.200  25.551  0.00  0.00    +0.007 C 
ENDBRANCH   4   8
BRANCH   6  11
ATOM     11  C   UNL     1       0.270   2.526  24.841  0.00  0.00    +0.103 C 
BRANCH  11  18
ATOM      1  O   UNL     1      -0.199   4.888  24.602  0.00  0.00    -0.276 OA
ATOM      2  N   UNL     1      -1.800   3.493  25.546  0.00  0.00    -0.312 N 
ATOM     18  C   UNL     1      -0.572   3.776  24.967  0.00  0.00    +0.214 C 
ATOM     24  H   UNL     1      -2.028   2.529  25.768  0.00  0.00    +0.149 HD
BRANCH   2  13
ATOM     13  C   UNL     1      -2.809   4.500  25.791  0.00  0.00    +0.073 C 
ATOM     16  C   UNL     1      -3.548   4.864  24.498  0.00  0.00    +0.022 C 
ATOM     17  C   UNL     1      -3.785   4.047  26.882  0.00  0.00    +0.022 C 
ATOM     20  C   UNL     1      -4.483   3.751  24.027  0.00  0.00    +0.002 C 
ATOM     21  C   UNL     1      -4.720   2.935  26.405  0.00  0.00    +0.002 C 
ATOM     22  C   UNL     1      -5.453   3.326  25.126  0.00  0.00    +0.000 C 
ENDBRANCH   2  13
ENDBRANCH  11  18
ENDBRANCH   6  11
BRANCH   7  12
ATOM     12  C   UNL     1      -1.499  -1.960  25.168  0.00  0.00    +0.126 C 
BRANCH  12  23
ATOM      3  N   UNL     1      -3.461  -3.632  24.680  0.00  0.00    -0.197 NA
ATOM     23  C   UNL     1      -2.597  -2.887  24.895  0.00  0.00    +0.063 C 
ENDBRANCH  12  23
ENDBRANCH   7  12
TORSDOF 6
ENDMDL
MODEL 7
REMARK VINA RESULT:      -2.6      2.115      4.995
REMARK  Name = 38029904
REMARK  9 active torsions:
REMARK  status: ('A' for Active; 'I' for Inactive)
REMARK    1  A    between atoms: N_2  and  C_13
REMARK    2  A    between atoms: C_4  and  C_8
REMARK    3  A    between atoms: C_6  and  C_11
REMARK    4  A    between atoms: C_7  and  C_12
REMARK    5  A    between atoms: C_8  and  C_14
REMARK    6  A    between atoms: C_8  and  C_15
REMARK    7  A    between atoms: C_9  and  C_19
REMARK    8  A    between atoms: C_11  and  C_18
REMARK    9  A    between atoms: C_12  and  C_23
REMARK                            x       y       z     vdW  Elec       q    Type
REMARK                         _______ _______ _______ _____ _____    ______ ____
ROOT
ATOM      4  C   UNL     1      -1.930   4.000  24.733  0.00  0.00    -0.000 C 
ATOM      5  C   UNL     1      -3.105   4.400  23.829  0.00  0.00    +0.012 C 
ATOM      6  C   UNL     1      -4.129   3.262  23.665  0.00  0.00    +0.023 C 
ATOM      7  C   UNL     1      -2.442   3.595  26.138  0.00  0.00    +0.029 C 
ATOM      9  C   UNL     1      -4.484   2.628  24.995  0.00  0.00    -0.073 C 
ATOM     10  C   UNL     1      -3.726   2.799  26.093  0.00  0.00    -0.023 C 
ATOM     19  C   UNL     1      -5.757   1.830  25.047  0.00  0.00    +0.039 C 
ENDROOT
BRANCH   4   8
ATOM      8  C   UNL     1      -0.917   5.147  24.805  0.00  0.00    -0.013 C 
ATOM     14  C   UNL     1       0.010   5.116  23.594  0.00  0.00    +0.007 C 
ATOM     15  C   UNL     1      -1.637   6.488  24.902  0.00  0.00    +0.007 C 
ENDBRANCH   4   8
BRANCH   6  11
ATOM     11  C   UNL     1      -3.628   2.207  22.671  0.00  0.00    +0.103 C 
BRANCH  11  18
ATOM      1  O   UNL     1      -1.254   1.822  22.943  0.00  0.00    -0.276 OA
ATOM      2  N   UNL     1      -2.771   0.378  23.950  0.00  0.00    -0.312 N 
ATOM     18  C   UNL     1      -2.408   1.476  23.185  0.00  0.00    +0.214 C 
ATOM     24  H   UNL     1      -3.756   0.207  24.129  0.00  0.00    +0.149 HD
BRANCH   2  13
ATOM     13  C   UNL     1      -1.810  -0.508  24.568  0.00  0.00    +0.073 C 
ATOM     16  C   UNL     1      -2.087  -0.661  26.068  0.00  0.00    +0.022 C 
ATOM     17  C   UNL     1      -1.783  -1.869  23.865  0.00  0.00    +0.022 C 
ATOM     20  C   UNL     1      -3.338  -1.493  26.348  0.00  0.00    +0.002 C 
ATOM     21  C   UNL     1      -3.035  -2.699  24.150  0.00  0.00    +0.002 C 
ATOM     22  C   UNL     1      -3.283  -2.848  25.647  0.00  0.00    +0.000 C 
ENDBRANCH   2  13
ENDBRANCH  11  18
ENDBRANCH   6  11
BRANCH   7  12
ATOM     12  C   UNL     1      -1.378   2.805  26.908  0.00  0.00    +0.126 C 
BRANCH  12  23
ATOM      3  N   UNL     1       0.580   2.082  25.319  0.00  0.00    -0.197 NA
ATOM     23  C   UNL     1      -0.285   2.408  26.023  0.00  0.00    +0.063 C 
ENDBRANCH  12  23
ENDBRANCH   7  12
TORSDOF 6
ENDMDL
MODEL 8
REMARK VINA RESULT:      -2.2     17.149     20.222
REMARK  Name = 38029904
REMARK  9 active torsions:
REMARK  status: ('A' for Active; 'I' for Inactive)
REMARK    1  A    between atoms: N_2  and  C_13
REMARK    2  A    between atoms: C_4  and  C_8
REMARK    3  A    between atoms: C_6  and  C_11
REMARK    4  A    between atoms: C_7  and  C_12
REMARK    5  A    between atoms: C_8  and  C_14
REMARK    6  A    between atoms: C_8  and  C_15
REMARK    7  A    between atoms: C_9  and  C_19
REMARK    8  A    between atoms: C_11  and  C_18
REMARK    9  A    between atoms: C_12  and  C_23
REMARK                            x       y       z     vdW  Elec       q    Type
REMARK                         _______ _______ _______ _____ _____    ______ ____
ROOT
ATOM      4  C   UNL     1      11.412  -8.716  32.146  0.00  0.00    -0.000 C 
ATOM      5  C   UNL     1      12.355  -9.924  32.263  0.00  0.00    +0.012 C 
ATOM      6  C   UNL     1      13.741  -9.642  31.654  0.00  0.00    +0.023 C 
ATOM      7  C   UNL     1      12.021  -7.484  32.861  0.00  0.00    +0.029 C 
ATOM      9  C   UNL     1      14.294  -8.306  32.107  0.00  0.00    -0.073 C 
ATOM     10  C   UNL     1      13.514  -7.359  32.656  0.00  0.00    -0.023 C 
ATOM     19  C   UNL     1      15.776  -8.100  31.956  0.00  0.00    +0.039 C 
ENDROOT
BRANCH   4   8
ATOM      8  C   UNL     1      10.034  -9.077  32.710  0.00  0.00    -0.013 C 
ATOM     14  C   UNL     1       8.931  -8.534  31.807  0.00  0.00    +0.007 C 
ATOM     15  C   UNL     1       9.905 -10.588  32.873  0.00  0.00    +0.007 C 
ENDBRANCH   4   8
BRANCH   6  11
ATOM     11  C   UNL     1      13.700  -9.730  30.124  0.00  0.00    +0.103 C 
BRANCH  11  18
ATOM      1  O   UNL     1      15.868 -10.781  29.898  0.00  0.00    -0.276 OA
ATOM      2  N   UNL     1      15.316  -8.987  28.526  0.00  0.00    -0.312 N 
ATOM     18  C   UNL     1      15.077  -9.916  29.528  0.00  0.00    +0.214 C 
ATOM     24  H   UNL     1      14.575  -8.344  28.266  0.00  0.00    +0.149 HD
BRANCH   2  13
ATOM     13  C   UNL     1      16.555  -8.928  27.783  0.00  0.00    +0.073 C 
ATOM     16  C   UNL     1      16.290  -8.931  26.273  0.00  0.00    +0.022 C 
ATOM     17  C   UNL     1      17.391  -7.713  28.198  0.00  0.00    +0.022 C 
ATOM     20  C   UNL     1      15.695  -7.612  25.781  0.00  0.00    +0.002 C 
ATOM     21  C   UNL     1      16.793  -6.396  27.703  0.00  0.00    +0.002 C 
ATOM     22  C   UNL     1      16.551  -6.418  26.198  0.00  0.00    +0.000 C 
ENDBRANCH   2  13
ENDBRANCH  11  18
ENDBRANCH   6  11
BRANCH   7  12
ATOM     12  C   UNL     1      11.335  -6.189  32.412  0.00  0.00    +0.126 C 
BRANCH  12  23
ATOM      3  N   UNL     1      13.011  -4.172  32.489  0.00  0.00    -0.197 NA
ATOM     23  C   UNL     1      12.267  -5.064  32.461  0.00  0.00    +0.063 C 
ENDBRANCH  12  23
ENDBRANCH   7  12
TORSDOF 6
ENDMDL
