MODEL 1
REMARK VINA RESULT:       1.7      0.000      0.000
REMARK  Name = 51137874
REMARK  5 active torsions:
REMARK  status: ('A' for Active; 'I' for Inactive)
REMARK    1  A    between atoms: N_5  and  C_14
REMARK    2  A    between atoms: C_9  and  C_13
REMARK    3  A    between atoms: C_14  and  C_15
REMARK    4  A    between atoms: C_20  and  C_27
REMARK    5  A    between atoms: C_26  and  C_28
REMARK                            x       y       z     vdW  Elec       q    Type
REMARK                         _______ _______ _______ _____ _____    ______ ____
ROOT
ATOM      5  N   UNL     1       0.244  -0.723  23.703  0.00  0.00    -0.297 NA
ATOM      9  C   UNL     1      -1.283   0.270  25.181  0.00  0.00    +0.070 C 
ATOM     10  C   UNL     1      -1.818  -1.101  24.732  0.00  0.00    +0.028 C 
ATOM     11  C   UNL     1      -0.168   0.599  24.178  0.00  0.00    +0.096 C 
ATOM     12  C   UNL     1      -1.005  -1.454  23.493  0.00  0.00    +0.085 C 
ENDROOT
BRANCH   9  13
ATOM      6  N   UNL     1      -1.976   2.679  25.301  0.00  0.00    -0.342 N 
ATOM      7  N   UNL     1      -3.627   1.193  25.361  0.00  0.00    -0.231 NA
ATOM     13  C   UNL     1      -2.326   1.358  25.282  0.00  0.00    +0.113 A 
ATOM     16  C   UNL     1      -3.128   3.416  25.398  0.00  0.00    +0.067 A 
ATOM     17  C   UNL     1      -4.145   2.467  25.434  0.00  0.00    +0.101 A 
ATOM     20  C   UNL     1      -5.479   2.895  25.534  0.00  0.00    +0.064 A 
ATOM     21  C   UNL     1      -3.361   4.791  25.456  0.00  0.00    +0.028 A 
ATOM     22  C   UNL     1      -5.737   4.270  25.594  0.00  0.00    +0.015 A 
ATOM     23  C   UNL     1      -4.696   5.200  25.555  0.00  0.00    +0.003 A 
ATOM     29  H   UNL     1      -1.036   3.050  25.251  0.00  0.00    +0.167 HD
BRANCH  20  27
ATOM      4  O   UNL     1      -7.124   1.533  24.539  0.00  0.00    -0.270 OA
ATOM      8  N   UNL     1      -6.967   1.462  26.826  0.00  0.00    -0.325 N 
ATOM     27  C   UNL     1      -6.569   1.937  25.578  0.00  0.00    +0.244 C 
ATOM     30  H   UNL     1      -7.721   0.786  26.896  0.00  0.00    +0.145 HD
ATOM     31  H   UNL     1      -6.548   1.750  27.702  0.00  0.00    +0.145 HD
ENDBRANCH  20  27
ENDBRANCH   9  13
BRANCH   5  14
ATOM     14  C   UNL     1       1.055  -0.652  22.497  0.00  0.00    +0.119 C 
BRANCH  14  15
ATOM     15  C   UNL     1       2.516  -0.478  22.812  0.00  0.00    -0.033 A 
ATOM     18  C   UNL     1       3.201  -1.470  23.514  0.00  0.00    +0.005 A 
ATOM     19  C   UNL     1       3.186   0.676  22.404  0.00  0.00    +0.005 A 
ATOM     24  C   UNL     1       4.556  -1.309  23.805  0.00  0.00    +0.012 A 
ATOM     25  C   UNL     1       4.541   0.837  22.696  0.00  0.00    +0.012 A 
ATOM     26  C   UNL     1       5.225  -0.156  23.397  0.00  0.00    +0.055 A 
BRANCH  26  28
ATOM      1  F   UNL     1       7.102  -0.751  24.754  0.00  0.00    -0.166 F 
ATOM      2  F   UNL     1       6.993   1.299  24.038  0.00  0.00    -0.166 F 
ATOM      3  F   UNL     1       7.498  -0.312  22.668  0.00  0.00    -0.166 F 
ATOM     28  C   UNL     1       6.674   0.014  23.707  0.00  0.00    +0.417 C 
ENDBRANCH  26  28
ENDBRANCH  14  15
ENDBRANCH   5  14
TORSDOF 5
ENDMDL
MODEL 2
REMARK VINA RESULT:       1.8      4.167      7.418
REMARK  Name = 51137874
REMARK  5 active torsions:
REMARK  status: ('A' for Active; 'I' for Inactive)
REMARK    1  A    between atoms: N_5  and  C_14
REMARK    2  A    between atoms: C_9  and  C_13
REMARK    3  A    between atoms: C_14  and  C_15
REMARK    4  A    between atoms: C_20  and  C_27
REMARK    5  A    between atoms: C_26  and  C_28
REMARK                            x       y       z     vdW  Elec       q    Type
REMARK                         _______ _______ _______ _____ _____    ______ ____
ROOT
ATOM      5  N   UNL     1      -6.272   3.058  25.498  0.00  0.00    -0.297 NA
ATOM      9  C   UNL     1      -5.826   0.822  24.948  0.00  0.00    +0.070 C 
ATOM     10  C   UNL     1      -6.322   0.906  26.402  0.00  0.00    +0.028 C 
ATOM     11  C   UNL     1      -5.449   2.264  24.583  0.00  0.00    +0.096 C 
ATOM     12  C   UNL     1      -6.172   2.372  26.786  0.00  0.00    +0.085 C 
ENDROOT
BRANCH   9  13
ATOM      6  N   UNL     1      -4.948  -1.475  24.446  0.00  0.00    -0.342 N 
ATOM      7  N   UNL     1      -3.412   0.104  24.743  0.00  0.00    -0.231 NA
ATOM     13  C   UNL     1      -4.700  -0.158  24.716  0.00  0.00    +0.113 A 
ATOM     16  C   UNL     1      -3.741  -2.105  24.287  0.00  0.00    +0.067 A 
ATOM     17  C   UNL     1      -2.797  -1.098  24.476  0.00  0.00    +0.101 A 
ATOM     20  C   UNL     1      -1.432  -1.412  24.380  0.00  0.00    +0.064 A 
ATOM     21  C   UNL     1      -3.402  -3.428  24.000  0.00  0.00    +0.028 A 
ATOM     22  C   UNL     1      -1.068  -2.735  24.095  0.00  0.00    +0.015 A 
ATOM     23  C   UNL     1      -2.037  -3.723  23.908  0.00  0.00    +0.003 A 
ATOM     29  H   UNL     1      -5.858  -1.910  24.374  0.00  0.00    +0.167 HD
BRANCH  20  27
ATOM      4  O   UNL     1       0.518  -0.242  23.767  0.00  0.00    -0.270 OA
ATOM      8  N   UNL     1      -0.528   0.430  25.693  0.00  0.00    -0.325 N 
ATOM     27  C   UNL     1      -0.416  -0.394  24.575  0.00  0.00    +0.244 C 
ATOM     30  H   UNL     1       0.159   1.159  25.860  0.00  0.00    +0.145 HD
ATOM     31  H   UNL     1      -1.270   0.356  26.380  0.00  0.00    +0.145 HD
ENDBRANCH  20  27
ENDBRANCH   9  13
BRANCH   5  14
ATOM     14  C   UNL     1      -5.839   4.445  25.574  0.00  0.00    +0.119 C 
BRANCH  14  15
ATOM     15  C   UNL     1      -4.360   4.585  25.328  0.00  0.00    -0.033 A 
ATOM     18  C   UNL     1      -3.451   4.238  26.327  0.00  0.00    +0.005 A 
ATOM     19  C   UNL     1      -3.899   5.062  24.101  0.00  0.00    +0.005 A 
ATOM     24  C   UNL     1      -2.081   4.367  26.099  0.00  0.00    +0.012 A 
ATOM     25  C   UNL     1      -2.528   5.191  23.873  0.00  0.00    +0.012 A 
ATOM     26  C   UNL     1      -1.620   4.844  24.872  0.00  0.00    +0.055 A 
BRANCH  26  28
ATOM      1  F   UNL     1       0.207   4.749  23.332  0.00  0.00    -0.166 F 
ATOM      2  F   UNL     1       0.584   4.108  25.375  0.00  0.00    -0.166 F 
ATOM      3  F   UNL     1       0.336   6.219  24.920  0.00  0.00    -0.166 F 
ATOM     28  C   UNL     1      -0.155   4.979  24.628  0.00  0.00    +0.417 C 
ENDBRANCH  26  28
ENDBRANCH  14  15
ENDBRANCH   5  14
TORSDOF 5
ENDMDL
MODEL 3
REMARK VINA RESULT:       2.3      5.025      8.884
REMARK  Name = 51137874
REMARK  5 active torsions:
REMARK  status: ('A' for Active; 'I' for Inactive)
REMARK    1  A    between atoms: N_5  and  C_14
REMARK    2  A    between atoms: C_9  and  C_13
REMARK    3  A    between atoms: C_14  and  C_15
REMARK    4  A    between atoms: C_20  and  C_27
REMARK    5  A    between atoms: C_26  and  C_28
REMARK                            x       y       z     vdW  Elec       q    Type
REMARK                         _______ _______ _______ _____ _____    ______ ____
ROOT
ATOM      5  N   UNL     1      -2.934  -1.934  24.709  0.00  0.00    -0.297 NA
ATOM      9  C   UNL     1      -0.591  -2.011  24.620  0.00  0.00    +0.070 C 
ATOM     10  C   UNL     1      -1.042  -1.712  26.061  0.00  0.00    +0.028 C 
ATOM     11  C   UNL     1      -1.834  -1.744  23.761  0.00  0.00    +0.096 C 
ATOM     12  C   UNL     1      -2.494  -1.267  25.935  0.00  0.00    +0.085 C 
ENDROOT
BRANCH   9  13
ATOM      6  N   UNL     1       0.501  -0.006  23.579  0.00  0.00    -0.342 N 
ATOM      7  N   UNL     1       1.876  -1.617  24.249  0.00  0.00    -0.231 NA
ATOM     13  C   UNL     1       0.621  -1.237  24.160  0.00  0.00    +0.113 A 
ATOM     16  C   UNL     1       1.761   0.438  23.272  0.00  0.00    +0.067 A 
ATOM     17  C   UNL     1       2.603  -0.585  23.700  0.00  0.00    +0.101 A 
ATOM     20  C   UNL     1       3.990  -0.447  23.530  0.00  0.00    +0.064 A 
ATOM     21  C   UNL     1       2.224   1.612  22.676  0.00  0.00    +0.028 A 
ATOM     22  C   UNL     1       4.478   0.723  22.933  0.00  0.00    +0.015 A 
ATOM     23  C   UNL     1       3.609   1.733  22.515  0.00  0.00    +0.003 A 
ATOM     29  H   UNL     1      -0.362   0.492  23.405  0.00  0.00    +0.167 HD
BRANCH  20  27
ATOM      4  O   UNL     1       4.713  -2.684  23.657  0.00  0.00    -0.270 OA
ATOM      8  N   UNL     1       6.016  -1.117  24.707  0.00  0.00    -0.325 N 
ATOM     27  C   UNL     1       4.902  -1.492  23.959  0.00  0.00    +0.244 C 
ATOM     30  H   UNL     1       6.679  -1.819  25.019  0.00  0.00    +0.145 HD
ATOM     31  H   UNL     1       6.222  -0.162  24.976  0.00  0.00    +0.145 HD
ENDBRANCH  20  27
ENDBRANCH   9  13
BRANCH   5  14
ATOM     14  C   UNL     1      -4.194  -1.404  24.212  0.00  0.00    +0.119 C 
BRANCH  14  15
ATOM     15  C   UNL     1      -4.310   0.079  24.446  0.00  0.00    -0.033 A 
ATOM     18  C   UNL     1      -5.246   0.570  25.356  0.00  0.00    +0.005 A 
ATOM     19  C   UNL     1      -3.483   0.961  23.753  0.00  0.00    +0.005 A 
ATOM     24  C   UNL     1      -5.353   1.944  25.573  0.00  0.00    +0.012 A 
ATOM     25  C   UNL     1      -3.590   2.336  23.970  0.00  0.00    +0.012 A 
ATOM     26  C   UNL     1      -4.526   2.826  24.880  0.00  0.00    +0.055 A 
BRANCH  26  28
ATOM      1  F   UNL     1      -4.289   5.050  24.032  0.00  0.00    -0.166 F 
ATOM      2  F   UNL     1      -3.843   4.726  26.136  0.00  0.00    -0.166 F 
ATOM      3  F   UNL     1      -5.902   4.701  25.438  0.00  0.00    -0.166 F 
ATOM     28  C   UNL     1      -4.639   4.295  25.115  0.00  0.00    +0.417 C 
ENDBRANCH  26  28
ENDBRANCH  14  15
ENDBRANCH   5  14
TORSDOF 5
ENDMDL
MODEL 4
REMARK VINA RESULT:       2.4      1.443      2.236
REMARK  Name = 51137874
REMARK  5 active torsions:
REMARK  status: ('A' for Active; 'I' for Inactive)
REMARK    1  A    between atoms: N_5  and  C_14
REMARK    2  A    between atoms: C_9  and  C_13
REMARK    3  A    between atoms: C_14  and  C_15
REMARK    4  A    between atoms: C_20  and  C_27
REMARK    5  A    between atoms: C_26  and  C_28
REMARK                            x       y       z     vdW  Elec       q    Type
REMARK                         _______ _______ _______ _____ _____    ______ ____
ROOT
ATOM      5  N   UNL     1       0.263  -1.014  23.565  0.00  0.00    -0.297 NA
ATOM      9  C   UNL     1      -1.386  -0.275  25.059  0.00  0.00    +0.070 C 
ATOM     10  C   UNL     1      -1.780  -1.653  24.498  0.00  0.00    +0.028 C 
ATOM     11  C   UNL     1      -0.283   0.226  24.118  0.00  0.00    +0.096 C 
ATOM     12  C   UNL     1      -0.906  -1.840  23.264  0.00  0.00    +0.085 C 
ENDROOT
BRANCH   9  13
ATOM      6  N   UNL     1      -3.829   0.300  25.083  0.00  0.00    -0.342 N 
ATOM      7  N   UNL     1      -2.434   1.992  25.443  0.00  0.00    -0.231 NA
ATOM     13  C   UNL     1      -2.529   0.703  25.202  0.00  0.00    +0.113 A 
ATOM     16  C   UNL     1      -4.627   1.400  25.260  0.00  0.00    +0.067 A 
ATOM     17  C   UNL     1      -3.733   2.444  25.483  0.00  0.00    +0.101 A 
ATOM     20  C   UNL     1      -4.232   3.738  25.705  0.00  0.00    +0.064 A 
ATOM     21  C   UNL     1      -6.012   1.569  25.245  0.00  0.00    +0.028 A 
ATOM     22  C   UNL     1      -5.620   3.931  25.694  0.00  0.00    +0.015 A 
ATOM     23  C   UNL     1      -6.492   2.864  25.468  0.00  0.00    +0.003 A 
ATOM     29  H   UNL     1      -4.149  -0.642  24.899  0.00  0.00    +0.167 HD
BRANCH  20  27
ATOM      4  O   UNL     1      -3.596   5.737  26.776  0.00  0.00    -0.270 OA
ATOM      8  N   UNL     1      -2.151   4.901  25.205  0.00  0.00    -0.325 N 
ATOM     27  C   UNL     1      -3.335   4.855  25.938  0.00  0.00    +0.244 C 
ATOM     30  H   UNL     1      -1.494   5.663  25.345  0.00  0.00    +0.145 HD
ATOM     31  H   UNL     1      -1.884   4.208  24.516  0.00  0.00    +0.145 HD
ENDBRANCH  20  27
ENDBRANCH   9  13
BRANCH   5  14
ATOM     14  C   UNL     1       1.094  -0.783  22.393  0.00  0.00    +0.119 C 
BRANCH  14  15
ATOM     15  C   UNL     1       2.536  -0.561  22.763  0.00  0.00    -0.033 A 
ATOM     18  C   UNL     1       3.227  -1.531  23.489  0.00  0.00    +0.005 A 
ATOM     19  C   UNL     1       3.181   0.615  22.379  0.00  0.00    +0.005 A 
ATOM     24  C   UNL     1       4.564  -1.325  23.830  0.00  0.00    +0.012 A 
ATOM     25  C   UNL     1       4.519   0.821  22.722  0.00  0.00    +0.012 A 
ATOM     26  C   UNL     1       5.209  -0.149  23.447  0.00  0.00    +0.055 A 
BRANCH  26  28
ATOM      1  F   UNL     1       7.065  -0.715  24.846  0.00  0.00    -0.166 F 
ATOM      2  F   UNL     1       6.894   1.353  24.194  0.00  0.00    -0.166 F 
ATOM      3  F   UNL     1       7.509  -0.189  22.790  0.00  0.00    -0.166 F 
ATOM     28  C   UNL     1       6.639   0.068  23.811  0.00  0.00    +0.417 C 
ENDBRANCH  26  28
ENDBRANCH  14  15
ENDBRANCH   5  14
TORSDOF 5
ENDMDL
MODEL 5
REMARK VINA RESULT:       2.4      2.638      4.032
REMARK  Name = 51137874
REMARK  5 active torsions:
REMARK  status: ('A' for Active; 'I' for Inactive)
REMARK    1  A    between atoms: N_5  and  C_14
REMARK    2  A    between atoms: C_9  and  C_13
REMARK    3  A    between atoms: C_14  and  C_15
REMARK    4  A    between atoms: C_20  and  C_27
REMARK    5  A    between atoms: C_26  and  C_28
REMARK                            x       y       z     vdW  Elec       q    Type
REMARK                         _______ _______ _______ _____ _____    ______ ____
ROOT
ATOM      5  N   UNL     1      -3.200  -2.586  25.121  0.00  0.00    -0.297 NA
ATOM      9  C   UNL     1      -4.463  -0.630  25.408  0.00  0.00    +0.070 C 
ATOM     10  C   UNL     1      -4.873  -1.320  24.094  0.00  0.00    +0.028 C 
ATOM     11  C   UNL     1      -3.129  -1.286  25.790  0.00  0.00    +0.096 C 
ATOM     12  C   UNL     1      -3.743  -2.297  23.793  0.00  0.00    +0.085 C 
ENDROOT
BRANCH   9  13
ATOM      6  N   UNL     1      -5.490   1.658  25.499  0.00  0.00    -0.342 N 
ATOM      7  N   UNL     1      -3.301   1.594  25.119  0.00  0.00    -0.231 NA
ATOM     13  C   UNL     1      -4.380   0.876  25.336  0.00  0.00    +0.113 A 
ATOM     16  C   UNL     1      -5.101   2.967  25.380  0.00  0.00    +0.067 A 
ATOM     17  C   UNL     1      -3.731   2.902  25.144  0.00  0.00    +0.101 A 
ATOM     20  C   UNL     1      -3.007   4.094  24.972  0.00  0.00    +0.064 A 
ATOM     21  C   UNL     1      -5.809   4.168  25.458  0.00  0.00    +0.028 A 
ATOM     22  C   UNL     1      -3.697   5.311  25.044  0.00  0.00    +0.015 A 
ATOM     23  C   UNL     1      -5.072   5.345  25.284  0.00  0.00    +0.003 A 
ATOM     29  H   UNL     1      -6.431   1.332  25.676  0.00  0.00    +0.167 HD
BRANCH  20  27
ATOM      4  O   UNL     1      -0.852   5.042  24.993  0.00  0.00    -0.270 OA
ATOM      8  N   UNL     1      -1.034   2.908  24.175  0.00  0.00    -0.325 N 
ATOM     27  C   UNL     1      -1.578   4.069  24.719  0.00  0.00    +0.244 C 
ATOM     30  H   UNL     1      -0.037   2.851  23.991  0.00  0.00    +0.145 HD
ATOM     31  H   UNL     1      -1.576   2.086  23.938  0.00  0.00    +0.145 HD
ENDBRANCH  20  27
ENDBRANCH   9  13
BRANCH   5  14
ATOM     14  C   UNL     1      -1.907  -3.250  25.057  0.00  0.00    +0.119 C 
BRANCH  14  15
ATOM     15  C   UNL     1      -0.834  -2.339  24.524  0.00  0.00    -0.033 A 
ATOM     18  C   UNL     1       0.449  -2.379  25.069  0.00  0.00    +0.005 A 
ATOM     19  C   UNL     1      -1.123  -1.454  23.486  0.00  0.00    +0.005 A 
ATOM     24  C   UNL     1       1.443  -1.535  24.575  0.00  0.00    +0.012 A 
ATOM     25  C   UNL     1      -0.128  -0.609  22.991  0.00  0.00    +0.012 A 
ATOM     26  C   UNL     1       1.155  -0.650  23.536  0.00  0.00    +0.055 A 
BRANCH  26  28
ATOM      1  F   UNL     1       2.063   1.556  23.374  0.00  0.00    -0.166 F 
ATOM      2  F   UNL     1       2.272   0.256  21.643  0.00  0.00    -0.166 F 
ATOM      3  F   UNL     1       3.476  -0.088  23.420  0.00  0.00    -0.166 F 
ATOM     28  C   UNL     1       2.220   0.250  23.007  0.00  0.00    +0.417 C 
ENDBRANCH  26  28
ENDBRANCH  14  15
ENDBRANCH   5  14
TORSDOF 5
ENDMDL
MODEL 6
REMARK VINA RESULT:       3.0      4.662      8.197
REMARK  Name = 51137874
REMARK  5 active torsions:
REMARK  status: ('A' for Active; 'I' for Inactive)
REMARK    1  A    between atoms: N_5  and  C_14
REMARK    2  A    between atoms: C_9  and  C_13
REMARK    3  A    between atoms: C_14  and  C_15
REMARK    4  A    between atoms: C_20  and  C_27
REMARK    5  A    between atoms: C_26  and  C_28
REMARK                            x       y       z     vdW  Elec       q    Type
REMARK                         _______ _______ _______ _____ _____    ______ ____
ROOT
ATOM      5  N   UNL     1      -4.079  -1.987  24.395  0.00  0.00    -0.297 NA
ATOM      9  C   UNL     1      -1.796  -1.953  23.858  0.00  0.00    +0.070 C 
ATOM     10  C   UNL     1      -1.980  -2.482  25.291  0.00  0.00    +0.028 C 
ATOM     11  C   UNL     1      -3.139  -1.295  23.512  0.00  0.00    +0.096 C 
ATOM     12  C   UNL     1      -3.393  -2.070  25.685  0.00  0.00    +0.085 C 
ENDROOT
BRANCH   9  13
ATOM      6  N   UNL     1       0.538  -1.457  23.078  0.00  0.00    -0.342 N 
ATOM      7  N   UNL     1      -0.549   0.237  24.022  0.00  0.00    -0.231 NA
ATOM     13  C   UNL     1      -0.618  -1.026  23.668  0.00  0.00    +0.113 A 
ATOM     16  C   UNL     1       1.411  -0.401  23.049  0.00  0.00    +0.067 A 
ATOM     17  C   UNL     1       0.711   0.646  23.643  0.00  0.00    +0.101 A 
ATOM     20  C   UNL     1       1.331   1.899  23.775  0.00  0.00    +0.064 A 
ATOM     21  C   UNL     1       2.715  -0.274  22.568  0.00  0.00    +0.028 A 
ATOM     22  C   UNL     1       2.641   2.049  23.300  0.00  0.00    +0.015 A 
ATOM     23  C   UNL     1       3.318   0.981  22.707  0.00  0.00    +0.003 A 
ATOM     29  H   UNL     1       0.719  -2.387  22.725  0.00  0.00    +0.167 HD
BRANCH  20  27
ATOM      4  O   UNL     1       0.231   3.980  23.720  0.00  0.00    -0.270 OA
ATOM      8  N   UNL     1       0.419   2.964  25.767  0.00  0.00    -0.325 N 
ATOM     27  C   UNL     1       0.637   3.014  24.392  0.00  0.00    +0.244 C 
ATOM     30  H   UNL     1      -0.069   3.722  26.233  0.00  0.00    +0.145 HD
ATOM     31  H   UNL     1       0.721   2.201  26.361  0.00  0.00    +0.145 HD
ENDBRANCH  20  27
ENDBRANCH   9  13
BRANCH   5  14
ATOM     14  C   UNL     1      -5.358  -1.301  24.492  0.00  0.00    +0.119 C 
BRANCH  14  15
ATOM     15  C   UNL     1      -5.186   0.180  24.698  0.00  0.00    -0.033 A 
ATOM     18  C   UNL     1      -6.064   0.875  25.531  0.00  0.00    +0.005 A 
ATOM     19  C   UNL     1      -4.150   0.858  24.056  0.00  0.00    +0.005 A 
ATOM     24  C   UNL     1      -5.904   2.247  25.722  0.00  0.00    +0.012 A 
ATOM     25  C   UNL     1      -3.990   2.232  24.248  0.00  0.00    +0.012 A 
ATOM     26  C   UNL     1      -4.867   2.926  25.081  0.00  0.00    +0.055 A 
BRANCH  26  28
ATOM      1  F   UNL     1      -4.193   5.043  24.198  0.00  0.00    -0.166 F 
ATOM      2  F   UNL     1      -3.843   4.681  26.314  0.00  0.00    -0.166 F 
ATOM      3  F   UNL     1      -5.859   5.042  25.586  0.00  0.00    -0.166 F 
ATOM     28  C   UNL     1      -4.696   4.392  25.288  0.00  0.00    +0.417 C 
ENDBRANCH  26  28
ENDBRANCH  14  15
ENDBRANCH   5  14
TORSDOF 5
ENDMDL
MODEL 7
REMARK VINA RESULT:       3.1      5.402      8.181
REMARK  Name = 51137874
REMARK  5 active torsions:
REMARK  status: ('A' for Active; 'I' for Inactive)
REMARK    1  A    between atoms: N_5  and  C_14
REMARK    2  A    between atoms: C_9  and  C_13
REMARK    3  A    between atoms: C_14  and  C_15
REMARK    4  A    between atoms: C_20  and  C_27
REMARK    5  A    between atoms: C_26  and  C_28
REMARK                            x       y       z     vdW  Elec       q    Type
REMARK                         _______ _______ _______ _____ _____    ______ ____
ROOT
ATOM      5  N   UNL     1       0.121   3.910  24.868  0.00  0.00    -0.297 NA
ATOM      9  C   UNL     1       0.439   1.587  24.904  0.00  0.00    +0.070 C 
ATOM     10  C   UNL     1       0.905   2.149  23.550  0.00  0.00    +0.028 C 
ATOM     11  C   UNL     1      -0.405   2.710  25.521  0.00  0.00    +0.096 C 
ATOM     12  C   UNL     1       0.279   3.535  23.463  0.00  0.00    +0.085 C 
ENDROOT
BRANCH   9  13
ATOM      6  N   UNL     1       0.359  -0.921  24.962  0.00  0.00    -0.342 N 
ATOM      7  N   UNL     1      -1.586   0.102  24.629  0.00  0.00    -0.231 NA
ATOM     13  C   UNL     1      -0.297   0.270  24.826  0.00  0.00    +0.113 A 
ATOM     16  C   UNL     1      -0.567  -1.925  24.845  0.00  0.00    +0.067 A 
ATOM     17  C   UNL     1      -1.774  -1.262  24.638  0.00  0.00    +0.101 A 
ATOM     20  C   UNL     1      -2.949  -2.013  24.474  0.00  0.00    +0.064 A 
ATOM     21  C   UNL     1      -0.457  -3.315  24.902  0.00  0.00    +0.028 A 
ATOM     22  C   UNL     1      -2.862  -3.410  24.526  0.00  0.00    +0.015 A 
ATOM     23  C   UNL     1      -1.638  -4.048  24.737  0.00  0.00    +0.003 A 
ATOM     29  H   UNL     1       1.350  -1.044  25.121  0.00  0.00    +0.167 HD
BRANCH  20  27
ATOM      4  O   UNL     1      -5.105  -1.876  23.538  0.00  0.00    -0.270 OA
ATOM      8  N   UNL     1      -4.451  -0.139  24.883  0.00  0.00    -0.325 N 
ATOM     27  C   UNL     1      -4.226  -1.361  24.252  0.00  0.00    +0.244 C 
ATOM     30  H   UNL     1      -5.335   0.344  24.757  0.00  0.00    +0.145 HD
ATOM     31  H   UNL     1      -3.775   0.323  25.479  0.00  0.00    +0.145 HD
ENDBRANCH  20  27
ENDBRANCH   9  13
BRANCH   5  14
ATOM     14  C   UNL     1      -0.750   5.063  25.038  0.00  0.00    +0.119 C 
BRANCH  14  15
ATOM     15  C   UNL     1      -2.189   4.658  25.214  0.00  0.00    -0.033 A 
ATOM     18  C   UNL     1      -2.973   4.365  24.098  0.00  0.00    +0.005 A 
ATOM     19  C   UNL     1      -2.739   4.574  26.493  0.00  0.00    +0.005 A 
ATOM     24  C   UNL     1      -4.306   3.989  24.261  0.00  0.00    +0.012 A 
ATOM     25  C   UNL     1      -4.073   4.198  26.656  0.00  0.00    +0.012 A 
ATOM     26  C   UNL     1      -4.856   3.906  25.540  0.00  0.00    +0.055 A 
BRANCH  26  28
ATOM      1  F   UNL     1      -6.736   2.670  24.729  0.00  0.00    -0.166 F 
ATOM      2  F   UNL     1      -7.133   4.566  25.717  0.00  0.00    -0.166 F 
ATOM      3  F   UNL     1      -6.522   2.835  26.881  0.00  0.00    -0.166 F 
ATOM     28  C   UNL     1      -6.281   3.500  25.713  0.00  0.00    +0.417 C 
ENDBRANCH  26  28
ENDBRANCH  14  15
ENDBRANCH   5  14
TORSDOF 5
ENDMDL
MODEL 8
REMARK VINA RESULT:       3.1      4.362      5.484
REMARK  Name = 51137874
REMARK  5 active torsions:
REMARK  status: ('A' for Active; 'I' for Inactive)
REMARK    1  A    between atoms: N_5  and  C_14
REMARK    2  A    between atoms: C_9  and  C_13
REMARK    3  A    between atoms: C_14  and  C_15
REMARK    4  A    between atoms: C_20  and  C_27
REMARK    5  A    between atoms: C_26  and  C_28
REMARK                            x       y       z     vdW  Elec       q    Type
REMARK                         _______ _______ _______ _____ _____    ______ ____
ROOT
ATOM      5  N   UNL     1       0.750   1.848  24.254  0.00  0.00    -0.297 NA
ATOM      9  C   UNL     1      -0.857   3.519  24.607  0.00  0.00    +0.070 C 
ATOM     10  C   UNL     1       0.004   3.357  25.873  0.00  0.00    +0.028 C 
ATOM     11  C   UNL     1      -0.573   2.258  23.781  0.00  0.00    +0.096 C 
ATOM     12  C   UNL     1       0.698   2.011  25.707  0.00  0.00    +0.085 C 
ENDROOT
BRANCH   9  13
ATOM      6  N   UNL     1      -2.900   4.972  24.727  0.00  0.00    -0.342 N 
ATOM      7  N   UNL     1      -3.205   2.829  25.232  0.00  0.00    -0.231 NA
ATOM     13  C   UNL     1      -2.329   3.737  24.864  0.00  0.00    +0.113 A 
ATOM     16  C   UNL     1      -4.233   4.853  25.026  0.00  0.00    +0.067 A 
ATOM     17  C   UNL     1      -4.399   3.506  25.338  0.00  0.00    +0.101 A 
ATOM     20  C   UNL     1      -5.674   3.038  25.697  0.00  0.00    +0.064 A 
ATOM     21  C   UNL     1      -5.277   5.779  25.049  0.00  0.00    +0.028 A 
ATOM     22  C   UNL     1      -6.737   3.950  25.728  0.00  0.00    +0.015 A 
ATOM     23  C   UNL     1      -6.540   5.295  25.409  0.00  0.00    +0.003 A 
ATOM     29  H   UNL     1      -2.427   5.823  24.454  0.00  0.00    +0.167 HD
BRANCH  20  27
ATOM      4  O   UNL     1      -6.710   1.302  26.905  0.00  0.00    -0.270 OA
ATOM      8  N   UNL     1      -5.160   0.685  25.333  0.00  0.00    -0.325 N 
ATOM     27  C   UNL     1      -5.889   1.643  26.033  0.00  0.00    +0.244 C 
ATOM     30  H   UNL     1      -5.288  -0.302  25.535  0.00  0.00    +0.145 HD
ATOM     31  H   UNL     1      -4.484   0.904  24.610  0.00  0.00    +0.145 HD
ENDBRANCH  20  27
ENDBRANCH   9  13
BRANCH   5  14
ATOM     14  C   UNL     1       1.084   0.487  23.861  0.00  0.00    +0.119 C 
BRANCH  14  15
ATOM     15  C   UNL     1      -0.086  -0.446  24.021  0.00  0.00    -0.033 A 
ATOM     18  C   UNL     1      -1.341  -0.081  23.531  0.00  0.00    +0.005 A 
ATOM     19  C   UNL     1       0.083  -1.675  24.658  0.00  0.00    +0.005 A 
ATOM     24  C   UNL     1      -2.425  -0.946  23.678  0.00  0.00    +0.012 A 
ATOM     25  C   UNL     1      -1.002  -2.540  24.805  0.00  0.00    +0.012 A 
ATOM     26  C   UNL     1      -2.255  -2.175  24.315  0.00  0.00    +0.055 A 
BRANCH  26  28
ATOM      1  F   UNL     1      -4.595  -2.577  24.023  0.00  0.00    -0.166 F 
ATOM      2  F   UNL     1      -3.638  -3.451  25.769  0.00  0.00    -0.166 F 
ATOM      3  F   UNL     1      -3.269  -4.278  23.793  0.00  0.00    -0.166 F 
ATOM     28  C   UNL     1      -3.415  -3.101  24.469  0.00  0.00    +0.417 C 
ENDBRANCH  26  28
ENDBRANCH  14  15
ENDBRANCH   5  14
TORSDOF 5
ENDMDL
MODEL 9
REMARK VINA RESULT:       4.3      4.993      8.768
REMARK  Name = 51137874
REMARK  5 active torsions:
REMARK  status: ('A' for Active; 'I' for Inactive)
REMARK    1  A    between atoms: N_5  and  C_14
REMARK    2  A    between atoms: C_9  and  C_13
REMARK    3  A    between atoms: C_14  and  C_15
REMARK    4  A    between atoms: C_20  and  C_27
REMARK    5  A    between atoms: C_26  and  C_28
REMARK                            x       y       z     vdW  Elec       q    Type
REMARK                         _______ _______ _______ _____ _____    ______ ____
ROOT
ATOM      5  N   UNL     1      -2.321   3.433  25.876  0.00  0.00    -0.297 NA
ATOM      9  C   UNL     1      -0.129   2.949  25.196  0.00  0.00    +0.070 C 
ATOM     10  C   UNL     1      -0.604   4.247  24.518  0.00  0.00    +0.028 C 
ATOM     11  C   UNL     1      -1.412   2.295  25.724  0.00  0.00    +0.096 C 
ATOM     12  C   UNL     1      -2.120   4.239  24.672  0.00  0.00    +0.085 C 
ENDROOT
BRANCH   9  13
ATOM      6  N   UNL     1       0.095   1.301  23.316  0.00  0.00    -0.342 N 
ATOM      7  N   UNL     1       1.977   1.820  24.377  0.00  0.00    -0.231 NA
ATOM     13  C   UNL     1       0.682   2.031  24.312  0.00  0.00    +0.113 A 
ATOM     16  C   UNL     1       1.076   0.572  22.697  0.00  0.00    +0.067 A 
ATOM     17  C   UNL     1       2.243   0.913  23.376  0.00  0.00    +0.101 A 
ATOM     20  C   UNL     1       3.459   0.329  22.985  0.00  0.00    +0.064 A 
ATOM     21  C   UNL     1       1.046  -0.330  21.632  0.00  0.00    +0.028 A 
ATOM     22  C   UNL     1       3.452  -0.579  21.919  0.00  0.00    +0.015 A 
ATOM     23  C   UNL     1       2.267  -0.901  21.256  0.00  0.00    +0.003 A 
ATOM     29  H   UNL     1      -0.888   1.298  23.076  0.00  0.00    +0.167 HD
BRANCH  20  27
ATOM      4  O   UNL     1       5.219   1.780  23.571  0.00  0.00    -0.270 OA
ATOM      8  N   UNL     1       5.279  -0.331  24.464  0.00  0.00    -0.325 N 
ATOM     27  C   UNL     1       4.697   0.655  23.670  0.00  0.00    +0.244 C 
ATOM     30  H   UNL     1       6.142  -0.138  24.964  0.00  0.00    +0.145 HD
ATOM     31  H   UNL     1       4.895  -1.260  24.585  0.00  0.00    +0.145 HD
ENDBRANCH  20  27
ENDBRANCH   9  13
BRANCH   5  14
ATOM     14  C   UNL     1      -3.706   3.020  26.041  0.00  0.00    +0.119 C 
BRANCH  14  15
ATOM     15  C   UNL     1      -3.953   1.646  25.477  0.00  0.00    -0.033 A 
ATOM     18  C   UNL     1      -5.167   1.356  24.854  0.00  0.00    +0.005 A 
ATOM     19  C   UNL     1      -2.968   0.663  25.578  0.00  0.00    +0.005 A 
ATOM     24  C   UNL     1      -5.395   0.083  24.330  0.00  0.00    +0.012 A 
ATOM     25  C   UNL     1      -3.197  -0.610  25.054  0.00  0.00    +0.012 A 
ATOM     26  C   UNL     1      -4.410  -0.900  24.431  0.00  0.00    +0.055 A 
BRANCH  26  28
ATOM      1  F   UNL     1      -4.073  -3.262  24.591  0.00  0.00    -0.166 F 
ATOM      2  F   UNL     1      -4.174  -2.396  22.599  0.00  0.00    -0.166 F 
ATOM      3  F   UNL     1      -5.977  -2.592  23.798  0.00  0.00    -0.166 F 
ATOM     28  C   UNL     1      -4.655  -2.259  23.869  0.00  0.00    +0.417 C 
ENDBRANCH  26  28
ENDBRANCH  14  15
ENDBRANCH   5  14
TORSDOF 5
ENDMDL
MODEL 10
REMARK VINA RESULT:       5.5      1.740      2.575
REMARK  Name = 51137874
REMARK  5 active torsions:
REMARK  status: ('A' for Active; 'I' for Inactive)
REMARK    1  A    between atoms: N_5  and  C_14
REMARK    2  A    between atoms: C_9  and  C_13
REMARK    3  A    between atoms: C_14  and  C_15
REMARK    4  A    between atoms: C_20  and  C_27
REMARK    5  A    between atoms: C_26  and  C_28
REMARK                            x       y       z     vdW  Elec       q    Type
REMARK                         _______ _______ _______ _____ _____    ______ ____
ROOT
ATOM      5  N   UNL     1       0.591   0.918  22.913  0.00  0.00    -0.297 NA
ATOM      9  C   UNL     1      -1.290   2.223  23.421  0.00  0.00    +0.070 C 
ATOM     10  C   UNL     1      -0.114   2.642  24.321  0.00  0.00    +0.028 C 
ATOM     11  C   UNL     1      -0.870   0.866  22.840  0.00  0.00    +0.096 C 
ATOM     12  C   UNL     1       0.883   1.494  24.225  0.00  0.00    +0.085 C 
ENDROOT
BRANCH   9  13
ATOM      6  N   UNL     1      -3.303   1.002  24.290  0.00  0.00    -0.342 N 
ATOM      7  N   UNL     1      -3.300   3.203  24.596  0.00  0.00    -0.231 NA
ATOM     13  C   UNL     1      -2.634   2.180  24.110  0.00  0.00    +0.113 A 
ATOM     16  C   UNL     1      -4.479   1.283  24.936  0.00  0.00    +0.067 A 
ATOM     17  C   UNL     1      -4.454   2.663  25.117  0.00  0.00    +0.101 A 
ATOM     20  C   UNL     1      -5.534   3.290  25.762  0.00  0.00    +0.064 A 
ATOM     21  C   UNL     1      -5.531   0.473  25.367  0.00  0.00    +0.028 A 
ATOM     22  C   UNL     1      -6.601   2.497  26.201  0.00  0.00    +0.015 A 
ATOM     23  C   UNL     1      -6.598   1.114  26.007  0.00  0.00    +0.003 A 
ATOM     29  H   UNL     1      -2.990   0.085  24.000  0.00  0.00    +0.167 HD
BRANCH  20  27
ATOM      4  O   UNL     1      -4.582   5.322  26.475  0.00  0.00    -0.270 OA
ATOM      8  N   UNL     1      -6.679   5.430  25.554  0.00  0.00    -0.325 N 
ATOM     27  C   UNL     1      -5.549   4.726  25.966  0.00  0.00    +0.244 C 
ATOM     30  H   UNL     1      -6.723   6.438  25.675  0.00  0.00    +0.145 HD
ATOM     31  H   UNL     1      -7.491   4.999  25.129  0.00  0.00    +0.145 HD
ENDBRANCH  20  27
ENDBRANCH   9  13
BRANCH   5  14
ATOM     14  C   UNL     1       1.203  -0.390  22.734  0.00  0.00    +0.119 C 
BRANCH  14  15
ATOM     15  C   UNL     1       2.689  -0.351  22.968  0.00  0.00    -0.033 A 
ATOM     18  C   UNL     1       3.436   0.743  22.530  0.00  0.00    +0.005 A 
ATOM     19  C   UNL     1       3.320  -1.408  23.624  0.00  0.00    +0.005 A 
ATOM     24  C   UNL     1       4.813   0.780  22.748  0.00  0.00    +0.012 A 
ATOM     25  C   UNL     1       4.698  -1.371  23.842  0.00  0.00    +0.012 A 
ATOM     26  C   UNL     1       5.444  -0.277  23.404  0.00  0.00    +0.055 A 
BRANCH  26  28
ATOM      1  F   UNL     1       7.316  -0.954  24.729  0.00  0.00    -0.166 F 
ATOM      2  F   UNL     1       7.379   1.031  23.844  0.00  0.00    -0.166 F 
ATOM      3  F   UNL     1       7.650  -0.729  22.598  0.00  0.00    -0.166 F 
ATOM     28  C   UNL     1       6.916  -0.236  23.639  0.00  0.00    +0.417 C 
ENDBRANCH  26  28
ENDBRANCH  14  15
ENDBRANCH   5  14
TORSDOF 5
ENDMDL
