MODEL 1
REMARK VINA RESULT:      -2.3      0.000      0.000
REMARK  Name = 45360914
REMARK  8 active torsions:
REMARK  status: ('A' for Active; 'I' for Inactive)
REMARK    1  A    between atoms: N_4  and  C_19
REMARK    2  A    between atoms: N_5  and  C_17
REMARK    3  A    between atoms: N_9  and  C_25
REMARK    4  A    between atoms: C_14  and  C_18
REMARK    5  A    between atoms: C_17  and  C_21
REMARK    6  A    between atoms: C_18  and  C_20
REMARK    7  A    between atoms: C_20  and  C_22
REMARK    8  A    between atoms: C_25  and  C_26
REMARK                            x       y       z     vdW  Elec       q    Type
REMARK                         _______ _______ _______ _____ _____    ______ ____
ROOT
ATOM      2  O   UNL     1      -0.915   0.628  26.497  0.00  0.00    -0.274 OA
ATOM      4  N   UNL     1      -2.259   3.146  23.881  0.00  0.00    -0.296 NA
ATOM      5  N   UNL     1      -0.459  -0.040  23.921  0.00  0.00    -0.283 NA
ATOM      6  N   UNL     1      -0.555   2.867  26.192  0.00  0.00    -0.312 N 
ATOM     10  C   UNL     1      -1.349   2.132  23.303  0.00  0.00    +0.084 C 
ATOM     11  C   UNL     1      -0.362   1.393  24.254  0.00  0.00    +0.161 C 
ATOM     12  C   UNL     1      -2.076   0.957  22.621  0.00  0.00    +0.036 C 
ATOM     13  C   UNL     1      -1.023  -0.130  22.579  0.00  0.00    +0.087 C 
ATOM     14  C   UNL     1      -1.570   4.329  24.470  0.00  0.00    +0.074 C 
ATOM     15  C   UNL     1      -0.651   1.563  25.744  0.00  0.00    +0.232 C 
ATOM     16  C   UNL     1      -0.325   3.999  25.316  0.00  0.00    +0.123 C 
ATOM     19  C   UNL     1      -3.258   3.578  22.890  0.00  0.00    +0.105 C 
ATOM     32  H   UNL     1      -0.712   3.046  27.179  0.00  0.00    +0.149 HD
ENDROOT
BRANCH   5  17
ATOM     17  C   UNL     1       0.812  -0.745  24.030  0.00  0.00    +0.159 C 
BRANCH  17  21
ATOM      7  N   UNL     1       2.766   0.765  23.627  0.00  0.00    -0.347 N 
ATOM      8  N   UNL     1       2.057  -0.390  21.868  0.00  0.00    -0.239 NA
ATOM     21  C   UNL     1       1.866  -0.143  23.145  0.00  0.00    +0.121 A 
ATOM     23  C   UNL     1       3.583   1.121  22.591  0.00  0.00    +0.104 A 
ATOM     24  C   UNL     1       3.127   0.395  21.517  0.00  0.00    +0.130 A 
ATOM     33  H   UNL     1       2.819   1.111  24.576  0.00  0.00    +0.167 HD
ENDBRANCH  17  21
ENDBRANCH   5  17
BRANCH  14  18
ATOM     18  C   UNL     1      -2.541   5.130  25.362  0.00  0.00    +0.029 C 
BRANCH  18  20
ATOM     20  C   UNL     1      -3.156   4.236  26.422  0.00  0.00    +0.097 C 
BRANCH  20  22
ATOM      3  O   UNL     1      -5.420   4.020  25.592  0.00  0.00    -0.276 OA
ATOM      9  N   UNL     1      -4.101   2.119  25.781  0.00  0.00    -0.311 N 
ATOM     22  C   UNL     1      -4.358   3.478  25.887  0.00  0.00    +0.213 C 
ATOM     34  H   UNL     1      -3.183   1.762  26.032  0.00  0.00    +0.149 HD
BRANCH   9  25
ATOM     25  C   UNL     1      -5.087   1.183  25.297  0.00  0.00    +0.139 C 
BRANCH  25  26
ATOM      1  F   UNL     1      -2.846  -3.866  24.208  0.00  0.00    -0.205 F 
ATOM     26  C   UNL     1      -4.490  -0.163  25.006  0.00  0.00    -0.030 A 
ATOM     27  C   UNL     1      -4.808  -0.826  23.821  0.00  0.00    +0.008 A 
ATOM     28  C   UNL     1      -3.617  -0.751  25.922  0.00  0.00    +0.008 A 
ATOM     29  C   UNL     1      -4.253  -2.077  23.551  0.00  0.00    +0.038 A 
ATOM     30  C   UNL     1      -3.061  -2.002  25.652  0.00  0.00    +0.038 A 
ATOM     31  C   UNL     1      -3.380  -2.665  24.467  0.00  0.00    +0.123 A 
ENDBRANCH  25  26
ENDBRANCH   9  25
ENDBRANCH  20  22
ENDBRANCH  18  20
ENDBRANCH  14  18
TORSDOF 7
ENDMDL
MODEL 2
REMARK VINA RESULT:      -1.2      1.209      1.578
REMARK  Name = 45360914
REMARK  8 active torsions:
REMARK  status: ('A' for Active; 'I' for Inactive)
REMARK    1  A    between atoms: N_4  and  C_19
REMARK    2  A    between atoms: N_5  and  C_17
REMARK    3  A    between atoms: N_9  and  C_25
REMARK    4  A    between atoms: C_14  and  C_18
REMARK    5  A    between atoms: C_17  and  C_21
REMARK    6  A    between atoms: C_18  and  C_20
REMARK    7  A    between atoms: C_20  and  C_22
REMARK    8  A    between atoms: C_25  and  C_26
REMARK                            x       y       z     vdW  Elec       q    Type
REMARK                         _______ _______ _______ _____ _____    ______ ____
ROOT
ATOM      2  O   UNL     1      -0.935   1.922  26.688  0.00  0.00    -0.274 OA
ATOM      4  N   UNL     1      -3.200   3.101  23.778  0.00  0.00    -0.296 NA
ATOM      5  N   UNL     1       0.013   1.404  24.214  0.00  0.00    -0.283 NA
ATOM      6  N   UNL     1      -1.803   3.969  26.148  0.00  0.00    -0.312 N 
ATOM     10  C   UNL     1      -1.846   2.695  23.338  0.00  0.00    +0.084 C 
ATOM     11  C   UNL     1      -0.697   2.684  24.389  0.00  0.00    +0.161 C 
ATOM     12  C   UNL     1      -1.775   1.265  22.771  0.00  0.00    +0.036 C 
ATOM     13  C   UNL     1      -0.305   0.917  22.876  0.00  0.00    +0.087 C 
ATOM     14  C   UNL     1      -3.299   4.510  24.249  0.00  0.00    +0.074 C 
ATOM     15  C   UNL     1      -1.152   2.789  25.843  0.00  0.00    +0.232 C 
ATOM     16  C   UNL     1      -2.143   4.972  25.159  0.00  0.00    +0.123 C 
ATOM     19  C   UNL     1      -4.192   2.846  22.720  0.00  0.00    +0.105 C 
ATOM     32  H   UNL     1      -2.111   4.112  27.104  0.00  0.00    +0.149 HD
ENDROOT
BRANCH   5  17
ATOM     17  C   UNL     1       1.450   1.507  24.432  0.00  0.00    +0.159 C 
BRANCH  17  21
ATOM      7  N   UNL     1       3.514   1.289  23.032  0.00  0.00    -0.347 N 
ATOM      8  N   UNL     1       1.829  -0.049  22.486  0.00  0.00    -0.239 NA
ATOM     21  C   UNL     1       2.235   0.893  23.308  0.00  0.00    +0.121 A 
ATOM     23  C   UNL     1       3.950   0.553  21.967  0.00  0.00    +0.104 A 
ATOM     24  C   UNL     1       2.893  -0.266  21.648  0.00  0.00    +0.130 A 
ATOM     33  H   UNL     1       4.041   1.997  23.526  0.00  0.00    +0.167 HD
ENDBRANCH  17  21
ENDBRANCH   5  17
BRANCH  14  18
ATOM     18  C   UNL     1      -4.616   4.729  25.023  0.00  0.00    +0.029 C 
BRANCH  18  20
ATOM     20  C   UNL     1      -4.621   3.925  26.310  0.00  0.00    +0.097 C 
BRANCH  20  22
ATOM      3  O   UNL     1      -6.537   2.476  26.611  0.00  0.00    -0.276 OA
ATOM      9  N   UNL     1      -4.685   1.675  25.464  0.00  0.00    -0.311 N 
ATOM     22  C   UNL     1      -5.405   2.634  26.161  0.00  0.00    +0.213 C 
ATOM     34  H   UNL     1      -3.758   1.902  25.112  0.00  0.00    +0.149 HD
BRANCH   9  25
ATOM     25  C   UNL     1      -5.213   0.360  25.191  0.00  0.00    +0.139 C 
BRANCH  25  26
ATOM      1  F   UNL     1      -1.132  -3.402  24.245  0.00  0.00    -0.205 F 
ATOM     26  C   UNL     1      -4.125  -0.642  24.939  0.00  0.00    -0.030 A 
ATOM     27  C   UNL     1      -2.887  -0.500  25.565  0.00  0.00    +0.008 A 
ATOM     28  C   UNL     1      -4.352  -1.717  24.078  0.00  0.00    +0.008 A 
ATOM     29  C   UNL     1      -1.875  -1.432  25.331  0.00  0.00    +0.038 A 
ATOM     30  C   UNL     1      -3.341  -2.649  23.844  0.00  0.00    +0.038 A 
ATOM     31  C   UNL     1      -2.103  -2.506  24.470  0.00  0.00    +0.123 A 
ENDBRANCH  25  26
ENDBRANCH   9  25
ENDBRANCH  20  22
ENDBRANCH  18  20
ENDBRANCH  14  18
TORSDOF 7
ENDMDL
MODEL 3
REMARK VINA RESULT:      -0.7      2.613      4.655
REMARK  Name = 45360914
REMARK  8 active torsions:
REMARK  status: ('A' for Active; 'I' for Inactive)
REMARK    1  A    between atoms: N_4  and  C_19
REMARK    2  A    between atoms: N_5  and  C_17
REMARK    3  A    between atoms: N_9  and  C_25
REMARK    4  A    between atoms: C_14  and  C_18
REMARK    5  A    between atoms: C_17  and  C_21
REMARK    6  A    between atoms: C_18  and  C_20
REMARK    7  A    between atoms: C_20  and  C_22
REMARK    8  A    between atoms: C_25  and  C_26
REMARK                            x       y       z     vdW  Elec       q    Type
REMARK                         _______ _______ _______ _____ _____    ______ ____
ROOT
ATOM      2  O   UNL     1      -0.796  -1.136  22.001  0.00  0.00    -0.274 OA
ATOM      4  N   UNL     1      -1.170   0.310  25.572  0.00  0.00    -0.296 NA
ATOM      5  N   UNL     1       1.237   0.442  22.820  0.00  0.00    -0.283 NA
ATOM      6  N   UNL     1      -1.113  -2.131  24.036  0.00  0.00    -0.312 N 
ATOM     10  C   UNL     1       0.184   0.496  25.006  0.00  0.00    +0.084 C 
ATOM     11  C   UNL     1       0.634  -0.435  23.841  0.00  0.00    +0.161 C 
ATOM     12  C   UNL     1       0.427   1.895  24.410  0.00  0.00    +0.036 C 
ATOM     13  C   UNL     1       1.608   1.684  23.487  0.00  0.00    +0.087 C 
ATOM     14  C   UNL     1      -1.390  -1.010  26.227  0.00  0.00    +0.074 C 
ATOM     15  C   UNL     1      -0.487  -1.238  23.186  0.00  0.00    +0.232 C 
ATOM     16  C   UNL     1      -0.827  -2.218  25.455  0.00  0.00    +0.123 C 
ATOM     19  C   UNL     1      -1.502   1.403  26.502  0.00  0.00    +0.105 C 
ATOM     32  H   UNL     1      -1.853  -2.713  23.658  0.00  0.00    +0.149 HD
ENDROOT
BRANCH   5  17
ATOM     17  C   UNL     1       2.367  -0.169  22.130  0.00  0.00    +0.159 C 
BRANCH  17  21
ATOM      7  N   UNL     1       4.090  -1.152  23.657  0.00  0.00    -0.347 N 
ATOM      8  N   UNL     1       4.420   0.961  23.057  0.00  0.00    -0.239 NA
ATOM     21  C   UNL     1       3.631  -0.083  22.937  0.00  0.00    +0.121 A 
ATOM     23  C   UNL     1       5.245  -0.763  24.275  0.00  0.00    +0.104 A 
ATOM     24  C   UNL     1       5.428   0.543  23.889  0.00  0.00    +0.130 A 
ATOM     33  H   UNL     1       3.655  -2.062  23.720  0.00  0.00    +0.167 HD
ENDBRANCH  17  21
ENDBRANCH   5  17
BRANCH  14  18
ATOM     18  C   UNL     1      -2.897  -1.259  26.447  0.00  0.00    +0.029 C 
BRANCH  18  20
ATOM     20  C   UNL     1      -3.586  -1.573  25.132  0.00  0.00    +0.097 C 
BRANCH  20  22
ATOM      3  O   UNL     1      -3.697  -0.102  23.212  0.00  0.00    -0.276 OA
ATOM      9  N   UNL     1      -4.682   0.566  25.205  0.00  0.00    -0.311 N 
ATOM     22  C   UNL     1      -3.979  -0.308  24.390  0.00  0.00    +0.213 C 
ATOM     34  H   UNL     1      -4.885   0.303  26.166  0.00  0.00    +0.149 HD
BRANCH   9  25
ATOM     25  C   UNL     1      -5.167   1.841  24.732  0.00  0.00    +0.139 C 
BRANCH  25  26
ATOM      1  F   UNL     1      -1.305   5.902  25.275  0.00  0.00    -0.205 F 
ATOM     26  C   UNL     1      -4.138   2.923  24.876  0.00  0.00    -0.030 A 
ATOM     27  C   UNL     1      -3.231   3.166  23.844  0.00  0.00    +0.008 A 
ATOM     28  C   UNL     1      -4.087   3.687  26.043  0.00  0.00    +0.008 A 
ATOM     29  C   UNL     1      -2.274   4.173  23.978  0.00  0.00    +0.038 A 
ATOM     30  C   UNL     1      -3.130   4.694  26.178  0.00  0.00    +0.038 A 
ATOM     31  C   UNL     1      -2.224   4.936  25.145  0.00  0.00    +0.123 A 
ENDBRANCH  25  26
ENDBRANCH   9  25
ENDBRANCH  20  22
ENDBRANCH  18  20
ENDBRANCH  14  18
TORSDOF 7
ENDMDL
MODEL 4
REMARK VINA RESULT:      -0.5      2.406      4.650
REMARK  Name = 45360914
REMARK  8 active torsions:
REMARK  status: ('A' for Active; 'I' for Inactive)
REMARK    1  A    between atoms: N_4  and  C_19
REMARK    2  A    between atoms: N_5  and  C_17
REMARK    3  A    between atoms: N_9  and  C_25
REMARK    4  A    between atoms: C_14  and  C_18
REMARK    5  A    between atoms: C_17  and  C_21
REMARK    6  A    between atoms: C_18  and  C_20
REMARK    7  A    between atoms: C_20  and  C_22
REMARK    8  A    between atoms: C_25  and  C_26
REMARK                            x       y       z     vdW  Elec       q    Type
REMARK                         _______ _______ _______ _____ _____    ______ ____
ROOT
ATOM      2  O   UNL     1      -0.779   2.001  23.725  0.00  0.00    -0.274 OA
ATOM      4  N   UNL     1      -2.835  -0.844  25.359  0.00  0.00    -0.296 NA
ATOM      5  N   UNL     1       0.442  -0.407  23.788  0.00  0.00    -0.283 NA
ATOM      6  N   UNL     1      -2.861   1.162  23.285  0.00  0.00    -0.312 N 
ATOM     10  C   UNL     1      -1.638  -1.328  24.636  0.00  0.00    +0.084 C 
ATOM     11  C   UNL     1      -1.012  -0.415  23.541  0.00  0.00    +0.161 C 
ATOM     12  C   UNL     1      -0.429  -1.611  25.547  0.00  0.00    +0.036 C 
ATOM     13  C   UNL     1       0.745  -1.586  24.591  0.00  0.00    +0.087 C 
ATOM     14  C   UNL     1      -4.037  -0.648  24.501  0.00  0.00    +0.074 C 
ATOM     15  C   UNL     1      -1.510   1.029  23.544  0.00  0.00    +0.232 C 
ATOM     16  C   UNL     1      -3.762   0.035  23.146  0.00  0.00    +0.123 C 
ATOM     19  C   UNL     1      -3.155  -1.728  26.492  0.00  0.00    +0.105 C 
ATOM     32  H   UNL     1      -3.252   2.098  23.249  0.00  0.00    +0.149 HD
ENDROOT
BRANCH   5  17
ATOM     17  C   UNL     1       1.234  -0.357  22.566  0.00  0.00    +0.159 C 
BRANCH  17  21
ATOM      7  N   UNL     1       3.512  -1.032  23.352  0.00  0.00    -0.347 N 
ATOM      8  N   UNL     1       3.311   1.067  22.658  0.00  0.00    -0.239 NA
ATOM     21  C   UNL     1       2.682  -0.071  22.846  0.00  0.00    +0.121 A 
ATOM     23  C   UNL     1       4.749  -0.471  23.495  0.00  0.00    +0.104 A 
ATOM     24  C   UNL     1       4.600   0.825  23.059  0.00  0.00    +0.130 A 
ATOM     33  H   UNL     1       3.258  -1.985  23.578  0.00  0.00    +0.167 HD
ENDBRANCH  17  21
ENDBRANCH   5  17
BRANCH  14  18
ATOM     18  C   UNL     1      -5.096   0.195  25.241  0.00  0.00    +0.029 C 
BRANCH  18  20
ATOM     20  C   UNL     1      -5.612   1.310  24.350  0.00  0.00    +0.097 C 
BRANCH  20  22
ATOM      3  O   UNL     1      -4.673   3.492  23.886  0.00  0.00    -0.276 OA
ATOM      9  N   UNL     1      -4.858   2.788  26.090  0.00  0.00    -0.311 N 
ATOM     22  C   UNL     1      -4.999   2.649  24.717  0.00  0.00    +0.213 C 
ATOM     34  H   UNL     1      -5.173   2.042  26.704  0.00  0.00    +0.149 HD
BRANCH   9  25
ATOM     25  C   UNL     1      -4.298   3.975  26.692  0.00  0.00    +0.139 C 
BRANCH  25  26
ATOM      1  F   UNL     1       0.625   5.401  24.362  0.00  0.00    -0.205 F 
ATOM     26  C   UNL     1      -2.986   4.355  26.071  0.00  0.00    -0.030 A 
ATOM     27  C   UNL     1      -1.884   3.508  26.195  0.00  0.00    +0.008 A 
ATOM     28  C   UNL     1      -2.867   5.555  25.370  0.00  0.00    +0.008 A 
ATOM     29  C   UNL     1      -0.664   3.861  25.617  0.00  0.00    +0.038 A 
ATOM     30  C   UNL     1      -1.647   5.909  24.792  0.00  0.00    +0.038 A 
ATOM     31  C   UNL     1      -0.546   5.062  24.917  0.00  0.00    +0.123 A 
ENDBRANCH  25  26
ENDBRANCH   9  25
ENDBRANCH  20  22
ENDBRANCH  18  20
ENDBRANCH  14  18
TORSDOF 7
ENDMDL
MODEL 5
REMARK VINA RESULT:       0.1      2.176      3.668
REMARK  Name = 45360914
REMARK  8 active torsions:
REMARK  status: ('A' for Active; 'I' for Inactive)
REMARK    1  A    between atoms: N_4  and  C_19
REMARK    2  A    between atoms: N_5  and  C_17
REMARK    3  A    between atoms: N_9  and  C_25
REMARK    4  A    between atoms: C_14  and  C_18
REMARK    5  A    between atoms: C_17  and  C_21
REMARK    6  A    between atoms: C_18  and  C_20
REMARK    7  A    between atoms: C_20  and  C_22
REMARK    8  A    between atoms: C_25  and  C_26
REMARK                            x       y       z     vdW  Elec       q    Type
REMARK                         _______ _______ _______ _____ _____    ______ ____
ROOT
ATOM      2  O   UNL     1      -1.720   3.096  27.487  0.00  0.00    -0.274 OA
ATOM      4  N   UNL     1      -2.633   2.586  23.759  0.00  0.00    -0.296 NA
ATOM      5  N   UNL     1       0.356   2.493  25.868  0.00  0.00    -0.283 NA
ATOM      6  N   UNL     1      -2.779   4.438  25.967  0.00  0.00    -0.312 N 
ATOM     10  C   UNL     1      -1.176   2.688  23.995  0.00  0.00    +0.084 C 
ATOM     11  C   UNL     1      -0.683   3.375  25.302  0.00  0.00    +0.161 C 
ATOM     12  C   UNL     1      -0.457   1.327  24.057  0.00  0.00    +0.036 C 
ATOM     13  C   UNL     1       0.834   1.644  24.783  0.00  0.00    +0.087 C 
ATOM     14  C   UNL     1      -3.327   3.896  23.613  0.00  0.00    +0.074 C 
ATOM     15  C   UNL     1      -1.759   3.593  26.363  0.00  0.00    +0.232 C 
ATOM     16  C   UNL     1      -2.896   4.975  24.625  0.00  0.00    +0.123 C 
ATOM     19  C   UNL     1      -2.917   1.726  22.598  0.00  0.00    +0.105 C 
ATOM     32  H   UNL     1      -3.516   4.644  26.633  0.00  0.00    +0.149 HD
ENDROOT
BRANCH   5  17
ATOM     17  C   UNL     1       1.441   3.221  26.513  0.00  0.00    +0.159 C 
BRANCH  17  21
ATOM      7  N   UNL     1       0.595   2.330  28.694  0.00  0.00    -0.347 N 
ATOM      8  N   UNL     1       2.765   2.793  28.614  0.00  0.00    -0.239 NA
ATOM     21  C   UNL     1       1.638   2.789  27.938  0.00  0.00    +0.121 A 
ATOM     23  C   UNL     1       1.089   2.021  29.929  0.00  0.00    +0.104 A 
ATOM     24  C   UNL     1       2.430   2.314  29.856  0.00  0.00    +0.130 A 
ATOM     33  H   UNL     1      -0.366   2.235  28.393  0.00  0.00    +0.167 HD
ENDBRANCH  17  21
ENDBRANCH   5  17
BRANCH  14  18
ATOM     18  C   UNL     1      -4.854   3.716  23.746  0.00  0.00    +0.029 C 
BRANCH  18  20
ATOM     20  C   UNL     1      -5.266   3.703  25.207  0.00  0.00    +0.097 C 
BRANCH  20  22
ATOM      3  O   UNL     1      -6.232   2.069  26.709  0.00  0.00    -0.276 OA
ATOM      9  N   UNL     1      -5.098   1.336  24.821  0.00  0.00    -0.311 N 
ATOM     22  C   UNL     1      -5.599   2.300  25.682  0.00  0.00    +0.213 C 
ATOM     34  H   UNL     1      -4.599   1.622  23.982  0.00  0.00    +0.149 HD
BRANCH   9  25
ATOM     25  C   UNL     1      -5.281  -0.077  25.054  0.00  0.00    +0.139 C 
BRANCH  25  26
ATOM      1  F   UNL     1      -0.384  -2.854  25.152  0.00  0.00    -0.205 F 
ATOM     26  C   UNL     1      -3.976  -0.817  25.080  0.00  0.00    -0.030 A 
ATOM     27  C   UNL     1      -2.937  -0.369  25.896  0.00  0.00    +0.008 A 
ATOM     28  C   UNL     1      -3.802  -1.953  24.288  0.00  0.00    +0.008 A 
ATOM     29  C   UNL     1      -1.723  -1.057  25.921  0.00  0.00    +0.038 A 
ATOM     30  C   UNL     1      -2.588  -2.641  24.313  0.00  0.00    +0.038 A 
ATOM     31  C   UNL     1      -1.549  -2.193  25.129  0.00  0.00    +0.123 A 
ENDBRANCH  25  26
ENDBRANCH   9  25
ENDBRANCH  20  22
ENDBRANCH  18  20
ENDBRANCH  14  18
TORSDOF 7
ENDMDL
MODEL 6
REMARK VINA RESULT:       0.7      2.999      4.720
REMARK  Name = 45360914
REMARK  8 active torsions:
REMARK  status: ('A' for Active; 'I' for Inactive)
REMARK    1  A    between atoms: N_4  and  C_19
REMARK    2  A    between atoms: N_5  and  C_17
REMARK    3  A    between atoms: N_9  and  C_25
REMARK    4  A    between atoms: C_14  and  C_18
REMARK    5  A    between atoms: C_17  and  C_21
REMARK    6  A    between atoms: C_18  and  C_20
REMARK    7  A    between atoms: C_20  and  C_22
REMARK    8  A    between atoms: C_25  and  C_26
REMARK                            x       y       z     vdW  Elec       q    Type
REMARK                         _______ _______ _______ _____ _____    ______ ____
ROOT
ATOM      2  O   UNL     1       0.573   2.405  23.788  0.00  0.00    -0.274 OA
ATOM      4  N   UNL     1      -2.895   1.007  24.791  0.00  0.00    -0.296 NA
ATOM      5  N   UNL     1       0.352  -0.285  23.704  0.00  0.00    -0.283 NA
ATOM      6  N   UNL     1      -1.534   2.807  22.993  0.00  0.00    -0.312 N 
ATOM     10  C   UNL     1      -2.014  -0.006  24.168  0.00  0.00    +0.084 C 
ATOM     11  C   UNL     1      -0.833   0.484  23.280  0.00  0.00    +0.161 C 
ATOM     12  C   UNL     1      -1.298  -0.919  25.180  0.00  0.00    +0.036 C 
ATOM     13  C   UNL     1      -0.135  -1.478  24.387  0.00  0.00    +0.087 C 
ATOM     14  C   UNL     1      -3.659   1.841  23.821  0.00  0.00    +0.074 C 
ATOM     15  C   UNL     1      -0.510   1.972  23.399  0.00  0.00    +0.232 C 
ATOM     16  C   UNL     1      -2.847   2.330  22.606  0.00  0.00    +0.123 C 
ATOM     19  C   UNL     1      -3.812   0.380  25.757  0.00  0.00    +0.105 C 
ATOM     32  H   UNL     1      -1.376   3.809  23.025  0.00  0.00    +0.149 HD
ENDROOT
BRANCH   5  17
ATOM     17  C   UNL     1       1.252  -0.611  22.606  0.00  0.00    +0.159 C 
BRANCH  17  21
ATOM      7  N   UNL     1       3.201   0.956  22.707  0.00  0.00    -0.347 N 
ATOM      8  N   UNL     1       3.573  -1.102  23.455  0.00  0.00    -0.239 NA
ATOM     21  C   UNL     1       2.681  -0.288  22.936  0.00  0.00    +0.121 A 
ATOM     23  C   UNL     1       4.508   0.933  23.106  0.00  0.00    +0.104 A 
ATOM     24  C   UNL     1       4.713  -0.347  23.565  0.00  0.00    +0.130 A 
ATOM     33  H   UNL     1       2.710   1.748  22.315  0.00  0.00    +0.167 HD
ENDBRANCH  17  21
ENDBRANCH   5  17
BRANCH  14  18
ATOM     18  C   UNL     1      -4.243   3.085  24.522  0.00  0.00    +0.029 C 
BRANCH  18  20
ATOM     20  C   UNL     1      -3.609   3.278  25.887  0.00  0.00    +0.097 C 
BRANCH  20  22
ATOM      3  O   UNL     1      -1.942   4.919  25.265  0.00  0.00    -0.276 OA
ATOM      9  N   UNL     1      -1.264   2.965  26.319  0.00  0.00    -0.311 N 
ATOM     22  C   UNL     1      -2.200   3.833  25.777  0.00  0.00    +0.213 C 
ATOM     34  H   UNL     1      -1.573   2.093  26.739  0.00  0.00    +0.149 HD
BRANCH   9  25
ATOM     25  C   UNL     1       0.149   3.265  26.335  0.00  0.00    +0.139 C 
BRANCH  25  26
ATOM      1  F   UNL     1       2.554   1.832  31.219  0.00  0.00    -0.205 F 
ATOM     26  C   UNL     1       0.790   2.883  27.636  0.00  0.00    -0.030 A 
ATOM     27  C   UNL     1       2.177   2.942  27.774  0.00  0.00    +0.008 A 
ATOM     28  C   UNL     1      -0.001   2.470  28.709  0.00  0.00    +0.008 A 
ATOM     29  C   UNL     1       2.774   2.587  28.985  0.00  0.00    +0.038 A 
ATOM     30  C   UNL     1       0.595   2.115  29.919  0.00  0.00    +0.038 A 
ATOM     31  C   UNL     1       1.982   2.173  30.056  0.00  0.00    +0.123 A 
ENDBRANCH  25  26
ENDBRANCH   9  25
ENDBRANCH  20  22
ENDBRANCH  18  20
ENDBRANCH  14  18
TORSDOF 7
ENDMDL
MODEL 7
REMARK VINA RESULT:       1.0      2.298      4.091
REMARK  Name = 45360914
REMARK  8 active torsions:
REMARK  status: ('A' for Active; 'I' for Inactive)
REMARK    1  A    between atoms: N_4  and  C_19
REMARK    2  A    between atoms: N_5  and  C_17
REMARK    3  A    between atoms: N_9  and  C_25
REMARK    4  A    between atoms: C_14  and  C_18
REMARK    5  A    between atoms: C_17  and  C_21
REMARK    6  A    between atoms: C_18  and  C_20
REMARK    7  A    between atoms: C_20  and  C_22
REMARK    8  A    between atoms: C_25  and  C_26
REMARK                            x       y       z     vdW  Elec       q    Type
REMARK                         _______ _______ _______ _____ _____    ______ ____
ROOT
ATOM      2  O   UNL     1      -1.548  -2.628  23.584  0.00  0.00    -0.274 OA
ATOM      4  N   UNL     1      -3.262   0.843  23.670  0.00  0.00    -0.296 NA
ATOM      5  N   UNL     1       0.131  -0.515  23.480  0.00  0.00    -0.283 NA
ATOM      6  N   UNL     1      -2.994  -1.664  25.072  0.00  0.00    -0.312 N 
ATOM     10  C   UNL     1      -1.797   0.910  23.863  0.00  0.00    +0.084 C 
ATOM     11  C   UNL     1      -1.054  -0.370  24.347  0.00  0.00    +0.161 C 
ATOM     12  C   UNL     1      -1.014   1.272  22.587  0.00  0.00    +0.036 C 
ATOM     13  C   UNL     1       0.390   0.793  22.889  0.00  0.00    +0.087 C 
ATOM     14  C   UNL     1      -4.037   0.577  24.914  0.00  0.00    +0.074 C 
ATOM     15  C   UNL     1      -1.869  -1.659  24.270  0.00  0.00    +0.232 C 
ATOM     16  C   UNL     1      -3.442  -0.511  25.829  0.00  0.00    +0.123 C 
ATOM     19  C   UNL     1      -3.759   2.061  23.010  0.00  0.00    +0.105 C 
ATOM     32  H   UNL     1      -3.568  -2.501  25.085  0.00  0.00    +0.149 HD
ENDROOT
BRANCH   5  17
ATOM     17  C   UNL     1       1.296  -1.042  24.178  0.00  0.00    +0.159 C 
BRANCH  17  21
ATOM      7  N   UNL     1       3.774  -1.137  23.838  0.00  0.00    -0.347 N 
ATOM      8  N   UNL     1       2.727   0.561  22.862  0.00  0.00    -0.239 NA
ATOM     21  C   UNL     1       2.580  -0.510  23.609  0.00  0.00    +0.121 A 
ATOM     23  C   UNL     1       4.743  -0.419  23.196  0.00  0.00    +0.104 A 
ATOM     24  C   UNL     1       4.073   0.623  22.600  0.00  0.00    +0.130 A 
ATOM     33  H   UNL     1       3.914  -1.977  24.383  0.00  0.00    +0.167 HD
ENDBRANCH  17  21
ENDBRANCH   5  17
BRANCH  14  18
ATOM     18  C   UNL     1      -5.482   0.157  24.570  0.00  0.00    +0.029 C 
BRANCH  18  20
ATOM     20  C   UNL     1      -6.462   1.254  24.941  0.00  0.00    +0.097 C 
BRANCH  20  22
ATOM      3  O   UNL     1      -5.870   2.356  27.014  0.00  0.00    -0.276 OA
ATOM      9  N   UNL     1      -5.138   3.261  25.005  0.00  0.00    -0.311 N 
ATOM     22  C   UNL     1      -5.805   2.330  25.787  0.00  0.00    +0.213 C 
ATOM     34  H   UNL     1      -5.123   3.148  23.995  0.00  0.00    +0.149 HD
BRANCH   9  25
ATOM     25  C   UNL     1      -4.433   4.384  25.576  0.00  0.00    +0.139 C 
BRANCH  25  26
ATOM      1  F   UNL     1       1.128   3.518  25.745  0.00  0.00    -0.205 F 
ATOM     26  C   UNL     1      -2.951   4.153  25.621  0.00  0.00    -0.030 A 
ATOM     27  C   UNL     1      -2.097   4.951  24.857  0.00  0.00    +0.008 A 
ATOM     28  C   UNL     1      -2.427   3.142  26.426  0.00  0.00    +0.008 A 
ATOM     29  C   UNL     1      -0.719   4.736  24.899  0.00  0.00    +0.038 A 
ATOM     30  C   UNL     1      -1.048   2.927  26.468  0.00  0.00    +0.038 A 
ATOM     31  C   UNL     1      -0.196   3.724  25.704  0.00  0.00    +0.123 A 
ENDBRANCH  25  26
ENDBRANCH   9  25
ENDBRANCH  20  22
ENDBRANCH  18  20
ENDBRANCH  14  18
TORSDOF 7
ENDMDL
MODEL 8
REMARK VINA RESULT:       1.3      2.594      6.921
REMARK  Name = 45360914
REMARK  8 active torsions:
REMARK  status: ('A' for Active; 'I' for Inactive)
REMARK    1  A    between atoms: N_4  and  C_19
REMARK    2  A    between atoms: N_5  and  C_17
REMARK    3  A    between atoms: N_9  and  C_25
REMARK    4  A    between atoms: C_14  and  C_18
REMARK    5  A    between atoms: C_17  and  C_21
REMARK    6  A    between atoms: C_18  and  C_20
REMARK    7  A    between atoms: C_20  and  C_22
REMARK    8  A    between atoms: C_25  and  C_26
REMARK                            x       y       z     vdW  Elec       q    Type
REMARK                         _______ _______ _______ _____ _____    ______ ____
ROOT
ATOM      2  O   UNL     1      -2.601   2.310  23.018  0.00  0.00    -0.274 OA
ATOM      4  N   UNL     1      -3.141  -1.046  24.870  0.00  0.00    -0.296 NA
ATOM      5  N   UNL     1      -4.906   2.128  24.414  0.00  0.00    -0.283 NA
ATOM      6  N   UNL     1      -1.340   1.186  24.560  0.00  0.00    -0.312 N 
ATOM     10  C   UNL     1      -4.100   0.006  25.276  0.00  0.00    +0.084 C 
ATOM     11  C   UNL     1      -3.719   1.494  25.020  0.00  0.00    +0.161 C 
ATOM     12  C   UNL     1      -5.472  -0.098  24.583  0.00  0.00    +0.036 C 
ATOM     13  C   UNL     1      -6.053   1.291  24.746  0.00  0.00    +0.087 C 
ATOM     14  C   UNL     1      -1.841  -1.008  25.595  0.00  0.00    +0.074 C 
ATOM     15  C   UNL     1      -2.530   1.705  24.085  0.00  0.00    +0.232 C 
ATOM     16  C   UNL     1      -1.239   0.400  25.774  0.00  0.00    +0.123 C 
ATOM     19  C   UNL     1      -3.751  -2.381  24.986  0.00  0.00    +0.105 C 
ATOM     32  H   UNL     1      -0.505   1.312  23.998  0.00  0.00    +0.149 HD
ENDROOT
BRANCH   5  17
ATOM     17  C   UNL     1      -5.097   3.511  24.831  0.00  0.00    +0.159 C 
BRANCH  17  21
ATOM      7  N   UNL     1      -3.016   4.836  24.405  0.00  0.00    -0.347 N 
ATOM      8  N   UNL     1      -3.303   4.128  26.490  0.00  0.00    -0.239 NA
ATOM     21  C   UNL     1      -3.811   4.146  25.278  0.00  0.00    +0.121 A 
ATOM     23  C   UNL     1      -1.933   5.286  25.106  0.00  0.00    +0.104 A 
ATOM     24  C   UNL     1      -2.133   4.838  26.390  0.00  0.00    +0.130 A 
ATOM     33  H   UNL     1      -3.197   4.986  23.421  0.00  0.00    +0.167 HD
ENDBRANCH  17  21
ENDBRANCH   5  17
BRANCH  14  18
ATOM     18  C   UNL     1      -0.792  -1.874  24.867  0.00  0.00    +0.029 C 
BRANCH  18  20
ATOM     20  C   UNL     1      -0.640  -1.430  23.423  0.00  0.00    +0.097 C 
BRANCH  20  22
ATOM      3  O   UNL     1       0.951   0.266  24.099  0.00  0.00    -0.276 OA
ATOM      9  N   UNL     1       1.152  -0.697  21.996  0.00  0.00    -0.311 N 
ATOM     22  C   UNL     1       0.563  -0.523  23.240  0.00  0.00    +0.213 C 
ATOM     34  H   UNL     1       0.772  -1.388  21.355  0.00  0.00    +0.149 HD
BRANCH   9  25
ATOM     25  C   UNL     1       2.314   0.052  21.580  0.00  0.00    +0.139 C 
BRANCH  25  26
ATOM      1  F   UNL     1       6.660  -0.677  25.085  0.00  0.00    -0.205 F 
ATOM     26  C   UNL     1       3.472  -0.142  22.514  0.00  0.00    -0.030 A 
ATOM     27  C   UNL     1       4.355   0.910  22.758  0.00  0.00    +0.008 A 
ATOM     28  C   UNL     1       3.666  -1.375  23.138  0.00  0.00    +0.008 A 
ATOM     29  C   UNL     1       5.432   0.730  23.627  0.00  0.00    +0.038 A 
ATOM     30  C   UNL     1       4.744  -1.555  24.007  0.00  0.00    +0.038 A 
ATOM     31  C   UNL     1       5.626  -0.503  24.250  0.00  0.00    +0.123 A 
ENDBRANCH  25  26
ENDBRANCH   9  25
ENDBRANCH  20  22
ENDBRANCH  18  20
ENDBRANCH  14  18
TORSDOF 7
ENDMDL
MODEL 9
REMARK VINA RESULT:       1.7      1.750      2.559
REMARK  Name = 45360914
REMARK  8 active torsions:
REMARK  status: ('A' for Active; 'I' for Inactive)
REMARK    1  A    between atoms: N_4  and  C_19
REMARK    2  A    between atoms: N_5  and  C_17
REMARK    3  A    between atoms: N_9  and  C_25
REMARK    4  A    between atoms: C_14  and  C_18
REMARK    5  A    between atoms: C_17  and  C_21
REMARK    6  A    between atoms: C_18  and  C_20
REMARK    7  A    between atoms: C_20  and  C_22
REMARK    8  A    between atoms: C_25  and  C_26
REMARK                            x       y       z     vdW  Elec       q    Type
REMARK                         _______ _______ _______ _____ _____    ______ ____
ROOT
ATOM      2  O   UNL     1      -1.081   2.465  21.528  0.00  0.00    -0.274 OA
ATOM      4  N   UNL     1      -2.422   3.104  25.103  0.00  0.00    -0.296 NA
ATOM      5  N   UNL     1       0.422   1.432  23.520  0.00  0.00    -0.283 NA
ATOM      6  N   UNL     1      -3.087   1.996  22.524  0.00  0.00    -0.312 N 
ATOM     10  C   UNL     1      -1.330   2.106  25.059  0.00  0.00    +0.084 C 
ATOM     11  C   UNL     1      -1.040   1.385  23.710  0.00  0.00    +0.161 C 
ATOM     12  C   UNL     1       0.054   2.677  25.421  0.00  0.00    +0.036 C 
ATOM     13  C   UNL     1       1.016   1.668  24.831  0.00  0.00    +0.087 C 
ATOM     14  C   UNL     1      -3.778   2.547  24.838  0.00  0.00    +0.074 C 
ATOM     15  C   UNL     1      -1.705   2.012  22.486  0.00  0.00    +0.232 C 
ATOM     16  C   UNL     1      -3.849   1.543  23.671  0.00  0.00    +0.123 C 
ATOM     19  C   UNL     1      -2.412   3.834  26.382  0.00  0.00    +0.105 C 
ATOM     32  H   UNL     1      -3.591   2.377  21.731  0.00  0.00    +0.149 HD
ENDROOT
BRANCH   5  17
ATOM     17  C   UNL     1       0.960   0.238  22.882  0.00  0.00    +0.159 C 
BRANCH  17  21
ATOM      7  N   UNL     1       3.096  -0.944  23.431  0.00  0.00    -0.347 N 
ATOM      8  N   UNL     1       3.307   1.126  22.657  0.00  0.00    -0.239 NA
ATOM     21  C   UNL     1       2.457   0.176  22.976  0.00  0.00    +0.121 A 
ATOM     23  C   UNL     1       4.439  -0.691  23.399  0.00  0.00    +0.104 A 
ATOM     24  C   UNL     1       4.544   0.592  22.917  0.00  0.00    +0.130 A 
ATOM     33  H   UNL     1       2.657  -1.803  23.735  0.00  0.00    +0.167 HD
ENDBRANCH  17  21
ENDBRANCH   5  17
BRANCH  14  18
ATOM     18  C   UNL     1      -4.778   3.683  24.536  0.00  0.00    +0.029 C 
BRANCH  18  20
ATOM     20  C   UNL     1      -6.052   3.503  25.340  0.00  0.00    +0.097 C 
BRANCH  20  22
ATOM      3  O   UNL     1      -6.466   2.236  27.361  0.00  0.00    -0.276 OA
ATOM      9  N   UNL     1      -5.314   1.231  25.614  0.00  0.00    -0.311 N 
ATOM     22  C   UNL     1      -5.984   2.276  26.232  0.00  0.00    +0.213 C 
ATOM     34  H   UNL     1      -4.963   1.350  24.667  0.00  0.00    +0.149 HD
BRANCH   9  25
ATOM     25  C   UNL     1      -5.115  -0.046  26.258  0.00  0.00    +0.139 C 
BRANCH  25  26
ATOM      1  F   UNL     1      -1.211  -3.145  23.640  0.00  0.00    -0.205 F 
ATOM     26  C   UNL     1      -4.075  -0.872  25.560  0.00  0.00    -0.030 A 
ATOM     27  C   UNL     1      -4.417  -1.615  24.430  0.00  0.00    +0.008 A 
ATOM     28  C   UNL     1      -2.766  -0.897  26.041  0.00  0.00    +0.008 A 
ATOM     29  C   UNL     1      -3.450  -2.383  23.781  0.00  0.00    +0.038 A 
ATOM     30  C   UNL     1      -1.798  -1.665  25.392  0.00  0.00    +0.038 A 
ATOM     31  C   UNL     1      -2.141  -2.408  24.262  0.00  0.00    +0.123 A 
ENDBRANCH  25  26
ENDBRANCH   9  25
ENDBRANCH  20  22
ENDBRANCH  18  20
ENDBRANCH  14  18
TORSDOF 7
ENDMDL
