MODEL 1
REMARK VINA RESULT:      -2.9      0.000      0.000
REMARK  Name = 38026677
REMARK  11 active torsions:
REMARK  status: ('A' for Active; 'I' for Inactive)
REMARK    1  A    between atoms: O_5  and  C_12
REMARK    2  A    between atoms: O_6  and  C_15
REMARK    3  A    between atoms: N_8  and  C_10
REMARK    4  A    between atoms: N_8  and  C_16
REMARK    5  A    between atoms: N_8  and  C_17
REMARK    6  A    between atoms: N_9  and  C_14
REMARK    7  A    between atoms: C_11  and  C_14
REMARK    8  A    between atoms: C_13  and  C_15
REMARK    9  A    between atoms: C_16  and  C_18
REMARK   10  A    between atoms: C_19  and  C_22
REMARK   11  A    between atoms: C_30  and  C_31
REMARK                            x       y       z     vdW  Elec       q    Type
REMARK                         _______ _______ _______ _____ _____    ______ ____
ROOT
ATOM      4  O   UNL     1      -1.297   3.301  25.495  0.00  0.00    -0.365 OA
ATOM     10  C   UNL     1      -3.479   2.350  25.519  0.00  0.00    +0.118 C 
ATOM     11  C   UNL     1      -1.988   2.044  25.325  0.00  0.00    +0.155 C 
ATOM     12  C   UNL     1      -3.579   3.820  25.139  0.00  0.00    +0.165 C 
ATOM     13  C   UNL     1      -2.266   4.346  25.706  0.00  0.00    +0.174 C 
ENDROOT
BRANCH  12   5
ATOM      5  O   UNL     1      -3.615   3.992  23.728  0.00  0.00    -0.388 OA
ATOM     32  H   UNL     1      -4.102   3.239  23.352  0.00  0.00    +0.210 HD
ENDBRANCH  12   5
BRANCH  10   8
ATOM      8  N   UNL     1      -4.410   1.469  24.835  0.00  0.00    -0.293 NA
ATOM     17  C   UNL     1      -5.680   2.152  24.574  0.00  0.00    +0.105 C 
BRANCH   8  16
ATOM     16  C   UNL     1      -4.646   0.252  25.617  0.00  0.00    +0.119 C 
BRANCH  16  18
ATOM     18  C   UNL     1      -3.836  -0.910  25.106  0.00  0.00    -0.033 A 
ATOM     20  C   UNL     1      -2.575  -1.171  25.642  0.00  0.00    +0.005 A 
ATOM     21  C   UNL     1      -4.347  -1.725  24.095  0.00  0.00    +0.005 A 
ATOM     23  C   UNL     1      -1.825  -2.248  25.169  0.00  0.00    +0.000 A 
ATOM     24  C   UNL     1      -3.597  -2.801  23.623  0.00  0.00    +0.000 A 
ATOM     25  C   UNL     1      -2.335  -3.063  24.159  0.00  0.00    +0.000 A 
ENDBRANCH  16  18
ENDBRANCH   8  16
ENDBRANCH  10   8
BRANCH  11  14
ATOM     14  C   UNL     1      -1.576   1.481  23.969  0.00  0.00    +0.137 C 
BRANCH  14   9
ATOM      7  O   UNL     1      -0.222  -0.514  22.411  0.00  0.00    -0.270 OA
ATOM      9  N   UNL     1      -0.164   1.252  23.914  0.00  0.00    -0.309 N 
ATOM     19  C   UNL     1       0.411   0.257  23.126  0.00  0.00    +0.244 C 
ATOM     33  H   UNL     1       0.412   1.809  24.536  0.00  0.00    +0.149 HD
BRANCH  19  22
ATOM     22  C   UNL     1       1.889   0.132  23.200  0.00  0.00    +0.037 A 
ATOM     26  C   UNL     1       2.469  -1.079  23.582  0.00  0.00    +0.013 A 
ATOM     27  C   UNL     1       2.698   1.224  22.887  0.00  0.00    +0.013 A 
ATOM     28  C   UNL     1       3.857  -1.196  23.652  0.00  0.00    +0.013 A 
ATOM     29  C   UNL     1       4.086   1.107  22.956  0.00  0.00    +0.013 A 
ATOM     30  C   UNL     1       4.665  -0.103  23.338  0.00  0.00    +0.055 A 
BRANCH  30  31
ATOM      1  F   UNL     1       6.719  -0.689  22.260  0.00  0.00    -0.166 F 
ATOM      2  F   UNL     1       6.555  -1.091  24.391  0.00  0.00    -0.166 F 
ATOM      3  F   UNL     1       6.786   0.950  23.678  0.00  0.00    -0.166 F 
ATOM     31  C   UNL     1       6.150  -0.229  23.413  0.00  0.00    +0.417 C 
ENDBRANCH  30  31
ENDBRANCH  19  22
ENDBRANCH  14   9
ENDBRANCH  11  14
BRANCH  13  15
ATOM     15  C   UNL     1      -1.756   5.634  25.085  0.00  0.00    +0.190 C 
BRANCH  15   6
ATOM      6  O   UNL     1      -0.417   5.440  24.659  0.00  0.00    -0.392 OA
ATOM     34  H   UNL     1      -0.083   6.303  24.360  0.00  0.00    +0.210 HD
ENDBRANCH  15   6
ENDBRANCH  13  15
TORSDOF 10
ENDMDL
MODEL 2
REMARK VINA RESULT:      -1.7      4.703      7.489
REMARK  Name = 38026677
REMARK  11 active torsions:
REMARK  status: ('A' for Active; 'I' for Inactive)
REMARK    1  A    between atoms: O_5  and  C_12
REMARK    2  A    between atoms: O_6  and  C_15
REMARK    3  A    between atoms: N_8  and  C_10
REMARK    4  A    between atoms: N_8  and  C_16
REMARK    5  A    between atoms: N_8  and  C_17
REMARK    6  A    between atoms: N_9  and  C_14
REMARK    7  A    between atoms: C_11  and  C_14
REMARK    8  A    between atoms: C_13  and  C_15
REMARK    9  A    between atoms: C_16  and  C_18
REMARK   10  A    between atoms: C_19  and  C_22
REMARK   11  A    between atoms: C_30  and  C_31
REMARK                            x       y       z     vdW  Elec       q    Type
REMARK                         _______ _______ _______ _____ _____    ______ ____
ROOT
ATOM      4  O   UNL     1       3.329   1.620  23.147  0.00  0.00    -0.365 OA
ATOM     10  C   UNL     1       1.573   0.181  22.430  0.00  0.00    +0.118 C 
ATOM     11  C   UNL     1       1.896   1.457  23.219  0.00  0.00    +0.155 C 
ATOM     12  C   UNL     1       2.865  -0.617  22.528  0.00  0.00    +0.165 C 
ATOM     13  C   UNL     1       3.894   0.503  22.435  0.00  0.00    +0.174 C 
ENDROOT
BRANCH  12   5
ATOM      5  O   UNL     1       2.971  -1.286  23.777  0.00  0.00    -0.388 OA
ATOM     32  H   UNL     1       2.802  -0.631  24.477  0.00  0.00    +0.210 HD
ENDBRANCH  12   5
BRANCH  10   8
ATOM      8  N   UNL     1       0.372  -0.533  22.826  0.00  0.00    -0.293 NA
ATOM     17  C   UNL     1      -0.828   0.239  22.491  0.00  0.00    +0.105 C 
BRANCH   8  16
ATOM     16  C   UNL     1       0.393  -0.832  24.261  0.00  0.00    +0.119 C 
BRANCH  16  18
ATOM     18  C   UNL     1      -0.950  -1.302  24.755  0.00  0.00    -0.033 A 
ATOM     20  C   UNL     1      -1.550  -0.672  25.846  0.00  0.00    +0.005 A 
ATOM     21  C   UNL     1      -1.593  -2.365  24.123  0.00  0.00    +0.005 A 
ATOM     23  C   UNL     1      -2.794  -1.106  26.304  0.00  0.00    +0.000 A 
ATOM     24  C   UNL     1      -2.837  -2.799  24.581  0.00  0.00    +0.000 A 
ATOM     25  C   UNL     1      -3.438  -2.170  25.672  0.00  0.00    +0.000 A 
ENDBRANCH  16  18
ENDBRANCH   8  16
ENDBRANCH  10   8
BRANCH  11  14
ATOM     14  C   UNL     1       1.514   1.463  24.696  0.00  0.00    +0.137 C 
BRANCH  14   9
ATOM      7  O   UNL     1       0.031   3.902  24.386  0.00  0.00    -0.270 OA
ATOM      9  N   UNL     1       0.102   1.632  24.862  0.00  0.00    -0.309 N 
ATOM     19  C   UNL     1      -0.538   2.857  24.690  0.00  0.00    +0.244 C 
ATOM     33  H   UNL     1      -0.419   0.823  25.182  0.00  0.00    +0.149 HD
BRANCH  19  22
ATOM     22  C   UNL     1      -2.005   2.872  24.924  0.00  0.00    +0.037 A 
ATOM     26  C   UNL     1      -2.555   3.754  25.855  0.00  0.00    +0.013 A 
ATOM     27  C   UNL     1      -2.833   2.003  24.213  0.00  0.00    +0.013 A 
ATOM     28  C   UNL     1      -3.931   3.767  26.075  0.00  0.00    +0.013 A 
ATOM     29  C   UNL     1      -4.210   2.017  24.433  0.00  0.00    +0.013 A 
ATOM     30  C   UNL     1      -4.760   2.899  25.364  0.00  0.00    +0.055 A 
BRANCH  30  31
ATOM      1  F   UNL     1      -6.946   2.252  24.641  0.00  0.00    -0.166 F 
ATOM      2  F   UNL     1      -6.747   4.177  25.632  0.00  0.00    -0.166 F 
ATOM      3  F   UNL     1      -6.603   2.337  26.780  0.00  0.00    -0.166 F 
ATOM     31  C   UNL     1      -6.232   2.913  25.599  0.00  0.00    +0.417 C 
ENDBRANCH  30  31
ENDBRANCH  19  22
ENDBRANCH  14   9
ENDBRANCH  11  14
BRANCH  13  15
ATOM     15  C   UNL     1       5.262   0.182  23.011  0.00  0.00    +0.190 C 
BRANCH  15   6
ATOM      6  O   UNL     1       5.245   0.443  24.405  0.00  0.00    -0.392 OA
ATOM     34  H   UNL     1       6.142   0.273  24.740  0.00  0.00    +0.210 HD
ENDBRANCH  15   6
ENDBRANCH  13  15
TORSDOF 10
ENDMDL
MODEL 3
REMARK VINA RESULT:      -0.3      1.719      4.378
REMARK  Name = 38026677
REMARK  11 active torsions:
REMARK  status: ('A' for Active; 'I' for Inactive)
REMARK    1  A    between atoms: O_5  and  C_12
REMARK    2  A    between atoms: O_6  and  C_15
REMARK    3  A    between atoms: N_8  and  C_10
REMARK    4  A    between atoms: N_8  and  C_16
REMARK    5  A    between atoms: N_8  and  C_17
REMARK    6  A    between atoms: N_9  and  C_14
REMARK    7  A    between atoms: C_11  and  C_14
REMARK    8  A    between atoms: C_13  and  C_15
REMARK    9  A    between atoms: C_16  and  C_18
REMARK   10  A    between atoms: C_19  and  C_22
REMARK   11  A    between atoms: C_30  and  C_31
REMARK                            x       y       z     vdW  Elec       q    Type
REMARK                         _______ _______ _______ _____ _____    ______ ____
ROOT
ATOM      4  O   UNL     1      -3.545  -1.809  23.859  0.00  0.00    -0.365 OA
ATOM     10  C   UNL     1      -4.534  -0.316  25.428  0.00  0.00    +0.118 C 
ATOM     11  C   UNL     1      -4.343  -0.607  23.934  0.00  0.00    +0.155 C 
ATOM     12  C   UNL     1      -3.318  -0.974  26.062  0.00  0.00    +0.165 C 
ATOM     13  C   UNL     1      -3.187  -2.218  25.193  0.00  0.00    +0.174 C 
ENDROOT
BRANCH  12   5
ATOM      5  O   UNL     1      -2.161  -0.158  25.940  0.00  0.00    -0.388 OA
ATOM     32  H   UNL     1      -2.387   0.588  25.359  0.00  0.00    +0.210 HD
ENDBRANCH  12   5
BRANCH  10   8
ATOM      8  N   UNL     1      -4.746   1.075  25.789  0.00  0.00    -0.293 NA
ATOM     17  C   UNL     1      -6.074   1.265  26.378  0.00  0.00    +0.105 C 
BRANCH   8  16
ATOM     16  C   UNL     1      -4.584   1.947  24.623  0.00  0.00    +0.119 C 
BRANCH  16  18
ATOM     18  C   UNL     1      -3.558   3.023  24.865  0.00  0.00    -0.033 A 
ATOM     20  C   UNL     1      -2.476   2.777  25.710  0.00  0.00    +0.005 A 
ATOM     21  C   UNL     1      -3.691   4.265  24.244  0.00  0.00    +0.005 A 
ATOM     23  C   UNL     1      -1.525   3.773  25.934  0.00  0.00    +0.000 A 
ATOM     24  C   UNL     1      -2.740   5.261  24.468  0.00  0.00    +0.000 A 
ATOM     25  C   UNL     1      -1.658   5.016  25.314  0.00  0.00    +0.000 A 
ENDBRANCH  16  18
ENDBRANCH   8  16
ENDBRANCH  10   8
BRANCH  11  14
ATOM     14  C   UNL     1      -3.628   0.462  23.114  0.00  0.00    +0.137 C 
BRANCH  14   9
ATOM      7  O   UNL     1      -1.644   2.411  22.400  0.00  0.00    -0.270 OA
ATOM      9  N   UNL     1      -2.207   0.302  23.187  0.00  0.00    -0.309 N 
ATOM     19  C   UNL     1      -1.313   1.305  22.819  0.00  0.00    +0.244 C 
ATOM     33  H   UNL     1      -1.866  -0.613  23.459  0.00  0.00    +0.149 HD
BRANCH  19  22
ATOM     22  C   UNL     1       0.131   0.974  22.929  0.00  0.00    +0.037 A 
ATOM     26  C   UNL     1       0.657  -0.101  22.211  0.00  0.00    +0.013 A 
ATOM     27  C   UNL     1       0.961   1.737  23.751  0.00  0.00    +0.013 A 
ATOM     28  C   UNL     1       2.012  -0.413  22.316  0.00  0.00    +0.013 A 
ATOM     29  C   UNL     1       2.316   1.425  23.854  0.00  0.00    +0.013 A 
ATOM     30  C   UNL     1       2.842   0.351  23.137  0.00  0.00    +0.055 A 
BRANCH  30  31
ATOM      1  F   UNL     1       4.983   0.186  22.083  0.00  0.00    -0.166 F 
ATOM      2  F   UNL     1       4.505  -1.280  23.616  0.00  0.00    -0.166 F 
ATOM      3  F   UNL     1       4.958   0.773  24.170  0.00  0.00    -0.166 F 
ATOM     31  C   UNL     1       4.291   0.017  23.248  0.00  0.00    +0.417 C 
ENDBRANCH  30  31
ENDBRANCH  19  22
ENDBRANCH  14   9
ENDBRANCH  11  14
BRANCH  13  15
ATOM     15  C   UNL     1      -1.809  -2.854  25.167  0.00  0.00    +0.190 C 
BRANCH  15   6
ATOM      6  O   UNL     1      -0.947  -2.053  24.375  0.00  0.00    -0.392 OA
ATOM     34  H   UNL     1      -0.885  -1.184  24.808  0.00  0.00    +0.210 HD
ENDBRANCH  15   6
ENDBRANCH  13  15
TORSDOF 10
ENDMDL
MODEL 4
REMARK VINA RESULT:      -0.1      2.103      4.498
REMARK  Name = 38026677
REMARK  11 active torsions:
REMARK  status: ('A' for Active; 'I' for Inactive)
REMARK    1  A    between atoms: O_5  and  C_12
REMARK    2  A    between atoms: O_6  and  C_15
REMARK    3  A    between atoms: N_8  and  C_10
REMARK    4  A    between atoms: N_8  and  C_16
REMARK    5  A    between atoms: N_8  and  C_17
REMARK    6  A    between atoms: N_9  and  C_14
REMARK    7  A    between atoms: C_11  and  C_14
REMARK    8  A    between atoms: C_13  and  C_15
REMARK    9  A    between atoms: C_16  and  C_18
REMARK   10  A    between atoms: C_19  and  C_22
REMARK   11  A    between atoms: C_30  and  C_31
REMARK                            x       y       z     vdW  Elec       q    Type
REMARK                         _______ _______ _______ _____ _____    ______ ____
ROOT
ATOM      4  O   UNL     1      -2.977  -0.501  24.228  0.00  0.00    -0.365 OA
ATOM     10  C   UNL     1      -1.646   1.175  25.271  0.00  0.00    +0.118 C 
ATOM     11  C   UNL     1      -2.403   0.803  23.989  0.00  0.00    +0.155 C 
ATOM     12  C   UNL     1      -1.304  -0.180  25.872  0.00  0.00    +0.165 C 
ATOM     13  C   UNL     1      -2.563  -0.966  25.527  0.00  0.00    +0.174 C 
ENDROOT
BRANCH  12   5
ATOM      5  O   UNL     1      -0.169  -0.758  25.240  0.00  0.00    -0.388 OA
ATOM     32  H   UNL     1       0.505  -0.907  25.924  0.00  0.00    +0.210 HD
ENDBRANCH  12   5
BRANCH  10   8
ATOM      8  N   UNL     1      -0.524   2.085  25.114  0.00  0.00    -0.293 NA
ATOM     17  C   UNL     1       0.189   2.256  26.382  0.00  0.00    +0.105 C 
BRANCH   8  16
ATOM     16  C   UNL     1      -0.974   3.386  24.611  0.00  0.00    +0.119 C 
BRANCH  16  18
ATOM     18  C   UNL     1      -2.421   3.645  24.940  0.00  0.00    -0.033 A 
ATOM     20  C   UNL     1      -3.391   3.552  23.942  0.00  0.00    +0.005 A 
ATOM     21  C   UNL     1      -2.791   3.977  26.244  0.00  0.00    +0.005 A 
ATOM     23  C   UNL     1      -4.731   3.791  24.247  0.00  0.00    +0.000 A 
ATOM     24  C   UNL     1      -4.130   4.216  26.548  0.00  0.00    +0.000 A 
ATOM     25  C   UNL     1      -5.101   4.124  25.550  0.00  0.00    +0.000 A 
ENDBRANCH  16  18
ENDBRANCH   8  16
ENDBRANCH  10   8
BRANCH  11  14
ATOM     14  C   UNL     1      -1.577   0.706  22.711  0.00  0.00    +0.137 C 
BRANCH  14   9
ATOM      7  O   UNL     1       0.434  -0.567  21.105  0.00  0.00    -0.270 OA
ATOM      9  N   UNL     1      -0.179   0.614  23.007  0.00  0.00    -0.309 N 
ATOM     19  C   UNL     1       0.731  -0.025  22.167  0.00  0.00    +0.244 C 
ATOM     33  H   UNL     1       0.122   0.979  23.904  0.00  0.00    +0.149 HD
BRANCH  19  22
ATOM     22  C   UNL     1       2.142  -0.058  22.629  0.00  0.00    +0.037 A 
ATOM     26  C   UNL     1       2.975   1.040  22.409  0.00  0.00    +0.013 A 
ATOM     27  C   UNL     1       2.635  -1.187  23.283  0.00  0.00    +0.013 A 
ATOM     28  C   UNL     1       4.300   1.008  22.841  0.00  0.00    +0.013 A 
ATOM     29  C   UNL     1       3.960  -1.218  23.717  0.00  0.00    +0.013 A 
ATOM     30  C   UNL     1       4.793  -0.121  23.496  0.00  0.00    +0.055 A 
BRANCH  30  31
ATOM      1  F   UNL     1       6.461  -1.128  24.883  0.00  0.00    -0.166 F 
ATOM      2  F   UNL     1       6.598   1.015  24.547  0.00  0.00    -0.166 F 
ATOM      3  F   UNL     1       7.109  -0.375  22.955  0.00  0.00    -0.166 F 
ATOM     31  C   UNL     1       6.210  -0.154  23.959  0.00  0.00    +0.417 C 
ENDBRANCH  30  31
ENDBRANCH  19  22
ENDBRANCH  14   9
ENDBRANCH  11  14
BRANCH  13  15
ATOM     15  C   UNL     1      -2.401  -2.475  25.490  0.00  0.00    +0.190 C 
BRANCH  15   6
ATOM      6  O   UNL     1      -1.830  -2.845  24.246  0.00  0.00    -0.392 OA
ATOM     34  H   UNL     1      -1.735  -3.813  24.250  0.00  0.00    +0.210 HD
ENDBRANCH  15   6
ENDBRANCH  13  15
TORSDOF 10
ENDMDL
MODEL 5
REMARK VINA RESULT:       0.1     14.659     17.717
REMARK  Name = 38026677
REMARK  11 active torsions:
REMARK  status: ('A' for Active; 'I' for Inactive)
REMARK    1  A    between atoms: O_5  and  C_12
REMARK    2  A    between atoms: O_6  and  C_15
REMARK    3  A    between atoms: N_8  and  C_10
REMARK    4  A    between atoms: N_8  and  C_16
REMARK    5  A    between atoms: N_8  and  C_17
REMARK    6  A    between atoms: N_9  and  C_14
REMARK    7  A    between atoms: C_11  and  C_14
REMARK    8  A    between atoms: C_13  and  C_15
REMARK    9  A    between atoms: C_16  and  C_18
REMARK   10  A    between atoms: C_19  and  C_22
REMARK   11  A    between atoms: C_30  and  C_31
REMARK                            x       y       z     vdW  Elec       q    Type
REMARK                         _______ _______ _______ _____ _____    ______ ____
ROOT
ATOM      4  O   UNL     1      -3.562  -8.785  11.549  0.00  0.00    -0.365 OA
ATOM     10  C   UNL     1      -5.052  -9.117   9.722  0.00  0.00    +0.118 C 
ATOM     11  C   UNL     1      -4.903  -9.230  11.244  0.00  0.00    +0.155 C 
ATOM     12  C   UNL     1      -3.618  -9.244   9.227  0.00  0.00    +0.165 C 
ATOM     13  C   UNL     1      -2.877  -8.482  10.319  0.00  0.00    +0.174 C 
ENDROOT
BRANCH  12   5
ATOM      5  O   UNL     1      -3.197 -10.600   9.195  0.00  0.00    -0.388 OA
ATOM     32  H   UNL     1      -3.904 -11.138   9.591  0.00  0.00    +0.210 HD
ENDBRANCH  12   5
BRANCH  10   8
ATOM      8  N   UNL     1      -6.004 -10.021   9.100  0.00  0.00    -0.293 NA
ATOM     17  C   UNL     1      -6.841  -9.310   8.129  0.00  0.00    +0.105 C 
BRANCH   8  16
ATOM     16  C   UNL     1      -6.846 -10.667  10.111  0.00  0.00    +0.119 C 
BRANCH  16  18
ATOM     18  C   UNL     1      -8.195 -10.006  10.223  0.00  0.00    -0.033 A 
ATOM     20  C   UNL     1      -8.393  -8.731   9.693  0.00  0.00    +0.005 A 
ATOM     21  C   UNL     1      -9.245 -10.669  10.858  0.00  0.00    +0.005 A 
ATOM     23  C   UNL     1      -9.642  -8.119   9.796  0.00  0.00    +0.000 A 
ATOM     24  C   UNL     1     -10.494 -10.057  10.961  0.00  0.00    +0.000 A 
ATOM     25  C   UNL     1     -10.693  -8.782  10.430  0.00  0.00    +0.000 A 
ENDBRANCH  16  18
ENDBRANCH   8  16
ENDBRANCH  10   8
BRANCH  11  14
ATOM     14  C   UNL     1      -5.065 -10.622  11.846  0.00  0.00    +0.137 C 
BRANCH  14   9
ATOM      7  O   UNL     1      -7.471 -10.612  13.413  0.00  0.00    -0.270 OA
ATOM      9  N   UNL     1      -5.155 -10.559  13.273  0.00  0.00    -0.309 N 
ATOM     19  C   UNL     1      -6.370 -10.559  13.955  0.00  0.00    +0.244 C 
ATOM     33  H   UNL     1      -4.284 -10.443  13.779  0.00  0.00    +0.149 HD
BRANCH  19  22
ATOM     22  C   UNL     1      -6.295 -10.463  15.435  0.00  0.00    +0.037 A 
ATOM     26  C   UNL     1      -5.106 -10.775  16.095  0.00  0.00    +0.013 A 
ATOM     27  C   UNL     1      -7.413 -10.061  16.166  0.00  0.00    +0.013 A 
ATOM     28  C   UNL     1      -5.036 -10.687  17.485  0.00  0.00    +0.013 A 
ATOM     29  C   UNL     1      -7.343  -9.972  17.555  0.00  0.00    +0.013 A 
ATOM     30  C   UNL     1      -6.154 -10.284  18.215  0.00  0.00    +0.055 A 
BRANCH  30  31
ATOM      1  F   UNL     1      -6.056  -8.905  20.167  0.00  0.00    -0.166 F 
ATOM      2  F   UNL     1      -4.959 -10.781  20.210  0.00  0.00    -0.166 F 
ATOM      3  F   UNL     1      -7.129 -10.781  20.342  0.00  0.00    -0.166 F 
ATOM     31  C   UNL     1      -6.078 -10.188  19.702  0.00  0.00    +0.417 C 
ENDBRANCH  30  31
ENDBRANCH  19  22
ENDBRANCH  14   9
ENDBRANCH  11  14
BRANCH  13  15
ATOM     15  C   UNL     1      -1.405  -8.824  10.469  0.00  0.00    +0.190 C 
BRANCH  15   6
ATOM      6  O   UNL     1      -1.262  -9.797  11.490  0.00  0.00    -0.392 OA
ATOM     34  H   UNL     1      -0.620 -10.455  11.172  0.00  0.00    +0.210 HD
ENDBRANCH  15   6
ENDBRANCH  13  15
TORSDOF 10
ENDMDL
MODEL 6
REMARK VINA RESULT:       0.2      1.833      4.459
REMARK  Name = 38026677
REMARK  11 active torsions:
REMARK  status: ('A' for Active; 'I' for Inactive)
REMARK    1  A    between atoms: O_5  and  C_12
REMARK    2  A    between atoms: O_6  and  C_15
REMARK    3  A    between atoms: N_8  and  C_10
REMARK    4  A    between atoms: N_8  and  C_16
REMARK    5  A    between atoms: N_8  and  C_17
REMARK    6  A    between atoms: N_9  and  C_14
REMARK    7  A    between atoms: C_11  and  C_14
REMARK    8  A    between atoms: C_13  and  C_15
REMARK    9  A    between atoms: C_16  and  C_18
REMARK   10  A    between atoms: C_19  and  C_22
REMARK   11  A    between atoms: C_30  and  C_31
REMARK                            x       y       z     vdW  Elec       q    Type
REMARK                         _______ _______ _______ _____ _____    ______ ____
ROOT
ATOM      4  O   UNL     1      -2.369  -1.464  23.854  0.00  0.00    -0.365 OA
ATOM     10  C   UNL     1      -3.865   0.388  23.902  0.00  0.00    +0.118 C 
ATOM     11  C   UNL     1      -2.386  -0.021  23.914  0.00  0.00    +0.155 C 
ATOM     12  C   UNL     1      -4.561  -0.833  24.486  0.00  0.00    +0.165 C 
ATOM     13  C   UNL     1      -3.724  -1.951  23.877  0.00  0.00    +0.174 C 
ENDROOT
BRANCH  12   5
ATOM      5  O   UNL     1      -4.467  -0.857  25.904  0.00  0.00    -0.388 OA
ATOM     32  H   UNL     1      -4.421  -1.789  26.180  0.00  0.00    +0.210 HD
ENDBRANCH  12   5
BRANCH  10   8
ATOM      8  N   UNL     1      -4.188   1.651  24.542  0.00  0.00    -0.293 NA
ATOM     17  C   UNL     1      -5.585   1.669  24.984  0.00  0.00    +0.105 C 
BRANCH   8  16
ATOM     16  C   UNL     1      -3.934   2.774  23.636  0.00  0.00    +0.119 C 
BRANCH  16  18
ATOM     18  C   UNL     1      -2.775   3.618  24.100  0.00  0.00    -0.033 A 
ATOM     20  C   UNL     1      -1.482   3.326  23.665  0.00  0.00    +0.005 A 
ATOM     21  C   UNL     1      -2.995   4.690  24.964  0.00  0.00    +0.005 A 
ATOM     23  C   UNL     1      -0.409   4.107  24.094  0.00  0.00    +0.000 A 
ATOM     24  C   UNL     1      -1.923   5.472  25.392  0.00  0.00    +0.000 A 
ATOM     25  C   UNL     1      -0.629   5.180  24.958  0.00  0.00    +0.000 A 
ENDBRANCH  16  18
ENDBRANCH   8  16
ENDBRANCH  10   8
BRANCH  11  14
ATOM     14  C   UNL     1      -1.573   0.391  25.137  0.00  0.00    +0.137 C 
BRANCH  14   9
ATOM      7  O   UNL     1      -0.284   0.444  22.573  0.00  0.00    -0.270 OA
ATOM      9  N   UNL     1      -0.169   0.277  24.884  0.00  0.00    -0.309 N 
ATOM     19  C   UNL     1       0.374   0.314  23.602  0.00  0.00    +0.244 C 
ATOM     33  H   UNL     1       0.425   0.097  25.686  0.00  0.00    +0.149 HD
BRANCH  19  22
ATOM     22  C   UNL     1       1.848   0.157  23.506  0.00  0.00    +0.037 A 
ATOM     26  C   UNL     1       2.440  -1.070  23.804  0.00  0.00    +0.013 A 
ATOM     27  C   UNL     1       2.640   1.238  23.117  0.00  0.00    +0.013 A 
ATOM     28  C   UNL     1       3.824  -1.217  23.716  0.00  0.00    +0.013 A 
ATOM     29  C   UNL     1       4.024   1.090  23.027  0.00  0.00    +0.013 A 
ATOM     30  C   UNL     1       4.616  -0.137  23.326  0.00  0.00    +0.055 A 
BRANCH  30  31
ATOM      1  F   UNL     1       6.791   0.807  23.642  0.00  0.00    -0.166 F 
ATOM      2  F   UNL     1       6.517  -0.536  21.954  0.00  0.00    -0.166 F 
ATOM      3  F   UNL     1       6.587  -1.326  23.979  0.00  0.00    -0.166 F 
ATOM     31  C   UNL     1       6.096  -0.294  23.230  0.00  0.00    +0.417 C 
ENDBRANCH  30  31
ENDBRANCH  19  22
ENDBRANCH  14   9
ENDBRANCH  11  14
BRANCH  13  15
ATOM     15  C   UNL     1      -3.767  -3.276  24.618  0.00  0.00    +0.190 C 
BRANCH  15   6
ATOM      6  O   UNL     1      -3.005  -3.160  25.809  0.00  0.00    -0.392 OA
ATOM     34  H   UNL     1      -2.849  -2.212  25.960  0.00  0.00    +0.210 HD
ENDBRANCH  15   6
ENDBRANCH  13  15
TORSDOF 10
ENDMDL
MODEL 7
REMARK VINA RESULT:       0.6      2.055      4.647
REMARK  Name = 38026677
REMARK  11 active torsions:
REMARK  status: ('A' for Active; 'I' for Inactive)
REMARK    1  A    between atoms: O_5  and  C_12
REMARK    2  A    between atoms: O_6  and  C_15
REMARK    3  A    between atoms: N_8  and  C_10
REMARK    4  A    between atoms: N_8  and  C_16
REMARK    5  A    between atoms: N_8  and  C_17
REMARK    6  A    between atoms: N_9  and  C_14
REMARK    7  A    between atoms: C_11  and  C_14
REMARK    8  A    between atoms: C_13  and  C_15
REMARK    9  A    between atoms: C_16  and  C_18
REMARK   10  A    between atoms: C_19  and  C_22
REMARK   11  A    between atoms: C_30  and  C_31
REMARK                            x       y       z     vdW  Elec       q    Type
REMARK                         _______ _______ _______ _____ _____    ______ ____
ROOT
ATOM      4  O   UNL     1      -3.988   0.075  23.748  0.00  0.00    -0.365 OA
ATOM     10  C   UNL     1      -2.145   0.157  25.253  0.00  0.00    +0.118 C 
ATOM     11  C   UNL     1      -2.846   0.887  24.100  0.00  0.00    +0.155 C 
ATOM     12  C   UNL     1      -2.547  -1.295  25.033  0.00  0.00    +0.165 C 
ATOM     13  C   UNL     1      -3.983  -1.118  24.554  0.00  0.00    +0.174 C 
ENDROOT
BRANCH  12   5
ATOM      5  O   UNL     1      -1.758  -1.906  24.021  0.00  0.00    -0.388 OA
ATOM     32  H   UNL     1      -1.241  -2.616  24.439  0.00  0.00    +0.210 HD
ENDBRANCH  12   5
BRANCH  10   8
ATOM      8  N   UNL     1      -0.718   0.390  25.389  0.00  0.00    -0.293 NA
ATOM     17  C   UNL     1      -0.020  -0.843  25.762  0.00  0.00    +0.105 C 
BRANCH   8  16
ATOM     16  C   UNL     1      -0.453   1.437  26.380  0.00  0.00    +0.119 C 
BRANCH  16  18
ATOM     18  C   UNL     1      -0.900   2.792  25.898  0.00  0.00    -0.033 A 
ATOM     20  C   UNL     1      -2.123   3.313  26.320  0.00  0.00    +0.005 A 
ATOM     21  C   UNL     1      -0.091   3.526  25.031  0.00  0.00    +0.005 A 
ATOM     23  C   UNL     1      -2.537   4.568  25.875  0.00  0.00    +0.000 A 
ATOM     24  C   UNL     1      -0.505   4.781  24.585  0.00  0.00    +0.000 A 
ATOM     25  C   UNL     1      -1.729   5.302  25.006  0.00  0.00    +0.000 A 
ENDBRANCH  16  18
ENDBRANCH   8  16
ENDBRANCH  10   8
BRANCH  11  14
ATOM     14  C   UNL     1      -2.031   1.098  22.828  0.00  0.00    +0.137 C 
BRANCH  14   9
ATOM      7  O   UNL     1      -0.164  -0.547  21.397  0.00  0.00    -0.270 OA
ATOM      9  N   UNL     1      -0.629   0.972  23.088  0.00  0.00    -0.309 N 
ATOM     19  C   UNL     1       0.207   0.147  22.340  0.00  0.00    +0.244 C 
ATOM     33  H   UNL     1      -0.271   1.465  23.898  0.00  0.00    +0.149 HD
BRANCH  19  22
ATOM     22  C   UNL     1       1.634   0.108  22.752  0.00  0.00    +0.037 A 
ATOM     26  C   UNL     1       2.217  -1.101  23.132  0.00  0.00    +0.013 A 
ATOM     27  C   UNL     1       2.390   1.280  22.760  0.00  0.00    +0.013 A 
ATOM     28  C   UNL     1       3.556  -1.138  23.521  0.00  0.00    +0.013 A 
ATOM     29  C   UNL     1       3.729   1.243  23.148  0.00  0.00    +0.013 A 
ATOM     30  C   UNL     1       4.312   0.034  23.528  0.00  0.00    +0.055 A 
BRANCH  30  31
ATOM      1  F   UNL     1       6.015  -0.951  24.889  0.00  0.00    -0.166 F 
ATOM      2  F   UNL     1       6.169   1.178  24.476  0.00  0.00    -0.166 F 
ATOM      3  F   UNL     1       6.605  -0.272  22.916  0.00  0.00    -0.166 F 
ATOM     31  C   UNL     1       5.744  -0.005  23.942  0.00  0.00    +0.417 C 
ENDBRANCH  30  31
ENDBRANCH  19  22
ENDBRANCH  14   9
ENDBRANCH  11  14
BRANCH  13  15
ATOM     15  C   UNL     1      -4.547  -2.272  23.744  0.00  0.00    +0.190 C 
BRANCH  15   6
ATOM      6  O   UNL     1      -3.921  -3.474  24.159  0.00  0.00    -0.392 OA
ATOM     34  H   UNL     1      -2.968  -3.291  24.234  0.00  0.00    +0.210 HD
ENDBRANCH  15   6
ENDBRANCH  13  15
TORSDOF 10
ENDMDL
MODEL 8
REMARK VINA RESULT:       0.9      1.879      3.312
REMARK  Name = 38026677
REMARK  11 active torsions:
REMARK  status: ('A' for Active; 'I' for Inactive)
REMARK    1  A    between atoms: O_5  and  C_12
REMARK    2  A    between atoms: O_6  and  C_15
REMARK    3  A    between atoms: N_8  and  C_10
REMARK    4  A    between atoms: N_8  and  C_16
REMARK    5  A    between atoms: N_8  and  C_17
REMARK    6  A    between atoms: N_9  and  C_14
REMARK    7  A    between atoms: C_11  and  C_14
REMARK    8  A    between atoms: C_13  and  C_15
REMARK    9  A    between atoms: C_16  and  C_18
REMARK   10  A    between atoms: C_19  and  C_22
REMARK   11  A    between atoms: C_30  and  C_31
REMARK                            x       y       z     vdW  Elec       q    Type
REMARK                         _______ _______ _______ _____ _____    ______ ____
ROOT
ATOM      4  O   UNL     1      -0.932   0.997  26.178  0.00  0.00    -0.365 OA
ATOM     10  C   UNL     1      -2.291   1.970  24.482  0.00  0.00    +0.118 C 
ATOM     11  C   UNL     1      -1.937   0.659  25.197  0.00  0.00    +0.155 C 
ATOM     12  C   UNL     1      -1.028   2.802  24.649  0.00  0.00    +0.165 C 
ATOM     13  C   UNL     1      -0.608   2.396  26.056  0.00  0.00    +0.174 C 
ENDROOT
BRANCH  12   5
ATOM      5  O   UNL     1      -0.032   2.430  23.707  0.00  0.00    -0.388 OA
ATOM     32  H   UNL     1      -0.192   1.503  23.459  0.00  0.00    +0.210 HD
ENDBRANCH  12   5
BRANCH  10   8
ATOM      8  N   UNL     1      -2.777   1.847  23.119  0.00  0.00    -0.293 NA
ATOM     17  C   UNL     1      -1.807   2.397  22.168  0.00  0.00    +0.105 C 
BRANCH   8  16
ATOM     16  C   UNL     1      -4.070   2.520  22.964  0.00  0.00    +0.119 C 
BRANCH  16  18
ATOM     18  C   UNL     1      -4.862   2.516  24.245  0.00  0.00    -0.033 A 
ATOM     20  C   UNL     1      -5.519   1.355  24.654  0.00  0.00    +0.005 A 
ATOM     21  C   UNL     1      -4.939   3.672  25.021  0.00  0.00    +0.005 A 
ATOM     23  C   UNL     1      -6.252   1.350  25.841  0.00  0.00    +0.000 A 
ATOM     24  C   UNL     1      -5.672   3.667  26.208  0.00  0.00    +0.000 A 
ATOM     25  C   UNL     1      -6.329   2.506  26.618  0.00  0.00    +0.000 A 
ENDBRANCH  16  18
ENDBRANCH   8  16
ENDBRANCH  10   8
BRANCH  11  14
ATOM     14  C   UNL     1      -1.366  -0.459  24.332  0.00  0.00    +0.137 C 
BRANCH  14   9
ATOM      7  O   UNL     1       0.259  -0.260  21.973  0.00  0.00    -0.270 OA
ATOM      9  N   UNL     1       0.063  -0.393  24.281  0.00  0.00    -0.309 N 
ATOM     19  C   UNL     1       0.774  -0.297  23.087  0.00  0.00    +0.244 C 
ATOM     33  H   UNL     1       0.554  -0.490  25.163  0.00  0.00    +0.149 HD
BRANCH  19  22
ATOM     22  C   UNL     1       2.254  -0.264  23.203  0.00  0.00    +0.037 A 
ATOM     26  C   UNL     1       2.941  -1.371  23.702  0.00  0.00    +0.013 A 
ATOM     27  C   UNL     1       2.959   0.876  22.814  0.00  0.00    +0.013 A 
ATOM     28  C   UNL     1       4.330  -1.339  23.812  0.00  0.00    +0.013 A 
ATOM     29  C   UNL     1       4.348   0.907  22.923  0.00  0.00    +0.013 A 
ATOM     30  C   UNL     1       5.035  -0.200  23.422  0.00  0.00    +0.055 A 
BRANCH  30  31
ATOM      1  F   UNL     1       7.011  -0.978  24.521  0.00  0.00    -0.166 F 
ATOM      2  F   UNL     1       6.997   1.081  23.825  0.00  0.00    -0.166 F 
ATOM      3  F   UNL     1       7.169  -0.552  22.401  0.00  0.00    -0.166 F 
ATOM     31  C   UNL     1       6.521  -0.166  23.539  0.00  0.00    +0.417 C 
ENDBRANCH  30  31
ENDBRANCH  19  22
ENDBRANCH  14   9
ENDBRANCH  11  14
BRANCH  13  15
ATOM     15  C   UNL     1       0.860   2.600  26.384  0.00  0.00    +0.190 C 
BRANCH  15   6
ATOM      6  O   UNL     1       1.033   2.515  27.789  0.00  0.00    -0.392 OA
ATOM     34  H   UNL     1       1.990   2.474  27.958  0.00  0.00    +0.210 HD
ENDBRANCH  15   6
ENDBRANCH  13  15
TORSDOF 10
ENDMDL
