MODEL 1
REMARK VINA RESULT:      -4.8      0.000      0.000
REMARK  Name = 26745224
REMARK  6 active torsions:
REMARK  status: ('A' for Active; 'I' for Inactive)
REMARK    1  A    between atoms: O_3  and  C_25
REMARK    2  A    between atoms: N_5  and  C_9
REMARK    3  A    between atoms: C_15  and  C_17
REMARK    4  A    between atoms: C_21  and  C_22
REMARK    5  A    between atoms: C_22  and  C_24
REMARK    6  A    between atoms: C_24  and  C_25
REMARK                            x       y       z     vdW  Elec       q    Type
REMARK                         _______ _______ _______ _____ _____    ______ ____
ROOT
ATOM      2  O   UNL     1      -0.751   3.354  25.672  0.00  0.00    -0.276 OA
ATOM      6  N   UNL     1      -1.756   1.447  24.780  0.00  0.00    -0.284 N 
ATOM      7  N   UNL     1      -3.922  -1.490  23.927  0.00  0.00    -0.347 N 
ATOM      8  N   UNL     1      -2.377  -2.684  25.011  0.00  0.00    -0.240 NA
ATOM     15  C   UNL     1      -0.535   0.623  24.989  0.00  0.00    +0.168 C 
ATOM     16  C   UNL     1      -0.801  -0.783  25.566  0.00  0.00    +0.089 C 
ATOM     18  C   UNL     1      -2.918   0.845  24.068  0.00  0.00    +0.163 C 
ATOM     19  C   UNL     1      -2.022  -1.365  24.974  0.00  0.00    +0.066 A 
ATOM     20  C   UNL     1      -2.959  -0.608  24.315  0.00  0.00    +0.056 A 
ATOM     21  C   UNL     1      -1.692   2.816  25.084  0.00  0.00    +0.217 C 
ATOM     23  C   UNL     1      -3.527  -2.728  24.368  0.00  0.00    +0.197 A 
ATOM     27  H   UNL     1      -4.767  -1.278  23.411  0.00  0.00    +0.167 HD
ENDROOT
BRANCH  15  17
ATOM      1  O   UNL     1      -0.443   0.763  22.605  0.00  0.00    -0.274 OA
ATOM      5  N   UNL     1       1.500   0.244  23.780  0.00  0.00    -0.311 N 
ATOM     17  C   UNL     1       0.158   0.564  23.657  0.00  0.00    +0.234 C 
ATOM     26  H   UNL     1       1.902   0.166  24.709  0.00  0.00    +0.149 HD
BRANCH   5   9
ATOM      9  C   UNL     1       2.385   0.102  22.644  0.00  0.00    +0.073 C 
ATOM     10  C   UNL     1       3.435   1.218  22.622  0.00  0.00    +0.022 C 
ATOM     11  C   UNL     1       3.044  -1.280  22.630  0.00  0.00    +0.022 C 
ATOM     12  C   UNL     1       4.485   1.056  23.721  0.00  0.00    +0.002 C 
ATOM     13  C   UNL     1       4.095  -1.439  23.729  0.00  0.00    +0.002 C 
ATOM     14  C   UNL     1       5.135  -0.324  23.679  0.00  0.00    +0.000 C 
ENDBRANCH   5   9
ENDBRANCH  15  17
BRANCH  21  22
ATOM     22  C   UNL     1      -2.873   3.655  24.658  0.00  0.00    +0.107 C 
BRANCH  22  24
ATOM     24  C   UNL     1      -3.820   3.839  25.825  0.00  0.00    +0.129 C 
BRANCH  24  25
ATOM      4  O   UNL     1      -5.506   2.394  24.873  0.00  0.00    -0.251 OA
ATOM     25  C   UNL     1      -5.226   3.432  25.457  0.00  0.00    +0.305 C 
BRANCH  25   3
ATOM      3  O   UNL     1      -6.149   4.355  25.825  0.00  0.00    -0.481 OA
ATOM     28  H   UNL     1      -7.039   3.958  25.937  0.00  0.00    +0.295 HD
ENDBRANCH  25   3
ENDBRANCH  24  25
ENDBRANCH  22  24
ENDBRANCH  21  22
TORSDOF 6
ENDMDL
MODEL 2
REMARK VINA RESULT:      -4.7      2.261      6.403
REMARK  Name = 26745224
REMARK  6 active torsions:
REMARK  status: ('A' for Active; 'I' for Inactive)
REMARK    1  A    between atoms: O_3  and  C_25
REMARK    2  A    between atoms: N_5  and  C_9
REMARK    3  A    between atoms: C_15  and  C_17
REMARK    4  A    between atoms: C_21  and  C_22
REMARK    5  A    between atoms: C_22  and  C_24
REMARK    6  A    between atoms: C_24  and  C_25
REMARK                            x       y       z     vdW  Elec       q    Type
REMARK                         _______ _______ _______ _____ _____    ______ ____
ROOT
ATOM      2  O   UNL     1      -2.180  -0.702  26.577  0.00  0.00    -0.276 OA
ATOM      6  N   UNL     1      -0.773  -0.339  24.752  0.00  0.00    -0.284 N 
ATOM      7  N   UNL     1       1.944  -0.325  22.171  0.00  0.00    -0.347 N 
ATOM      8  N   UNL     1       2.638   1.527  23.207  0.00  0.00    -0.240 NA
ATOM     15  C   UNL     1      -0.637   1.110  25.059  0.00  0.00    +0.168 C 
ATOM     16  C   UNL     1       0.800   1.659  24.942  0.00  0.00    +0.089 C 
ATOM     18  C   UNL     1      -0.152  -0.873  23.508  0.00  0.00    +0.163 C 
ATOM     19  C   UNL     1       1.494   1.055  23.787  0.00  0.00    +0.066 A 
ATOM     20  C   UNL     1       1.049  -0.087  23.170  0.00  0.00    +0.056 A 
ATOM     21  C   UNL     1      -1.646  -1.105  25.542  0.00  0.00    +0.217 C 
ATOM     23  C   UNL     1       2.882   0.673  22.232  0.00  0.00    +0.197 A 
ATOM     27  H   UNL     1       1.923  -1.089  21.507  0.00  0.00    +0.167 HD
ENDROOT
BRANCH  15  17
ATOM      1  O   UNL     1      -1.196   2.420  23.140  0.00  0.00    -0.274 OA
ATOM      5  N   UNL     1      -2.901   1.725  24.565  0.00  0.00    -0.311 N 
ATOM     17  C   UNL     1      -1.587   1.820  24.137  0.00  0.00    +0.234 C 
ATOM     26  H   UNL     1      -3.112   1.146  25.371  0.00  0.00    +0.149 HD
BRANCH   5   9
ATOM      9  C   UNL     1      -4.007   2.342  23.865  0.00  0.00    +0.073 C 
ATOM     10  C   UNL     1      -5.349   1.810  24.378  0.00  0.00    +0.022 C 
ATOM     11  C   UNL     1      -3.940   3.869  23.967  0.00  0.00    +0.022 C 
ATOM     12  C   UNL     1      -5.684   2.321  25.780  0.00  0.00    +0.002 C 
ATOM     13  C   UNL     1      -4.277   4.377  25.369  0.00  0.00    +0.002 C 
ATOM     14  C   UNL     1      -5.622   3.844  25.853  0.00  0.00    +0.000 C 
ENDBRANCH   5   9
ENDBRANCH  15  17
BRANCH  21  22
ATOM     22  C   UNL     1      -1.921  -2.511  25.067  0.00  0.00    +0.107 C 
BRANCH  22  24
ATOM     24  C   UNL     1      -3.410  -2.783  25.101  0.00  0.00    +0.129 C 
BRANCH  24  25
ATOM      4  O   UNL     1      -3.986  -0.994  23.582  0.00  0.00    -0.251 OA
ATOM     25  C   UNL     1      -4.104  -2.167  23.911  0.00  0.00    +0.305 C 
BRANCH  25   3
ATOM      3  O   UNL     1      -4.894  -3.051  23.253  0.00  0.00    -0.481 OA
ATOM     28  H   UNL     1      -4.755  -3.970  23.567  0.00  0.00    +0.295 HD
ENDBRANCH  25   3
ENDBRANCH  24  25
ENDBRANCH  22  24
ENDBRANCH  21  22
TORSDOF 6
ENDMDL
MODEL 3
REMARK VINA RESULT:      -3.1      3.014      5.887
REMARK  Name = 26745224
REMARK  6 active torsions:
REMARK  status: ('A' for Active; 'I' for Inactive)
REMARK    1  A    between atoms: O_3  and  C_25
REMARK    2  A    between atoms: N_5  and  C_9
REMARK    3  A    between atoms: C_15  and  C_17
REMARK    4  A    between atoms: C_21  and  C_22
REMARK    5  A    between atoms: C_22  and  C_24
REMARK    6  A    between atoms: C_24  and  C_25
REMARK                            x       y       z     vdW  Elec       q    Type
REMARK                         _______ _______ _______ _____ _____    ______ ____
ROOT
ATOM      2  O   UNL     1       1.061   2.492  25.265  0.00  0.00    -0.276 OA
ATOM      6  N   UNL     1      -0.739   1.013  25.382  0.00  0.00    -0.284 N 
ATOM      7  N   UNL     1      -3.154  -1.766  26.083  0.00  0.00    -0.347 N 
ATOM      8  N   UNL     1      -2.486  -2.570  24.110  0.00  0.00    -0.240 NA
ATOM     15  C   UNL     1      -0.726   0.776  23.913  0.00  0.00    +0.168 C 
ATOM     16  C   UNL     1      -0.891  -0.702  23.500  0.00  0.00    +0.089 C 
ATOM     18  C   UNL     1      -1.823   0.401  26.200  0.00  0.00    +0.163 C 
ATOM     19  C   UNL     1      -1.870  -1.379  24.374  0.00  0.00    +0.066 A 
ATOM     20  C   UNL     1      -2.262  -0.865  25.584  0.00  0.00    +0.056 A 
ATOM     21  C   UNL     1       0.152   1.962  25.908  0.00  0.00    +0.217 C 
ATOM     23  C   UNL     1      -3.256  -2.775  25.160  0.00  0.00    +0.197 A 
ATOM     27  H   UNL     1      -3.649  -1.705  26.963  0.00  0.00    +0.167 HD
ENDROOT
BRANCH  15  17
ATOM      1  O   UNL     1      -2.102   1.621  22.151  0.00  0.00    -0.274 OA
ATOM      5  N   UNL     1      -2.394   2.452  24.306  0.00  0.00    -0.311 N 
ATOM     17  C   UNL     1      -1.812   1.644  23.343  0.00  0.00    +0.234 C 
ATOM     26  H   UNL     1      -2.116   2.337  25.276  0.00  0.00    +0.149 HD
BRANCH   5   9
ATOM      9  C   UNL     1      -3.449   3.398  24.011  0.00  0.00    +0.073 C 
ATOM     10  C   UNL     1      -4.748   2.674  23.641  0.00  0.00    +0.022 C 
ATOM     11  C   UNL     1      -3.666   4.363  25.181  0.00  0.00    +0.022 C 
ATOM     12  C   UNL     1      -5.408   2.001  24.845  0.00  0.00    +0.002 C 
ATOM     13  C   UNL     1      -4.327   3.688  26.382  0.00  0.00    +0.002 C 
ATOM     14  C   UNL     1      -5.624   2.985  25.991  0.00  0.00    +0.000 C 
ENDBRANCH   5   9
ENDBRANCH  15  17
BRANCH  21  22
ATOM     22  C   UNL     1      -0.039   2.329  27.359  0.00  0.00    +0.107 C 
BRANCH  22  24
ATOM     24  C   UNL     1       1.293   2.706  27.973  0.00  0.00    +0.129 C 
BRANCH  24  25
ATOM      4  O   UNL     1       0.549   2.977  30.255  0.00  0.00    -0.251 OA
ATOM     25  C   UNL     1       1.306   2.439  29.458  0.00  0.00    +0.305 C 
BRANCH  25   3
ATOM      3  O   UNL     1       2.264   1.552  29.821  0.00  0.00    -0.481 OA
ATOM     28  H   UNL     1       3.161   1.858  29.566  0.00  0.00    +0.295 HD
ENDBRANCH  25   3
ENDBRANCH  24  25
ENDBRANCH  22  24
ENDBRANCH  21  22
TORSDOF 6
ENDMDL
MODEL 4
REMARK VINA RESULT:      -3.0      2.552      7.343
REMARK  Name = 26745224
REMARK  6 active torsions:
REMARK  status: ('A' for Active; 'I' for Inactive)
REMARK    1  A    between atoms: O_3  and  C_25
REMARK    2  A    between atoms: N_5  and  C_9
REMARK    3  A    between atoms: C_15  and  C_17
REMARK    4  A    between atoms: C_21  and  C_22
REMARK    5  A    between atoms: C_22  and  C_24
REMARK    6  A    between atoms: C_24  and  C_25
REMARK                            x       y       z     vdW  Elec       q    Type
REMARK                         _______ _______ _______ _____ _____    ______ ____
ROOT
ATOM      2  O   UNL     1       0.907  -1.482  24.467  0.00  0.00    -0.276 OA
ATOM      6  N   UNL     1       0.120   0.697  24.197  0.00  0.00    -0.284 N 
ATOM      7  N   UNL     1      -0.365   4.398  23.851  0.00  0.00    -0.347 N 
ATOM      8  N   UNL     1      -1.058   4.299  25.972  0.00  0.00    -0.240 NA
ATOM     15  C   UNL     1      -0.817   0.573  25.345  0.00  0.00    +0.168 C 
ATOM     16  C   UNL     1      -0.846   1.796  26.286  0.00  0.00    +0.089 C 
ATOM     18  C   UNL     1       0.089   1.939  23.374  0.00  0.00    +0.163 C 
ATOM     19  C   UNL     1      -0.751   3.049  25.510  0.00  0.00    +0.066 A 
ATOM     20  C   UNL     1      -0.319   3.084  24.209  0.00  0.00    +0.056 A 
ATOM     21  C   UNL     1       0.855  -0.436  23.815  0.00  0.00    +0.217 C 
ATOM     23  C   UNL     1      -0.816   5.091  24.946  0.00  0.00    +0.197 A 
ATOM     27  H   UNL     1      -0.118   4.791  22.952  0.00  0.00    +0.167 HD
ENDROOT
BRANCH  15  17
ATOM      1  O   UNL     1      -2.438  -0.799  24.249  0.00  0.00    -0.274 OA
ATOM      5  N   UNL     1      -3.012   1.384  24.822  0.00  0.00    -0.311 N 
ATOM     17  C   UNL     1      -2.167   0.289  24.750  0.00  0.00    +0.234 C 
ATOM     26  H   UNL     1      -2.698   2.213  25.319  0.00  0.00    +0.149 HD
BRANCH   5   9
ATOM      9  C   UNL     1      -4.361   1.378  24.299  0.00  0.00    +0.073 C 
ATOM     10  C   UNL     1      -5.385   1.174  25.420  0.00  0.00    +0.022 C 
ATOM     11  C   UNL     1      -4.650   2.657  23.508  0.00  0.00    +0.022 C 
ATOM     12  C   UNL     1      -5.521   2.404  26.319  0.00  0.00    +0.002 C 
ATOM     13  C   UNL     1      -4.787   3.884  24.409  0.00  0.00    +0.002 C 
ATOM     14  C   UNL     1      -5.821   3.662  25.510  0.00  0.00    +0.000 C 
ENDBRANCH   5   9
ENDBRANCH  15  17
BRANCH  21  22
ATOM     22  C   UNL     1       1.626  -0.332  22.522  0.00  0.00    +0.107 C 
BRANCH  22  24
ATOM     24  C   UNL     1       2.800   0.608  22.698  0.00  0.00    +0.129 C 
BRANCH  24  25
ATOM      4  O   UNL     1       5.162   0.317  23.119  0.00  0.00    -0.251 OA
ATOM     25  C   UNL     1       4.025  -0.132  23.178  0.00  0.00    +0.305 C 
BRANCH  25   3
ATOM      3  O   UNL     1       3.733  -1.365  23.662  0.00  0.00    -0.481 OA
ATOM     28  H   UNL     1       4.284  -2.061  23.245  0.00  0.00    +0.295 HD
ENDBRANCH  25   3
ENDBRANCH  24  25
ENDBRANCH  22  24
ENDBRANCH  21  22
TORSDOF 6
ENDMDL
MODEL 5
REMARK VINA RESULT:      -2.6      1.783      2.100
REMARK  Name = 26745224
REMARK  6 active torsions:
REMARK  status: ('A' for Active; 'I' for Inactive)
REMARK    1  A    between atoms: O_3  and  C_25
REMARK    2  A    between atoms: N_5  and  C_9
REMARK    3  A    between atoms: C_15  and  C_17
REMARK    4  A    between atoms: C_21  and  C_22
REMARK    5  A    between atoms: C_22  and  C_24
REMARK    6  A    between atoms: C_24  and  C_25
REMARK                            x       y       z     vdW  Elec       q    Type
REMARK                         _______ _______ _______ _____ _____    ______ ____
ROOT
ATOM      2  O   UNL     1      -0.400   2.720  26.582  0.00  0.00    -0.276 OA
ATOM      6  N   UNL     1      -1.652   1.208  25.320  0.00  0.00    -0.284 N 
ATOM      7  N   UNL     1      -4.170  -1.190  23.923  0.00  0.00    -0.347 N 
ATOM      8  N   UNL     1      -2.727  -2.766  24.571  0.00  0.00    -0.240 NA
ATOM     15  C   UNL     1      -0.524   0.241  25.237  0.00  0.00    +0.168 C 
ATOM     16  C   UNL     1      -0.924  -1.232  25.468  0.00  0.00    +0.089 C 
ATOM     18  C   UNL     1      -2.902   0.923  24.563  0.00  0.00    +0.163 C 
ATOM     19  C   UNL     1      -2.227  -1.521  24.836  0.00  0.00    +0.066 A 
ATOM     20  C   UNL     1      -3.098  -0.534  24.449  0.00  0.00    +0.056 A 
ATOM     21  C   UNL     1      -1.421   2.443  25.947  0.00  0.00    +0.217 C 
ATOM     23  C   UNL     1      -3.900  -2.532  24.018  0.00  0.00    +0.197 A 
ATOM     27  H   UNL     1      -5.005  -0.772  23.533  0.00  0.00    +0.167 HD
ENDROOT
BRANCH  15  17
ATOM      1  O   UNL     1      -0.516   0.962  22.959  0.00  0.00    -0.274 OA
ATOM      5  N   UNL     1       1.404  -0.019  23.837  0.00  0.00    -0.311 N 
ATOM     17  C   UNL     1       0.102   0.449  23.887  0.00  0.00    +0.234 C 
ATOM     26  H   UNL     1       1.833  -0.366  24.690  0.00  0.00    +0.149 HD
BRANCH   5   9
ATOM      9  C   UNL     1       2.221   0.042  22.644  0.00  0.00    +0.073 C 
ATOM     10  C   UNL     1       3.131   1.275  22.663  0.00  0.00    +0.022 C 
ATOM     11  C   UNL     1       3.032  -1.244  22.466  0.00  0.00    +0.022 C 
ATOM     12  C   UNL     1       4.266   1.149  23.680  0.00  0.00    +0.002 C 
ATOM     13  C   UNL     1       4.167  -1.366  23.483  0.00  0.00    +0.002 C 
ATOM     14  C   UNL     1       5.066  -0.133  23.475  0.00  0.00    +0.000 C 
ENDBRANCH   5   9
ENDBRANCH  15  17
BRANCH  21  22
ATOM     22  C   UNL     1      -2.515   3.475  25.820  0.00  0.00    +0.107 C 
BRANCH  22  24
ATOM     24  C   UNL     1      -2.316   4.282  24.555  0.00  0.00    +0.129 C 
BRANCH  24  25
ATOM      4  O   UNL     1      -0.466   5.810  24.840  0.00  0.00    -0.251 OA
ATOM     25  C   UNL     1      -0.885   4.740  24.418  0.00  0.00    +0.305 C 
BRANCH  25   3
ATOM      3  O   UNL     1      -0.112   3.845  23.755  0.00  0.00    -0.481 OA
ATOM     28  H   UNL     1       0.742   4.238  23.471  0.00  0.00    +0.295 HD
ENDBRANCH  25   3
ENDBRANCH  24  25
ENDBRANCH  22  24
ENDBRANCH  21  22
TORSDOF 6
ENDMDL
MODEL 6
REMARK VINA RESULT:      -2.2      2.196      6.667
REMARK  Name = 26745224
REMARK  6 active torsions:
REMARK  status: ('A' for Active; 'I' for Inactive)
REMARK    1  A    between atoms: O_3  and  C_25
REMARK    2  A    between atoms: N_5  and  C_9
REMARK    3  A    between atoms: C_15  and  C_17
REMARK    4  A    between atoms: C_21  and  C_22
REMARK    5  A    between atoms: C_22  and  C_24
REMARK    6  A    between atoms: C_24  and  C_25
REMARK                            x       y       z     vdW  Elec       q    Type
REMARK                         _______ _______ _______ _____ _____    ______ ____
ROOT
ATOM      2  O   UNL     1       1.072   0.122  21.566  0.00  0.00    -0.276 OA
ATOM      6  N   UNL     1      -0.172  -0.076  23.529  0.00  0.00    -0.284 N 
ATOM      7  N   UNL     1      -2.025  -1.185  26.593  0.00  0.00    -0.347 N 
ATOM      8  N   UNL     1      -3.852  -0.911  25.338  0.00  0.00    -0.240 NA
ATOM     15  C   UNL     1      -1.354   0.600  22.928  0.00  0.00    +0.168 C 
ATOM     16  C   UNL     1      -2.707  -0.072  23.242  0.00  0.00    +0.089 C 
ATOM     18  C   UNL     1      -0.208  -0.438  24.974  0.00  0.00    +0.163 C 
ATOM     19  C   UNL     1      -2.733  -0.559  24.636  0.00  0.00    +0.066 A 
ATOM     20  C   UNL     1      -1.595  -0.722  25.385  0.00  0.00    +0.056 A 
ATOM     21  C   UNL     1       1.000  -0.167  22.763  0.00  0.00    +0.217 C 
ATOM     23  C   UNL     1      -3.392  -1.282  26.516  0.00  0.00    +0.197 A 
ATOM     27  H   UNL     1      -1.452  -1.412  27.394  0.00  0.00    +0.167 HD
ENDROOT
BRANCH  15  17
ATOM      1  O   UNL     1      -0.252   2.565  23.725  0.00  0.00    -0.274 OA
ATOM      5  N   UNL     1      -2.565   2.598  23.465  0.00  0.00    -0.311 N 
ATOM     17  C   UNL     1      -1.307   2.023  23.409  0.00  0.00    +0.234 C 
ATOM     26  H   UNL     1      -3.361   2.071  23.116  0.00  0.00    +0.149 HD
BRANCH   5   9
ATOM      9  C   UNL     1      -2.796   3.953  23.918  0.00  0.00    +0.073 C 
ATOM     10  C   UNL     1      -4.279   4.186  24.222  0.00  0.00    +0.022 C 
ATOM     11  C   UNL     1      -1.921   4.284  25.132  0.00  0.00    +0.022 C 
ATOM     12  C   UNL     1      -4.738   3.467  25.491  0.00  0.00    +0.002 C 
ATOM     13  C   UNL     1      -2.383   3.564  26.399  0.00  0.00    +0.002 C 
ATOM     14  C   UNL     1      -3.859   3.822  26.687  0.00  0.00    +0.000 C 
ENDBRANCH   5   9
ENDBRANCH  15  17
BRANCH  21  22
ATOM     22  C   UNL     1       2.234  -0.661  23.479  0.00  0.00    +0.107 C 
BRANCH  22  24
ATOM     24  C   UNL     1       3.473  -0.123  22.797  0.00  0.00    +0.129 C 
BRANCH  24  25
ATOM      4  O   UNL     1       5.381   0.766  23.984  0.00  0.00    -0.251 OA
ATOM     25  C   UNL     1       4.673  -0.194  23.710  0.00  0.00    +0.305 C 
BRANCH  25   3
ATOM      3  O   UNL     1       4.899  -1.446  24.178  0.00  0.00    -0.481 OA
ATOM     28  H   UNL     1       5.101  -1.447  25.138  0.00  0.00    +0.295 HD
ENDBRANCH  25   3
ENDBRANCH  24  25
ENDBRANCH  22  24
ENDBRANCH  21  22
TORSDOF 6
ENDMDL
MODEL 7
REMARK VINA RESULT:      -1.9     16.604     18.975
REMARK  Name = 26745224
REMARK  6 active torsions:
REMARK  status: ('A' for Active; 'I' for Inactive)
REMARK    1  A    between atoms: O_3  and  C_25
REMARK    2  A    between atoms: N_5  and  C_9
REMARK    3  A    between atoms: C_15  and  C_17
REMARK    4  A    between atoms: C_21  and  C_22
REMARK    5  A    between atoms: C_22  and  C_24
REMARK    6  A    between atoms: C_24  and  C_25
REMARK                            x       y       z     vdW  Elec       q    Type
REMARK                         _______ _______ _______ _____ _____    ______ ____
ROOT
ATOM      2  O   UNL     1      12.289  -9.756  32.500  0.00  0.00    -0.276 OA
ATOM      6  N   UNL     1      13.590  -8.705  30.874  0.00  0.00    -0.284 N 
ATOM      7  N   UNL     1      15.126  -7.312  27.753  0.00  0.00    -0.347 N 
ATOM      8  N   UNL     1      16.546  -9.028  27.930  0.00  0.00    -0.240 NA
ATOM     15  C   UNL     1      14.810  -9.461  31.266  0.00  0.00    +0.168 C 
ATOM     16  C   UNL     1      15.638 -10.003  30.082  0.00  0.00    +0.089 C 
ATOM     18  C   UNL     1      13.705  -7.641  29.839  0.00  0.00    +0.163 C 
ATOM     19  C   UNL     1      15.669  -9.021  28.979  0.00  0.00    +0.066 A 
ATOM     20  C   UNL     1      14.784  -7.977  28.891  0.00  0.00    +0.056 A 
ATOM     21  C   UNL     1      12.424  -8.888  31.635  0.00  0.00    +0.217 C 
ATOM     23  C   UNL     1      16.193  -7.982  27.208  0.00  0.00    +0.197 A 
ATOM     27  H   UNL     1      14.685  -6.483  27.378  0.00  0.00    +0.167 HD
ENDROOT
BRANCH  15  17
ATOM      1  O   UNL     1      16.502  -8.945  32.873  0.00  0.00    -0.274 OA
ATOM      5  N   UNL     1      15.205  -7.216  32.008  0.00  0.00    -0.311 N 
ATOM     17  C   UNL     1      15.612  -8.534  32.136  0.00  0.00    +0.234 C 
ATOM     26  H   UNL     1      14.499  -6.986  31.316  0.00  0.00    +0.149 HD
BRANCH   5   9
ATOM      9  C   UNL     1      15.801  -6.130  32.755  0.00  0.00    +0.073 C 
ATOM     10  C   UNL     1      17.132  -5.699  32.131  0.00  0.00    +0.022 C 
ATOM     11  C   UNL     1      14.834  -4.947  32.872  0.00  0.00    +0.022 C 
ATOM     12  C   UNL     1      16.946  -4.958  30.807  0.00  0.00    +0.002 C 
ATOM     13  C   UNL     1      14.651  -4.207  31.547  0.00  0.00    +0.002 C 
ATOM     14  C   UNL     1      15.989  -3.778  30.952  0.00  0.00    +0.000 C 
ENDBRANCH   5   9
ENDBRANCH  15  17
BRANCH  21  22
ATOM     22  C   UNL     1      11.279  -7.949  31.343  0.00  0.00    +0.107 C 
BRANCH  22  24
ATOM     24  C   UNL     1      10.326  -7.923  32.519  0.00  0.00    +0.129 C 
BRANCH  24  25
ATOM      4  O   UNL     1       8.002  -8.311  31.984  0.00  0.00    -0.251 OA
ATOM     25  C   UNL     1       9.105  -8.768  32.252  0.00  0.00    +0.305 C 
BRANCH  25   3
ATOM      3  O   UNL     1       9.355 -10.096  32.362  0.00  0.00    -0.481 OA
ATOM     28  H   UNL     1       8.980 -10.603  31.611  0.00  0.00    +0.295 HD
ENDBRANCH  25   3
ENDBRANCH  24  25
ENDBRANCH  22  24
ENDBRANCH  21  22
TORSDOF 6
ENDMDL
MODEL 8
REMARK VINA RESULT:      -1.9     15.827     18.565
REMARK  Name = 26745224
REMARK  6 active torsions:
REMARK  status: ('A' for Active; 'I' for Inactive)
REMARK    1  A    between atoms: O_3  and  C_25
REMARK    2  A    between atoms: N_5  and  C_9
REMARK    3  A    between atoms: C_15  and  C_17
REMARK    4  A    between atoms: C_21  and  C_22
REMARK    5  A    between atoms: C_22  and  C_24
REMARK    6  A    between atoms: C_24  and  C_25
REMARK                            x       y       z     vdW  Elec       q    Type
REMARK                         _______ _______ _______ _____ _____    ______ ____
ROOT
ATOM      2  O   UNL     1      12.000  -8.031  32.125  0.00  0.00    -0.276 OA
ATOM      6  N   UNL     1      13.621  -7.587  30.507  0.00  0.00    -0.284 N 
ATOM      7  N   UNL     1      15.635  -7.066  27.390  0.00  0.00    -0.347 N 
ATOM      8  N   UNL     1      16.505  -9.068  27.862  0.00  0.00    -0.240 NA
ATOM     15  C   UNL     1      14.559  -8.592  31.075  0.00  0.00    +0.168 C 
ATOM     16  C   UNL     1      15.257  -9.483  30.025  0.00  0.00    +0.089 C 
ATOM     18  C   UNL     1      14.079  -6.732  29.377  0.00  0.00    +0.163 C 
ATOM     19  C   UNL     1      15.616  -8.692  28.831  0.00  0.00    +0.066 A 
ATOM     20  C   UNL     1      15.065  -7.465  28.561  0.00  0.00    +0.056 A 
ATOM     21  C   UNL     1      12.415  -7.348  31.186  0.00  0.00    +0.217 C 
ATOM     23  C   UNL     1      16.495  -8.064  27.008  0.00  0.00    +0.197 A 
ATOM     27  H   UNL     1      15.462  -6.201  26.894  0.00  0.00    +0.167 HD
ENDROOT
BRANCH  15  17
ATOM      1  O   UNL     1      16.470  -8.370  32.493  0.00  0.00    -0.274 OA
ATOM      5  N   UNL     1      15.263  -6.463  31.921  0.00  0.00    -0.311 N 
ATOM     17  C   UNL     1      15.546  -7.818  31.902  0.00  0.00    +0.234 C 
ATOM     26  H   UNL     1      14.508  -6.112  31.340  0.00  0.00    +0.149 HD
BRANCH   5   9
ATOM      9  C   UNL     1      16.048  -5.502  32.665  0.00  0.00    +0.073 C 
ATOM     10  C   UNL     1      17.405  -5.264  31.993  0.00  0.00    +0.022 C 
ATOM     11  C   UNL     1      15.282  -4.188  32.848  0.00  0.00    +0.022 C 
ATOM     12  C   UNL     1      17.284  -4.467  30.694  0.00  0.00    +0.002 C 
ATOM     13  C   UNL     1      15.164  -3.393  31.547  0.00  0.00    +0.002 C 
ATOM     14  C   UNL     1      16.528  -3.159  30.904  0.00  0.00    +0.000 C 
ENDBRANCH   5   9
ENDBRANCH  15  17
BRANCH  21  22
ATOM     22  C   UNL     1      11.595  -6.176  30.705  0.00  0.00    +0.107 C 
BRANCH  22  24
ATOM     24  C   UNL     1      11.860  -4.970  31.581  0.00  0.00    +0.129 C 
BRANCH  24  25
ATOM      4  O   UNL     1      10.248  -3.392  32.447  0.00  0.00    -0.251 OA
ATOM     25  C   UNL     1      10.616  -4.553  32.327  0.00  0.00    +0.305 C 
BRANCH  25   3
ATOM      3  O   UNL     1       9.958  -5.605  32.873  0.00  0.00    -0.481 OA
ATOM     28  H   UNL     1       9.643  -5.408  33.781  0.00  0.00    +0.295 HD
ENDBRANCH  25   3
ENDBRANCH  24  25
ENDBRANCH  22  24
ENDBRANCH  21  22
TORSDOF 6
ENDMDL
MODEL 9
REMARK VINA RESULT:      -1.8      2.280      6.703
REMARK  Name = 26745224
REMARK  6 active torsions:
REMARK  status: ('A' for Active; 'I' for Inactive)
REMARK    1  A    between atoms: O_3  and  C_25
REMARK    2  A    between atoms: N_5  and  C_9
REMARK    3  A    between atoms: C_15  and  C_17
REMARK    4  A    between atoms: C_21  and  C_22
REMARK    5  A    between atoms: C_22  and  C_24
REMARK    6  A    between atoms: C_24  and  C_25
REMARK                            x       y       z     vdW  Elec       q    Type
REMARK                         _______ _______ _______ _____ _____    ______ ____
ROOT
ATOM      2  O   UNL     1       0.839  -1.098  24.247  0.00  0.00    -0.276 OA
ATOM      6  N   UNL     1      -0.128   1.019  24.089  0.00  0.00    -0.284 N 
ATOM      7  N   UNL     1      -0.950   4.637  23.561  0.00  0.00    -0.347 N 
ATOM      8  N   UNL     1      -0.683   4.810  25.772  0.00  0.00    -0.240 NA
ATOM     15  C   UNL     1      -0.488   1.036  25.532  0.00  0.00    +0.168 C 
ATOM     16  C   UNL     1      -0.199   2.371  26.250  0.00  0.00    +0.089 C 
ATOM     18  C   UNL     1      -0.580   2.142  23.220  0.00  0.00    +0.163 C 
ATOM     19  C   UNL     1      -0.518   3.513  25.369  0.00  0.00    +0.066 A 
ATOM     20  C   UNL     1      -0.674   3.382  24.013  0.00  0.00    +0.056 A 
ATOM     21  C   UNL     1       0.451  -0.147  23.564  0.00  0.00    +0.217 C 
ATOM     23  C   UNL     1      -0.945   5.463  24.657  0.00  0.00    +0.197 A 
ATOM     27  H   UNL     1      -1.128   4.912  22.604  0.00  0.00    +0.167 HD
ENDROOT
BRANCH  15  17
ATOM      1  O   UNL     1      -2.832   1.497  25.460  0.00  0.00    -0.274 OA
ATOM      5  N   UNL     1      -2.124  -0.685  25.858  0.00  0.00    -0.311 N 
ATOM     17  C   UNL     1      -1.942   0.663  25.601  0.00  0.00    +0.234 C 
ATOM     26  H   UNL     1      -1.310  -1.292  25.891  0.00  0.00    +0.149 HD
BRANCH   5   9
ATOM      9  C   UNL     1      -3.429  -1.294  25.995  0.00  0.00    +0.073 C 
ATOM     10  C   UNL     1      -4.451  -0.619  25.075  0.00  0.00    +0.022 C 
ATOM     11  C   UNL     1      -3.363  -2.803  25.738  0.00  0.00    +0.022 C 
ATOM     12  C   UNL     1      -4.223  -0.955  23.600  0.00  0.00    +0.002 C 
ATOM     13  C   UNL     1      -3.136  -3.136  24.263  0.00  0.00    +0.002 C 
ATOM     14  C   UNL     1      -4.172  -2.462  23.368  0.00  0.00    +0.000 C 
ENDBRANCH   5   9
ENDBRANCH  15  17
BRANCH  21  22
ATOM     22  C   UNL     1       0.601  -0.206  22.063  0.00  0.00    +0.107 C 
BRANCH  22  24
ATOM     24  C   UNL     1       2.060  -0.388  21.700  0.00  0.00    +0.129 C 
BRANCH  24  25
ATOM      4  O   UNL     1       3.051   1.415  22.967  0.00  0.00    -0.251 OA
ATOM     25  C   UNL     1       2.963   0.214  22.749  0.00  0.00    +0.305 C 
BRANCH  25   3
ATOM      3  O   UNL     1       3.688  -0.721  23.412  0.00  0.00    -0.481 OA
ATOM     28  H   UNL     1       3.128  -1.462  23.727  0.00  0.00    +0.295 HD
ENDBRANCH  25   3
ENDBRANCH  24  25
ENDBRANCH  22  24
ENDBRANCH  21  22
TORSDOF 6
ENDMDL
MODEL 10
REMARK VINA RESULT:      -1.7      2.563      6.323
REMARK  Name = 26745224
REMARK  6 active torsions:
REMARK  status: ('A' for Active; 'I' for Inactive)
REMARK    1  A    between atoms: O_3  and  C_25
REMARK    2  A    between atoms: N_5  and  C_9
REMARK    3  A    between atoms: C_15  and  C_17
REMARK    4  A    between atoms: C_21  and  C_22
REMARK    5  A    between atoms: C_22  and  C_24
REMARK    6  A    between atoms: C_24  and  C_25
REMARK                            x       y       z     vdW  Elec       q    Type
REMARK                         _______ _______ _______ _____ _____    ______ ____
ROOT
ATOM      2  O   UNL     1       2.477   1.437  24.054  0.00  0.00    -0.276 OA
ATOM      6  N   UNL     1       0.165   1.561  23.775  0.00  0.00    -0.284 N 
ATOM      7  N   UNL     1      -3.359   2.123  22.629  0.00  0.00    -0.347 N 
ATOM      8  N   UNL     1      -3.334   3.839  24.059  0.00  0.00    -0.240 NA
ATOM     15  C   UNL     1      -0.017   2.308  25.049  0.00  0.00    +0.168 C 
ATOM     16  C   UNL     1      -0.994   3.498  24.963  0.00  0.00    +0.089 C 
ATOM     18  C   UNL     1      -1.042   1.140  23.010  0.00  0.00    +0.163 C 
ATOM     19  C   UNL     1      -2.148   3.160  24.105  0.00  0.00    +0.066 A 
ATOM     20  C   UNL     1      -2.137   2.102  23.232  0.00  0.00    +0.056 A 
ATOM     21  C   UNL     1       1.454   1.113  23.447  0.00  0.00    +0.217 C 
ATOM     23  C   UNL     1      -4.045   3.187  23.160  0.00  0.00    +0.197 A 
ATOM     27  H   UNL     1      -3.700   1.480  21.926  0.00  0.00    +0.167 HD
ENDROOT
BRANCH  15  17
ATOM      1  O   UNL     1      -0.291   1.467  27.269  0.00  0.00    -0.274 OA
ATOM      5  N   UNL     1      -1.022   0.174  25.477  0.00  0.00    -0.311 N 
ATOM     17  C   UNL     1      -0.455   1.292  26.066  0.00  0.00    +0.234 C 
ATOM     26  H   UNL     1      -1.165   0.169  24.471  0.00  0.00    +0.149 HD
BRANCH   5   9
ATOM      9  C   UNL     1      -1.504  -0.960  26.235  0.00  0.00    +0.073 C 
ATOM     10  C   UNL     1      -3.029  -0.914  26.383  0.00  0.00    +0.022 C 
ATOM     11  C   UNL     1      -1.047  -2.279  25.605  0.00  0.00    +0.022 C 
ATOM     12  C   UNL     1      -3.754  -1.222  25.073  0.00  0.00    +0.002 C 
ATOM     13  C   UNL     1      -1.775  -2.585  24.296  0.00  0.00    +0.002 C 
ATOM     14  C   UNL     1      -3.290  -2.545  24.471  0.00  0.00    +0.000 C 
ENDBRANCH   5   9
ENDBRANCH  15  17
BRANCH  21  22
ATOM     22  C   UNL     1       1.560   0.180  22.265  0.00  0.00    +0.107 C 
BRANCH  22  24
ATOM     24  C   UNL     1       2.980   0.177  21.739  0.00  0.00    +0.129 C 
BRANCH  24  25
ATOM      4  O   UNL     1       5.027   0.381  23.005  0.00  0.00    -0.251 OA
ATOM     25  C   UNL     1       3.962  -0.194  22.823  0.00  0.00    +0.305 C 
BRANCH  25   3
ATOM      3  O   UNL     1       3.548  -1.252  23.563  0.00  0.00    -0.481 OA
ATOM     28  H   UNL     1       3.277  -2.008  23.001  0.00  0.00    +0.295 HD
ENDBRANCH  25   3
ENDBRANCH  24  25
ENDBRANCH  22  24
ENDBRANCH  21  22
TORSDOF 6
ENDMDL
