MODEL 1
REMARK VINA RESULT:       4.2      0.000      0.000
REMARK  Name = 11885303
REMARK  5 active torsions:
REMARK  status: ('A' for Active; 'I' for Inactive)
REMARK    1  A    between atoms: O_4  and  C_26
REMARK    2  A    between atoms: N_5  and  C_14
REMARK    3  A    between atoms: C_14  and  C_19
REMARK    4  A    between atoms: C_17  and  C_20
REMARK    5  A    between atoms: C_22  and  C_26
REMARK                            x       y       z     vdW  Elec       q    Type
REMARK                         _______ _______ _______ _____ _____    ______ ____
ROOT
ATOM      2  O   UNL     1       0.853   2.116  25.658  0.00  0.00    -0.267 OA
ATOM      5  N   UNL     1      -4.075   1.417  25.052  0.00  0.00    -0.294 NA
ATOM      6  N   UNL     1      -1.151   2.595  24.568  0.00  0.00    -0.311 N 
ATOM      7  C   UNL     1      -3.162   3.641  25.765  0.00  0.00    +0.024 C 
ATOM      8  C   UNL     1      -3.311   3.108  23.379  0.00  0.00    +0.050 C 
ATOM      9  C   UNL     1      -3.481   4.232  24.398  0.00  0.00    +0.017 C 
ATOM     10  C   UNL     1      -4.122   2.471  26.073  0.00  0.00    +0.090 C 
ATOM     11  C   UNL     1      -4.296   1.962  23.705  0.00  0.00    +0.094 C 
ATOM     12  C   UNL     1      -1.689   3.215  25.788  0.00  0.00    +0.130 C 
ATOM     13  C   UNL     1      -1.883   2.595  23.378  0.00  0.00    +0.026 A 
ATOM     15  C   UNL     1      -1.330   2.125  22.248  0.00  0.00    +0.022 A 
ATOM     16  C   UNL     1       0.166   2.101  24.635  0.00  0.00    +0.259 A 
ATOM     17  C   UNL     1       0.747   1.550  23.361  0.00  0.00    +0.047 A 
ATOM     18  C   UNL     1       0.002   1.590  22.245  0.00  0.00    +0.015 A 
ENDROOT
BRANCH  17  20
ATOM      1 CL   UNL     1       6.241  -0.819  23.221  0.00  0.00    -0.084 Cl
ATOM     20  C   UNL     1       2.098   0.967  23.326  0.00  0.00    -0.013 A 
ATOM     24  C   UNL     1       3.200   1.774  23.037  0.00  0.00    +0.010 A 
ATOM     25  C   UNL     1       2.281  -0.393  23.583  0.00  0.00    +0.010 A 
ATOM     27  C   UNL     1       4.480   1.222  23.005  0.00  0.00    +0.020 A 
ATOM     28  C   UNL     1       3.561  -0.945  23.551  0.00  0.00    +0.020 A 
ATOM     29  C   UNL     1       4.661  -0.137  23.262  0.00  0.00    +0.041 A 
ENDBRANCH  17  20
BRANCH   5  14
ATOM     14  C   UNL     1      -5.034   0.356  25.351  0.00  0.00    +0.158 C 
BRANCH  14  19
ATOM      3  O   UNL     1      -3.244  -1.237  25.167  0.00  0.00    -0.461 OA
ATOM     19  C   UNL     1      -4.531  -0.979  24.875  0.00  0.00    +0.119 A 
ATOM     21  C   UNL     1      -5.130  -1.985  24.199  0.00  0.00    +0.046 A 
ATOM     22  C   UNL     1      -3.001  -2.472  24.654  0.00  0.00    +0.131 A 
ATOM     23  C   UNL     1      -4.128  -2.974  24.048  0.00  0.00    +0.047 A 
BRANCH  22  26
ATOM     26  C   UNL     1      -1.641  -2.997  24.842  0.00  0.00    +0.230 C 
BRANCH  26   4
ATOM      4  O   UNL     1      -0.778  -1.897  25.137  0.00  0.00    -0.387 OA
ATOM     30  H   UNL     1      -0.551  -1.480  24.288  0.00  0.00    +0.210 HD
ENDBRANCH  26   4
ENDBRANCH  22  26
ENDBRANCH  14  19
ENDBRANCH   5  14
TORSDOF 5
ENDMDL
MODEL 2
REMARK VINA RESULT:       5.1      1.881      4.292
REMARK  Name = 11885303
REMARK  5 active torsions:
REMARK  status: ('A' for Active; 'I' for Inactive)
REMARK    1  A    between atoms: O_4  and  C_26
REMARK    2  A    between atoms: N_5  and  C_14
REMARK    3  A    between atoms: C_14  and  C_19
REMARK    4  A    between atoms: C_17  and  C_20
REMARK    5  A    between atoms: C_22  and  C_26
REMARK                            x       y       z     vdW  Elec       q    Type
REMARK                         _______ _______ _______ _____ _____    ______ ____
ROOT
ATOM      2  O   UNL     1      -0.092   0.110  22.091  0.00  0.00    -0.267 OA
ATOM      5  N   UNL     1      -3.915   0.982  25.216  0.00  0.00    -0.294 NA
ATOM      6  N   UNL     1      -1.704  -0.647  23.595  0.00  0.00    -0.311 N 
ATOM      7  C   UNL     1      -4.220  -0.419  23.160  0.00  0.00    +0.024 C 
ATOM      8  C   UNL     1      -3.435  -1.470  25.228  0.00  0.00    +0.050 C 
ATOM      9  C   UNL     1      -4.331  -1.678  24.010  0.00  0.00    +0.017 C 
ATOM     10  C   UNL     1      -4.676   0.810  23.972  0.00  0.00    +0.090 C 
ATOM     11  C   UNL     1      -3.929  -0.243  26.029  0.00  0.00    +0.094 C 
ATOM     12  C   UNL     1      -2.776  -0.289  22.656  0.00  0.00    +0.130 C 
ATOM     13  C   UNL     1      -1.989  -1.281  24.807  0.00  0.00    +0.026 A 
ATOM     15  C   UNL     1      -0.989  -1.700  25.600  0.00  0.00    +0.022 A 
ATOM     16  C   UNL     1      -0.382  -0.415  23.167  0.00  0.00    +0.259 A 
ATOM     17  C   UNL     1       0.716  -0.865  24.092  0.00  0.00    +0.047 A 
ATOM     18  C   UNL     1       0.382  -1.482  25.236  0.00  0.00    +0.015 A 
ENDROOT
BRANCH  17  20
ATOM      1 CL   UNL     1       6.474   0.088  22.765  0.00  0.00    -0.084 Cl
ATOM     20  C   UNL     1       2.134  -0.632  23.766  0.00  0.00    -0.013 A 
ATOM     24  C   UNL     1       2.524   0.570  23.173  0.00  0.00    +0.010 A 
ATOM     25  C   UNL     1       3.088  -1.610  24.048  0.00  0.00    +0.010 A 
ATOM     27  C   UNL     1       3.866   0.792  22.864  0.00  0.00    +0.020 A 
ATOM     28  C   UNL     1       4.430  -1.388  23.739  0.00  0.00    +0.020 A 
ATOM     29  C   UNL     1       4.818  -0.187  23.147  0.00  0.00    +0.041 A 
ENDBRANCH  17  20
BRANCH   5  14
ATOM     14  C   UNL     1      -4.413   2.123  25.981  0.00  0.00    +0.158 C 
BRANCH  14  19
ATOM      3  O   UNL     1      -2.325   3.057  25.241  0.00  0.00    -0.461 OA
ATOM     19  C   UNL     1      -3.508   3.315  25.825  0.00  0.00    +0.119 A 
ATOM     21  C   UNL     1      -3.656   4.616  26.165  0.00  0.00    +0.046 A 
ATOM     22  C   UNL     1      -1.677   4.251  25.202  0.00  0.00    +0.131 A 
ATOM     23  C   UNL     1      -2.453   5.241  25.758  0.00  0.00    +0.047 A 
BRANCH  22  26
ATOM     26  C   UNL     1      -0.337   4.243  24.599  0.00  0.00    +0.230 C 
BRANCH  26   4
ATOM      4  O   UNL     1      -0.033   2.901  24.214  0.00  0.00    -0.387 OA
ATOM     30  H   UNL     1       0.889   2.733  24.478  0.00  0.00    +0.210 HD
ENDBRANCH  26   4
ENDBRANCH  22  26
ENDBRANCH  14  19
ENDBRANCH   5  14
TORSDOF 5
ENDMDL
MODEL 3
REMARK VINA RESULT:       6.4      2.867      3.661
REMARK  Name = 11885303
REMARK  5 active torsions:
REMARK  status: ('A' for Active; 'I' for Inactive)
REMARK    1  A    between atoms: O_4  and  C_26
REMARK    2  A    between atoms: N_5  and  C_14
REMARK    3  A    between atoms: C_14  and  C_19
REMARK    4  A    between atoms: C_17  and  C_20
REMARK    5  A    between atoms: C_22  and  C_26
REMARK                            x       y       z     vdW  Elec       q    Type
REMARK                         _______ _______ _______ _____ _____    ______ ____
ROOT
ATOM      2  O   UNL     1      -1.944   3.571  27.758  0.00  0.00    -0.267 OA
ATOM      5  N   UNL     1      -4.433   1.015  24.235  0.00  0.00    -0.294 NA
ATOM      6  N   UNL     1      -2.398   3.108  25.519  0.00  0.00    -0.311 N 
ATOM      7  C   UNL     1      -4.701   3.497  24.464  0.00  0.00    +0.024 C 
ATOM      8  C   UNL     1      -2.875   2.604  23.099  0.00  0.00    +0.050 C 
ATOM      9  C   UNL     1      -3.912   3.721  23.181  0.00  0.00    +0.017 C 
ATOM     10  C   UNL     1      -5.386   2.114  24.430  0.00  0.00    +0.090 C 
ATOM     11  C   UNL     1      -3.593   1.235  23.049  0.00  0.00    +0.094 C 
ATOM     12  C   UNL     1      -3.755   3.656  25.661  0.00  0.00    +0.130 C 
ATOM     13  C   UNL     1      -1.926   2.662  24.282  0.00  0.00    +0.026 A 
ATOM     15  C   UNL     1      -0.649   2.270  24.149  0.00  0.00    +0.022 A 
ATOM     16  C   UNL     1      -1.573   3.153  26.660  0.00  0.00    +0.259 A 
ATOM     17  C   UNL     1      -0.156   2.676  26.489  0.00  0.00    +0.047 A 
ATOM     18  C   UNL     1       0.244   2.273  25.273  0.00  0.00    +0.015 A 
ENDROOT
BRANCH  17  20
ATOM      1 CL   UNL     1       3.648   2.517  31.107  0.00  0.00    -0.084 Cl
ATOM     20  C   UNL     1       0.779   2.636  27.626  0.00  0.00    -0.013 A 
ATOM     24  C   UNL     1       2.096   3.068  27.461  0.00  0.00    +0.010 A 
ATOM     25  C   UNL     1       0.351   2.168  28.869  0.00  0.00    +0.010 A 
ATOM     27  C   UNL     1       2.983   3.031  28.537  0.00  0.00    +0.020 A 
ATOM     28  C   UNL     1       1.238   2.131  29.945  0.00  0.00    +0.020 A 
ATOM     29  C   UNL     1       2.553   2.563  29.779  0.00  0.00    +0.041 A 
ENDBRANCH  17  20
BRANCH   5  14
ATOM     14  C   UNL     1      -5.124  -0.270  24.155  0.00  0.00    +0.158 C 
BRANCH  14  19
ATOM      3  O   UNL     1      -2.943  -1.098  24.732  0.00  0.00    -0.461 OA
ATOM     19  C   UNL     1      -4.151  -1.414  24.235  0.00  0.00    +0.119 A 
ATOM     21  C   UNL     1      -4.257  -2.720  23.898  0.00  0.00    +0.046 A 
ATOM     22  C   UNL     1      -2.234  -2.257  24.715  0.00  0.00    +0.131 A 
ATOM     23  C   UNL     1      -2.997  -3.283  24.211  0.00  0.00    +0.047 A 
BRANCH  22  26
ATOM     26  C   UNL     1      -0.855  -2.182  25.218  0.00  0.00    +0.230 C 
BRANCH  26   4
ATOM      4  O   UNL     1      -0.696  -0.932  25.891  0.00  0.00    -0.387 OA
ATOM     30  H   UNL     1       0.126  -0.991  26.407  0.00  0.00    +0.210 HD
ENDBRANCH  26   4
ENDBRANCH  22  26
ENDBRANCH  14  19
ENDBRANCH   5  14
TORSDOF 5
ENDMDL
