MODEL 1
REMARK VINA RESULT:      -0.8      0.000      0.000
REMARK  Name = 45783390
REMARK  8 active torsions:
REMARK  status: ('A' for Active; 'I' for Inactive)
REMARK    1  A    between atoms: O_2  and  C_27
REMARK    2  A    between atoms: O_2  and  C_28
REMARK    3  A    between atoms: N_3  and  C_13
REMARK    4  A    between atoms: N_7  and  C_24
REMARK    5  A    between atoms: C_9  and  C_14
REMARK    6  A    between atoms: C_13  and  C_15
REMARK    7  A    between atoms: C_16  and  C_19
REMARK    8  A    between atoms: C_24  and  C_27
REMARK                            x       y       z     vdW  Elec       q    Type
REMARK                         _______ _______ _______ _____ _____    ______ ____
ROOT
ATOM      1  O   UNL     1      -0.814  -2.642  25.328  0.00  0.00    -0.336 OA
ATOM      4  N   UNL     1      -1.145  -0.786  24.118  0.00  0.00    -0.190 NA
ATOM      5  N   UNL     1       0.459  -2.142  25.025  0.00  0.00    -0.056 NA
ATOM     14  C   UNL     1      -1.700  -1.784  24.757  0.00  0.00    +0.245 A 
ATOM     16  C   UNL     1       0.181  -1.048  24.311  0.00  0.00    +0.205 A 
ENDROOT
BRANCH  16  19
ATOM      7  N   UNL     1       0.100   1.775  24.620  0.00  0.00    -0.326 N 
ATOM      8  N   UNL     1       2.127   2.010  23.421  0.00  0.00    -0.240 NA
ATOM     19  C   UNL     1       1.203  -0.196  23.774  0.00  0.00    +0.062 A 
ATOM     21  C   UNL     1       1.179   1.182  23.915  0.00  0.00    +0.130 A 
ATOM     23  C   UNL     1       2.268  -0.761  23.081  0.00  0.00    +0.016 A 
ATOM     25  C   UNL     1       3.262   0.058  22.558  0.00  0.00    +0.020 A 
ATOM     26  C   UNL     1       3.146   1.424  22.753  0.00  0.00    +0.113 A 
ATOM     29  H   UNL     1      -0.387   1.175  25.277  0.00  0.00    +0.148 HD
BRANCH   7  24
ATOM     24  C   UNL     1      -0.009   3.183  24.816  0.00  0.00    +0.131 C 
BRANCH  24  27
ATOM     27  C   UNL     1      -1.072   3.482  25.860  0.00  0.00    +0.178 C 
BRANCH  27   2
ATOM      2  O   UNL     1      -1.615   4.775  25.626  0.00  0.00    -0.381 OA
ATOM     28  C   UNL     1      -0.870   5.482  24.645  0.00  0.00    +0.194 C 
ENDBRANCH  27   2
ENDBRANCH  24  27
ENDBRANCH   7  24
ENDBRANCH  16  19
BRANCH  14   9
ATOM      3  N   UNL     1      -4.051  -1.016  24.491  0.00  0.00    -0.287 NA
ATOM      9  C   UNL     1      -3.168  -2.108  24.943  0.00  0.00    +0.146 C 
ATOM     10  C   UNL     1      -3.614  -3.336  24.127  0.00  0.00    +0.030 C 
ATOM     11  C   UNL     1      -4.791  -2.851  23.292  0.00  0.00    +0.017 C 
ATOM     12  C   UNL     1      -5.298  -1.646  24.056  0.00  0.00    +0.085 C 
BRANCH   3  13
ATOM     13  C   UNL     1      -4.277   0.000  25.510  0.00  0.00    +0.121 C 
BRANCH  13  15
ATOM      6  N   UNL     1      -4.893   3.714  25.105  0.00  0.00    -0.263 NA
ATOM     15  C   UNL     1      -4.248   1.391  24.932  0.00  0.00    -0.015 A 
ATOM     17  C   UNL     1      -3.586   1.656  23.738  0.00  0.00    +0.008 A 
ATOM     18  C   UNL     1      -4.881   2.445  25.570  0.00  0.00    +0.115 A 
ATOM     20  C   UNL     1      -3.576   2.949  23.227  0.00  0.00    +0.020 A 
ATOM     22  C   UNL     1      -4.238   3.934  23.942  0.00  0.00    +0.111 A 
ENDBRANCH  13  15
ENDBRANCH   3  13
ENDBRANCH  14   9
TORSDOF 7
ENDMDL
MODEL 2
REMARK VINA RESULT:      -0.7      1.821      5.520
REMARK  Name = 45783390
REMARK  8 active torsions:
REMARK  status: ('A' for Active; 'I' for Inactive)
REMARK    1  A    between atoms: O_2  and  C_27
REMARK    2  A    between atoms: O_2  and  C_28
REMARK    3  A    between atoms: N_3  and  C_13
REMARK    4  A    between atoms: N_7  and  C_24
REMARK    5  A    between atoms: C_9  and  C_14
REMARK    6  A    between atoms: C_13  and  C_15
REMARK    7  A    between atoms: C_16  and  C_19
REMARK    8  A    between atoms: C_24  and  C_27
REMARK                            x       y       z     vdW  Elec       q    Type
REMARK                         _______ _______ _______ _____ _____    ______ ____
ROOT
ATOM      1  O   UNL     1      -3.960   2.224  23.806  0.00  0.00    -0.336 OA
ATOM      4  N   UNL     1      -4.030   0.678  25.426  0.00  0.00    -0.190 NA
ATOM      5  N   UNL     1      -3.450   1.046  23.245  0.00  0.00    -0.056 NA
ATOM     14  C   UNL     1      -4.278   1.919  25.092  0.00  0.00    +0.245 A 
ATOM     16  C   UNL     1      -3.523   0.181  24.260  0.00  0.00    +0.205 A 
ENDROOT
BRANCH  16  19
ATOM      7  N   UNL     1      -0.780  -0.527  24.053  0.00  0.00    -0.326 N 
ATOM      8  N   UNL     1      -1.336  -2.824  23.931  0.00  0.00    -0.240 NA
ATOM     19  C   UNL     1      -3.099  -1.184  24.144  0.00  0.00    +0.062 A 
ATOM     21  C   UNL     1      -1.766  -1.547  24.042  0.00  0.00    +0.130 A 
ATOM     23  C   UNL     1      -4.053  -2.196  24.131  0.00  0.00    +0.016 A 
ATOM     25  C   UNL     1      -3.649  -3.522  24.019  0.00  0.00    +0.020 A 
ATOM     26  C   UNL     1      -2.292  -3.780  23.923  0.00  0.00    +0.113 A 
ATOM     29  H   UNL     1      -1.050   0.349  24.487  0.00  0.00    +0.148 HD
BRANCH   7  24
ATOM     24  C   UNL     1       0.615  -0.805  23.954  0.00  0.00    +0.131 C 
BRANCH  24  27
ATOM     27  C   UNL     1       1.215  -0.042  22.786  0.00  0.00    +0.178 C 
BRANCH  27   2
ATOM      2  O   UNL     1       2.601  -0.345  22.685  0.00  0.00    -0.381 OA
ATOM     28  C   UNL     1       3.394   0.834  22.705  0.00  0.00    +0.194 C 
ENDBRANCH  27   2
ENDBRANCH  24  27
ENDBRANCH   7  24
ENDBRANCH  16  19
BRANCH  14   9
ATOM      3  N   UNL     1      -4.221   4.342  25.653  0.00  0.00    -0.287 NA
ATOM      9  C   UNL     1      -4.859   3.040  25.928  0.00  0.00    +0.146 C 
ATOM     10  C   UNL     1      -6.357   3.272  25.652  0.00  0.00    +0.030 C 
ATOM     11  C   UNL     1      -6.471   4.746  25.289  0.00  0.00    +0.017 C 
ATOM     12  C   UNL     1      -5.237   5.364  25.913  0.00  0.00    +0.085 C 
BRANCH   3  13
ATOM     13  C   UNL     1      -3.009   4.564  26.429  0.00  0.00    +0.121 C 
BRANCH  13  15
ATOM      6  N   UNL     1      -0.130   2.223  25.679  0.00  0.00    -0.263 NA
ATOM     15  C   UNL     1      -1.797   3.971  25.759  0.00  0.00    -0.015 A 
ATOM     17  C   UNL     1      -1.226   4.577  24.645  0.00  0.00    +0.008 A 
ATOM     18  C   UNL     1      -1.216   2.806  26.233  0.00  0.00    +0.115 A 
ATOM     20  C   UNL     1      -0.108   4.007  24.048  0.00  0.00    +0.020 A 
ATOM     22  C   UNL     1       0.398   2.841  24.598  0.00  0.00    +0.111 A 
ENDBRANCH  13  15
ENDBRANCH   3  13
ENDBRANCH  14   9
TORSDOF 7
ENDMDL
MODEL 3
REMARK VINA RESULT:       0.1      1.382      4.700
REMARK  Name = 45783390
REMARK  8 active torsions:
REMARK  status: ('A' for Active; 'I' for Inactive)
REMARK    1  A    between atoms: O_2  and  C_27
REMARK    2  A    between atoms: O_2  and  C_28
REMARK    3  A    between atoms: N_3  and  C_13
REMARK    4  A    between atoms: N_7  and  C_24
REMARK    5  A    between atoms: C_9  and  C_14
REMARK    6  A    between atoms: C_13  and  C_15
REMARK    7  A    between atoms: C_16  and  C_19
REMARK    8  A    between atoms: C_24  and  C_27
REMARK                            x       y       z     vdW  Elec       q    Type
REMARK                         _______ _______ _______ _____ _____    ______ ____
ROOT
ATOM      1  O   UNL     1      -0.755   3.532  25.589  0.00  0.00    -0.336 OA
ATOM      4  N   UNL     1      -1.058   2.208  23.807  0.00  0.00    -0.190 NA
ATOM      5  N   UNL     1       0.485   2.934  25.332  0.00  0.00    -0.056 NA
ATOM     14  C   UNL     1      -1.606   3.050  24.645  0.00  0.00    +0.245 A 
ATOM     16  C   UNL     1       0.227   2.169  24.267  0.00  0.00    +0.205 A 
ENDROOT
BRANCH  16  19
ATOM      7  N   UNL     1      -0.218  -0.577  23.691  0.00  0.00    -0.326 N 
ATOM      8  N   UNL     1       1.950  -0.781  22.765  0.00  0.00    -0.240 NA
ATOM     19  C   UNL     1       1.226   1.353  23.642  0.00  0.00    +0.062 A 
ATOM     21  C   UNL     1       1.027   0.013  23.354  0.00  0.00    +0.130 A 
ATOM     23  C   UNL     1       2.452   1.916  23.304  0.00  0.00    +0.016 A 
ATOM     25  C   UNL     1       3.427   1.132  22.697  0.00  0.00    +0.020 A 
ATOM     26  C   UNL     1       3.129  -0.198  22.452  0.00  0.00    +0.113 A 
ATOM     29  H   UNL     1      -1.004   0.059  23.783  0.00  0.00    +0.148 HD
BRANCH   7  24
ATOM     24  C   UNL     1      -0.515  -1.947  23.433  0.00  0.00    +0.131 C 
BRANCH  24  27
ATOM     27  C   UNL     1      -0.758  -2.682  24.741  0.00  0.00    +0.178 C 
BRANCH  27   2
ATOM      2  O   UNL     1      -0.034  -2.043  25.784  0.00  0.00    -0.381 OA
ATOM     28  C   UNL     1      -0.766  -0.958  26.337  0.00  0.00    +0.194 C 
ENDBRANCH  27   2
ENDBRANCH  24  27
ENDBRANCH   7  24
ENDBRANCH  16  19
BRANCH  14   9
ATOM      3  N   UNL     1      -3.978   2.521  25.180  0.00  0.00    -0.287 NA
ATOM      9  C   UNL     1      -3.035   3.551  24.706  0.00  0.00    +0.146 C 
ATOM     10  C   UNL     1      -3.211   4.725  25.687  0.00  0.00    +0.030 C 
ATOM     11  C   UNL     1      -4.317   4.286  26.638  0.00  0.00    +0.017 C 
ATOM     12  C   UNL     1      -5.068   3.234  25.848  0.00  0.00    +0.085 C 
BRANCH   3  13
ATOM     13  C   UNL     1      -4.464   1.652  24.116  0.00  0.00    +0.121 C 
BRANCH  13  15
ATOM      6  N   UNL     1      -3.743  -1.504  26.080  0.00  0.00    -0.263 NA
ATOM     15  C   UNL     1      -4.242   0.197  24.435  0.00  0.00    -0.015 A 
ATOM     17  C   UNL     1      -4.319  -0.774  23.443  0.00  0.00    +0.008 A 
ATOM     18  C   UNL     1      -3.954  -0.216  25.726  0.00  0.00    +0.115 A 
ATOM     20  C   UNL     1      -4.109  -2.110  23.768  0.00  0.00    +0.020 A 
ATOM     22  C   UNL     1      -3.827  -2.420  25.088  0.00  0.00    +0.111 A 
ENDBRANCH  13  15
ENDBRANCH   3  13
ENDBRANCH  14   9
TORSDOF 7
ENDMDL
MODEL 4
REMARK VINA RESULT:       0.5      1.731      6.096
REMARK  Name = 45783390
REMARK  8 active torsions:
REMARK  status: ('A' for Active; 'I' for Inactive)
REMARK    1  A    between atoms: O_2  and  C_27
REMARK    2  A    between atoms: O_2  and  C_28
REMARK    3  A    between atoms: N_3  and  C_13
REMARK    4  A    between atoms: N_7  and  C_24
REMARK    5  A    between atoms: C_9  and  C_14
REMARK    6  A    between atoms: C_13  and  C_15
REMARK    7  A    between atoms: C_16  and  C_19
REMARK    8  A    between atoms: C_24  and  C_27
REMARK                            x       y       z     vdW  Elec       q    Type
REMARK                         _______ _______ _______ _____ _____    ______ ____
ROOT
ATOM      1  O   UNL     1      -3.713  -1.410  23.956  0.00  0.00    -0.336 OA
ATOM      4  N   UNL     1      -2.638   0.423  24.666  0.00  0.00    -0.190 NA
ATOM      5  N   UNL     1      -4.700  -0.442  24.184  0.00  0.00    -0.056 NA
ATOM     14  C   UNL     1      -2.529  -0.817  24.264  0.00  0.00    +0.245 A 
ATOM     16  C   UNL     1      -3.989   0.610  24.600  0.00  0.00    +0.205 A 
ENDROOT
BRANCH  16  19
ATOM      7  N   UNL     1      -2.527   3.045  24.601  0.00  0.00    -0.326 N 
ATOM      8  N   UNL     1      -4.442   4.248  25.297  0.00  0.00    -0.240 NA
ATOM     19  C   UNL     1      -4.596   1.859  24.958  0.00  0.00    +0.062 A 
ATOM     21  C   UNL     1      -3.898   3.055  24.964  0.00  0.00    +0.130 A 
ATOM     23  C   UNL     1      -5.939   1.886  25.318  0.00  0.00    +0.016 A 
ATOM     25  C   UNL     1      -6.535   3.093  25.666  0.00  0.00    +0.020 A 
ATOM     26  C   UNL     1      -5.750   4.234  25.641  0.00  0.00    +0.113 A 
ATOM     29  H   UNL     1      -2.224   2.268  24.022  0.00  0.00    +0.148 HD
BRANCH   7  24
ATOM     24  C   UNL     1      -1.729   4.226  24.577  0.00  0.00    +0.131 C 
BRANCH  24  27
ATOM     27  C   UNL     1      -0.265   3.869  24.772  0.00  0.00    +0.178 C 
BRANCH  27   2
ATOM      2  O   UNL     1      -0.159   2.504  25.156  0.00  0.00    -0.381 OA
ATOM     28  C   UNL     1       0.193   2.375  26.527  0.00  0.00    +0.194 C 
ENDBRANCH  27   2
ENDBRANCH  24  27
ENDBRANCH   7  24
ENDBRANCH  16  19
BRANCH  14   9
ATOM      3  N   UNL     1      -0.042  -0.897  24.293  0.00  0.00    -0.287 NA
ATOM      9  C   UNL     1      -1.286  -1.667  24.099  0.00  0.00    +0.146 C 
ATOM     10  C   UNL     1      -1.205  -2.809  25.129  0.00  0.00    +0.030 C 
ATOM     11  C   UNL     1       0.145  -2.633  25.811  0.00  0.00    +0.017 C 
ATOM     12  C   UNL     1       0.953  -1.841  24.804  0.00  0.00    +0.085 C 
BRANCH   3  13
ATOM     13  C   UNL     1       0.412  -0.224  23.083  0.00  0.00    +0.121 C 
BRANCH  13  15
ATOM      6  N   UNL     1       3.733   1.594  23.027  0.00  0.00    -0.263 NA
ATOM     15  C   UNL     1       1.898   0.022  23.104  0.00  0.00    -0.015 A 
ATOM     17  C   UNL     1       2.797  -1.033  23.211  0.00  0.00    +0.008 A 
ATOM     18  C   UNL     1       2.412   1.305  23.015  0.00  0.00    +0.115 A 
ATOM     20  C   UNL     1       4.164  -0.777  23.227  0.00  0.00    +0.020 A 
ATOM     22  C   UNL     1       4.576   0.542  23.133  0.00  0.00    +0.111 A 
ENDBRANCH  13  15
ENDBRANCH   3  13
ENDBRANCH  14   9
TORSDOF 7
ENDMDL
MODEL 5
REMARK VINA RESULT:       0.8      1.975      4.966
REMARK  Name = 45783390
REMARK  8 active torsions:
REMARK  status: ('A' for Active; 'I' for Inactive)
REMARK    1  A    between atoms: O_2  and  C_27
REMARK    2  A    between atoms: O_2  and  C_28
REMARK    3  A    between atoms: N_3  and  C_13
REMARK    4  A    between atoms: N_7  and  C_24
REMARK    5  A    between atoms: C_9  and  C_14
REMARK    6  A    between atoms: C_13  and  C_15
REMARK    7  A    between atoms: C_16  and  C_19
REMARK    8  A    between atoms: C_24  and  C_27
REMARK                            x       y       z     vdW  Elec       q    Type
REMARK                         _______ _______ _______ _____ _____    ______ ____
ROOT
ATOM      1  O   UNL     1      -1.192   3.058  24.070  0.00  0.00    -0.336 OA
ATOM      4  N   UNL     1      -2.051   1.015  24.398  0.00  0.00    -0.190 NA
ATOM      5  N   UNL     1      -0.101   2.184  24.151  0.00  0.00    -0.056 NA
ATOM     14  C   UNL     1      -2.301   2.288  24.226  0.00  0.00    +0.245 A 
ATOM     16  C   UNL     1      -0.687   0.999  24.345  0.00  0.00    +0.205 A 
ENDROOT
BRANCH  16  19
ATOM      7  N   UNL     1       1.713   0.526  22.901  0.00  0.00    -0.326 N 
ATOM      8  N   UNL     1       1.954  -1.601  23.909  0.00  0.00    -0.240 NA
ATOM     19  C   UNL     1       0.059  -0.217  24.489  0.00  0.00    +0.062 A 
ATOM     21  C   UNL     1       1.230  -0.465  23.794  0.00  0.00    +0.130 A 
ATOM     23  C   UNL     1      -0.401  -1.199  25.361  0.00  0.00    +0.016 A 
ATOM     25  C   UNL     1       0.316  -2.382  25.507  0.00  0.00    +0.020 A 
ATOM     26  C   UNL     1       1.476  -2.532  24.765  0.00  0.00    +0.113 A 
ATOM     29  H   UNL     1       1.403   1.476  23.077  0.00  0.00    +0.148 HD
BRANCH   7  24
ATOM     24  C   UNL     1       2.909   0.361  22.143  0.00  0.00    +0.131 C 
BRANCH  24  27
ATOM     27  C   UNL     1       4.070   1.044  22.847  0.00  0.00    +0.178 C 
BRANCH  27   2
ATOM      2  O   UNL     1       5.190   0.168  22.872  0.00  0.00    -0.381 OA
ATOM     28  C   UNL     1       5.408  -0.361  24.172  0.00  0.00    +0.194 C 
ENDBRANCH  27   2
ENDBRANCH  24  27
ENDBRANCH   7  24
ENDBRANCH  16  19
BRANCH  14   9
ATOM      3  N   UNL     1      -4.641   2.396  25.067  0.00  0.00    -0.287 NA
ATOM      9  C   UNL     1      -3.634   3.006  24.176  0.00  0.00    +0.146 C 
ATOM     10  C   UNL     1      -3.537   4.472  24.640  0.00  0.00    +0.030 C 
ATOM     11  C   UNL     1      -4.568   4.605  25.752  0.00  0.00    +0.017 C 
ATOM     12  C   UNL     1      -5.540   3.476  25.475  0.00  0.00    +0.085 C 
BRANCH   3  13
ATOM     13  C   UNL     1      -5.360   1.290  24.449  0.00  0.00    +0.121 C 
BRANCH  13  15
ATOM      6  N   UNL     1      -3.536  -1.498  26.249  0.00  0.00    -0.263 NA
ATOM     15  C   UNL     1      -4.682  -0.031  24.707  0.00  0.00    -0.015 A 
ATOM     17  C   UNL     1      -4.565  -0.984  23.701  0.00  0.00    +0.008 A 
ATOM     18  C   UNL     1      -4.155  -0.334  25.952  0.00  0.00    +0.115 A 
ATOM     20  C   UNL     1      -3.934  -2.194  23.968  0.00  0.00    +0.020 A 
ATOM     22  C   UNL     1      -3.441  -2.400  25.246  0.00  0.00    +0.111 A 
ENDBRANCH  13  15
ENDBRANCH   3  13
ENDBRANCH  14   9
TORSDOF 7
ENDMDL
MODEL 6
REMARK VINA RESULT:       1.2      1.729      5.777
REMARK  Name = 45783390
REMARK  8 active torsions:
REMARK  status: ('A' for Active; 'I' for Inactive)
REMARK    1  A    between atoms: O_2  and  C_27
REMARK    2  A    between atoms: O_2  and  C_28
REMARK    3  A    between atoms: N_3  and  C_13
REMARK    4  A    between atoms: N_7  and  C_24
REMARK    5  A    between atoms: C_9  and  C_14
REMARK    6  A    between atoms: C_13  and  C_15
REMARK    7  A    between atoms: C_16  and  C_19
REMARK    8  A    between atoms: C_24  and  C_27
REMARK                            x       y       z     vdW  Elec       q    Type
REMARK                         _______ _______ _______ _____ _____    ______ ____
ROOT
ATOM      1  O   UNL     1      -1.387   1.005  22.641  0.00  0.00    -0.336 OA
ATOM      4  N   UNL     1      -1.768   1.385  24.816  0.00  0.00    -0.190 NA
ATOM      5  N   UNL     1      -2.710   1.455  22.733  0.00  0.00    -0.056 NA
ATOM     14  C   UNL     1      -0.906   0.993  23.912  0.00  0.00    +0.245 A 
ATOM     16  C   UNL     1      -2.861   1.658  24.044  0.00  0.00    +0.205 A 
ENDROOT
BRANCH  16  19
ATOM      7  N   UNL     1      -3.051   4.197  25.303  0.00  0.00    -0.326 N 
ATOM      8  N   UNL     1      -5.341   3.839  25.783  0.00  0.00    -0.240 NA
ATOM     19  C   UNL     1      -4.088   2.131  24.617  0.00  0.00    +0.062 A 
ATOM     21  C   UNL     1      -4.198   3.366  25.234  0.00  0.00    +0.130 A 
ATOM     23  C   UNL     1      -5.222   1.328  24.558  0.00  0.00    +0.016 A 
ATOM     25  C   UNL     1      -6.415   1.780  25.110  0.00  0.00    +0.020 A 
ATOM     26  C   UNL     1      -6.421   3.030  25.706  0.00  0.00    +0.113 A 
ATOM     29  H   UNL     1      -2.332   4.025  24.608  0.00  0.00    +0.148 HD
BRANCH   7  24
ATOM     24  C   UNL     1      -3.069   5.483  25.918  0.00  0.00    +0.131 C 
BRANCH  24  27
ATOM     27  C   UNL     1      -1.946   6.342  25.361  0.00  0.00    +0.178 C 
BRANCH  27   2
ATOM      2  O   UNL     1      -1.227   5.603  24.381  0.00  0.00    -0.381 OA
ATOM     28  C   UNL     1      -0.405   4.609  24.977  0.00  0.00    +0.194 C 
ENDBRANCH  27   2
ENDBRANCH  24  27
ENDBRANCH   7  24
ENDBRANCH  16  19
BRANCH  14   9
ATOM      3  N   UNL     1       0.737  -0.858  23.658  0.00  0.00    -0.287 NA
ATOM      9  C   UNL     1       0.528   0.538  24.087  0.00  0.00    +0.146 C 
ATOM     10  C   UNL     1       1.520   1.360  23.243  0.00  0.00    +0.030 C 
ATOM     11  C   UNL     1       2.283   0.335  22.416  0.00  0.00    +0.017 C 
ATOM     12  C   UNL     1       2.126  -0.949  23.206  0.00  0.00    +0.085 C 
BRANCH   3  13
ATOM     13  C   UNL     1       0.436  -1.831  24.700  0.00  0.00    +0.121 C 
BRANCH  13  15
ATOM      6  N   UNL     1      -2.874  -1.346  26.473  0.00  0.00    -0.263 NA
ATOM     15  C   UNL     1      -1.039  -1.895  24.997  0.00  0.00    -0.015 A 
ATOM     17  C   UNL     1      -1.919  -2.531  24.128  0.00  0.00    +0.008 A 
ATOM     18  C   UNL     1      -1.562  -1.324  26.146  0.00  0.00    +0.115 A 
ATOM     20  C   UNL     1      -3.275  -2.575  24.429  0.00  0.00    +0.020 A 
ATOM     22  C   UNL     1      -3.699  -1.973  25.603  0.00  0.00    +0.111 A 
ENDBRANCH  13  15
ENDBRANCH   3  13
ENDBRANCH  14   9
TORSDOF 7
ENDMDL
MODEL 7
REMARK VINA RESULT:       1.9      1.815      3.967
REMARK  Name = 45783390
REMARK  8 active torsions:
REMARK  status: ('A' for Active; 'I' for Inactive)
REMARK    1  A    between atoms: O_2  and  C_27
REMARK    2  A    between atoms: O_2  and  C_28
REMARK    3  A    between atoms: N_3  and  C_13
REMARK    4  A    between atoms: N_7  and  C_24
REMARK    5  A    between atoms: C_9  and  C_14
REMARK    6  A    between atoms: C_13  and  C_15
REMARK    7  A    between atoms: C_16  and  C_19
REMARK    8  A    between atoms: C_24  and  C_27
REMARK                            x       y       z     vdW  Elec       q    Type
REMARK                         _______ _______ _______ _____ _____    ______ ____
ROOT
ATOM      1  O   UNL     1      -3.289   2.000  21.909  0.00  0.00    -0.336 OA
ATOM      4  N   UNL     1      -2.179   1.517  23.794  0.00  0.00    -0.190 NA
ATOM      5  N   UNL     1      -2.008   1.594  21.514  0.00  0.00    -0.056 NA
ATOM     14  C   UNL     1      -3.305   1.925  23.266  0.00  0.00    +0.245 A 
ATOM     16  C   UNL     1      -1.413   1.326  22.680  0.00  0.00    +0.205 A 
ENDROOT
BRANCH  16  19
ATOM      7  N   UNL     1       0.259   1.992  24.878  0.00  0.00    -0.326 N 
ATOM      8  N   UNL     1       2.054   0.767  23.942  0.00  0.00    -0.240 NA
ATOM     19  C   UNL     1      -0.057   0.868  22.768  0.00  0.00    +0.062 A 
ATOM     21  C   UNL     1       0.772   1.183  23.832  0.00  0.00    +0.130 A 
ATOM     23  C   UNL     1       0.461   0.075  21.751  0.00  0.00    +0.016 A 
ATOM     25  C   UNL     1       1.776  -0.374  21.828  0.00  0.00    +0.020 A 
ATOM     26  C   UNL     1       2.523  -0.003  22.934  0.00  0.00    +0.113 A 
ATOM     29  H   UNL     1      -0.751   1.997  24.985  0.00  0.00    +0.148 HD
BRANCH   7  24
ATOM     24  C   UNL     1       1.036   2.367  26.013  0.00  0.00    +0.131 C 
BRANCH  24  27
ATOM     27  C   UNL     1       0.151   3.034  27.052  0.00  0.00    +0.178 C 
BRANCH  27   2
ATOM      2  O   UNL     1      -1.178   3.121  26.555  0.00  0.00    -0.381 OA
ATOM     28  C   UNL     1      -1.344   4.249  25.707  0.00  0.00    +0.194 C 
ENDBRANCH  27   2
ENDBRANCH  24  27
ENDBRANCH   7  24
ENDBRANCH  16  19
BRANCH  14   9
ATOM      3  N   UNL     1      -4.734   1.725  25.293  0.00  0.00    -0.287 NA
ATOM      9  C   UNL     1      -4.599   2.317  23.948  0.00  0.00    +0.146 C 
ATOM     10  C   UNL     1      -4.715   3.836  24.175  0.00  0.00    +0.030 C 
ATOM     11  C   UNL     1      -4.974   3.996  25.667  0.00  0.00    +0.017 C 
ATOM     12  C   UNL     1      -5.550   2.655  26.075  0.00  0.00    +0.085 C 
BRANCH   3  13
ATOM     13  C   UNL     1      -5.299   0.382  25.277  0.00  0.00    +0.121 C 
BRANCH  13  15
ATOM      6  N   UNL     1      -2.103  -1.614  25.651  0.00  0.00    -0.263 NA
ATOM     15  C   UNL     1      -4.243  -0.667  25.043  0.00  0.00    -0.015 A 
ATOM     17  C   UNL     1      -4.396  -1.630  24.052  0.00  0.00    +0.008 A 
ATOM     18  C   UNL     1      -3.089  -0.702  25.808  0.00  0.00    +0.115 A 
ATOM     20  C   UNL     1      -3.405  -2.585  23.859  0.00  0.00    +0.020 A 
ATOM     22  C   UNL     1      -2.288  -2.535  24.677  0.00  0.00    +0.111 A 
ENDBRANCH  13  15
ENDBRANCH   3  13
ENDBRANCH  14   9
TORSDOF 7
ENDMDL
MODEL 8
REMARK VINA RESULT:       2.2      1.832      5.779
REMARK  Name = 45783390
REMARK  8 active torsions:
REMARK  status: ('A' for Active; 'I' for Inactive)
REMARK    1  A    between atoms: O_2  and  C_27
REMARK    2  A    between atoms: O_2  and  C_28
REMARK    3  A    between atoms: N_3  and  C_13
REMARK    4  A    between atoms: N_7  and  C_24
REMARK    5  A    between atoms: C_9  and  C_14
REMARK    6  A    between atoms: C_13  and  C_15
REMARK    7  A    between atoms: C_16  and  C_19
REMARK    8  A    between atoms: C_24  and  C_27
REMARK                            x       y       z     vdW  Elec       q    Type
REMARK                         _______ _______ _______ _____ _____    ______ ____
ROOT
ATOM      1  O   UNL     1       0.991   1.978  25.846  0.00  0.00    -0.336 OA
ATOM      4  N   UNL     1      -0.333   2.141  24.046  0.00  0.00    -0.190 NA
ATOM      5  N   UNL     1       0.035   2.954  26.153  0.00  0.00    -0.056 NA
ATOM     14  C   UNL     1       0.702   1.552  24.588  0.00  0.00    +0.245 A 
ATOM     16  C   UNL     1      -0.709   2.994  25.044  0.00  0.00    +0.205 A 
ENDROOT
BRANCH  16  19
ATOM      7  N   UNL     1      -3.242   2.061  24.160  0.00  0.00    -0.326 N 
ATOM      8  N   UNL     1      -4.153   4.239  24.323  0.00  0.00    -0.240 NA
ATOM     19  C   UNL     1      -1.833   3.872  24.899  0.00  0.00    +0.062 A 
ATOM     21  C   UNL     1      -3.075   3.435  24.470  0.00  0.00    +0.130 A 
ATOM     23  C   UNL     1      -1.686   5.223  25.199  0.00  0.00    +0.016 A 
ATOM     25  C   UNL     1      -2.771   6.081  25.061  0.00  0.00    +0.020 A 
ATOM     26  C   UNL     1      -3.971   5.545  24.624  0.00  0.00    +0.113 A 
ATOM     29  H   UNL     1      -2.588   1.421  24.598  0.00  0.00    +0.148 HD
BRANCH   7  24
ATOM     24  C   UNL     1      -4.483   1.519  23.711  0.00  0.00    +0.131 C 
BRANCH  24  27
ATOM     27  C   UNL     1      -5.279   0.995  24.894  0.00  0.00    +0.178 C 
BRANCH  27   2
ATOM      2  O   UNL     1      -6.344   1.893  25.183  0.00  0.00    -0.381 OA
ATOM     28  C   UNL     1      -6.282   2.361  26.522  0.00  0.00    +0.194 C 
ENDBRANCH  27   2
ENDBRANCH  24  27
ENDBRANCH   7  24
ENDBRANCH  16  19
BRANCH  14   9
ATOM      3  N   UNL     1       0.850  -0.668  23.474  0.00  0.00    -0.287 NA
ATOM      9  C   UNL     1       1.605   0.478  24.016  0.00  0.00    +0.146 C 
ATOM     10  C   UNL     1       2.452   0.983  22.833  0.00  0.00    +0.030 C 
ATOM     11  C   UNL     1       2.153   0.022  21.691  0.00  0.00    +0.017 C 
ATOM     12  C   UNL     1       1.665  -1.228  22.395  0.00  0.00    +0.085 C 
BRANCH   3  13
ATOM     13  C   UNL     1       0.517  -1.666  24.482  0.00  0.00    +0.121 C 
BRANCH  13  15
ATOM      6  N   UNL     1      -2.790  -0.733  26.073  0.00  0.00    -0.263 NA
ATOM     15  C   UNL     1      -0.954  -1.666  24.806  0.00  0.00    -0.015 A 
ATOM     17  C   UNL     1      -1.825  -2.552  24.182  0.00  0.00    +0.008 A 
ATOM     18  C   UNL     1      -1.482  -0.785  25.736  0.00  0.00    +0.115 A 
ATOM     20  C   UNL     1      -3.178  -2.530  24.502  0.00  0.00    +0.020 A 
ATOM     22  C   UNL     1      -3.606  -1.610  25.444  0.00  0.00    +0.111 A 
ENDBRANCH  13  15
ENDBRANCH   3  13
ENDBRANCH  14   9
TORSDOF 7
ENDMDL
MODEL 9
REMARK VINA RESULT:       2.6      1.721      4.656
REMARK  Name = 45783390
REMARK  8 active torsions:
REMARK  status: ('A' for Active; 'I' for Inactive)
REMARK    1  A    between atoms: O_2  and  C_27
REMARK    2  A    between atoms: O_2  and  C_28
REMARK    3  A    between atoms: N_3  and  C_13
REMARK    4  A    between atoms: N_7  and  C_24
REMARK    5  A    between atoms: C_9  and  C_14
REMARK    6  A    between atoms: C_13  and  C_15
REMARK    7  A    between atoms: C_16  and  C_19
REMARK    8  A    between atoms: C_24  and  C_27
REMARK                            x       y       z     vdW  Elec       q    Type
REMARK                         _______ _______ _______ _____ _____    ______ ____
ROOT
ATOM      1  O   UNL     1      -3.249   2.338  23.318  0.00  0.00    -0.336 OA
ATOM      4  N   UNL     1      -2.169   1.116  24.854  0.00  0.00    -0.190 NA
ATOM      5  N   UNL     1      -2.047   1.935  22.722  0.00  0.00    -0.056 NA
ATOM     14  C   UNL     1      -3.240   1.813  24.571  0.00  0.00    +0.245 A 
ATOM     16  C   UNL     1      -1.466   1.219  23.688  0.00  0.00    +0.205 A 
ENDROOT
BRANCH  16  19
ATOM      7  N   UNL     1      -1.069  -1.551  24.179  0.00  0.00    -0.326 N 
ATOM      8  N   UNL     1       1.221  -1.370  23.612  0.00  0.00    -0.240 NA
ATOM     19  C   UNL     1      -0.185   0.595  23.523  0.00  0.00    +0.062 A 
ATOM     21  C   UNL     1       0.026  -0.754  23.758  0.00  0.00    +0.130 A 
ATOM     23  C   UNL     1       0.899   1.362  23.112  0.00  0.00    +0.016 A 
ATOM     25  C   UNL     1       2.144   0.765  22.950  0.00  0.00    +0.020 A 
ATOM     26  C   UNL     1       2.251  -0.591  23.211  0.00  0.00    +0.113 A 
ATOM     29  H   UNL     1      -1.992  -1.201  23.943  0.00  0.00    +0.148 HD
BRANCH   7  24
ATOM     24  C   UNL     1      -0.948  -2.946  24.443  0.00  0.00    +0.131 C 
BRANCH  24  27
ATOM     27  C   UNL     1      -2.324  -3.589  24.489  0.00  0.00    +0.178 C 
BRANCH  27   2
ATOM      2  O   UNL     1      -3.275  -2.638  24.953  0.00  0.00    -0.381 OA
ATOM     28  C   UNL     1      -4.230  -2.323  23.949  0.00  0.00    +0.194 C 
ENDBRANCH  27   2
ENDBRANCH  24  27
ENDBRANCH   7  24
ENDBRANCH  16  19
BRANCH  14   9
ATOM      3  N   UNL     1      -4.927   3.497  25.287  0.00  0.00    -0.287 NA
ATOM      9  C   UNL     1      -4.449   2.109  25.435  0.00  0.00    +0.146 C 
ATOM     10  C   UNL     1      -5.665   1.235  25.074  0.00  0.00    +0.030 C 
ATOM     11  C   UNL     1      -6.793   2.219  24.798  0.00  0.00    +0.017 C 
ATOM     12  C   UNL     1      -6.367   3.468  25.543  0.00  0.00    +0.085 C 
BRANCH   3  13
ATOM     13  C   UNL     1      -4.235   4.439  26.156  0.00  0.00    +0.121 C 
BRANCH  13  15
ATOM      6  N   UNL     1      -0.541   3.613  26.231  0.00  0.00    -0.263 NA
ATOM     15  C   UNL     1      -2.759   4.497  25.858  0.00  0.00    -0.015 A 
ATOM     17  C   UNL     1      -2.243   5.441  24.977  0.00  0.00    +0.008 A 
ATOM     18  C   UNL     1      -1.874   3.614  26.454  0.00  0.00    +0.115 A 
ATOM     20  C   UNL     1      -0.877   5.471  24.722  0.00  0.00    +0.020 A 
ATOM     22  C   UNL     1      -0.076   4.544  25.368  0.00  0.00    +0.111 A 
ENDBRANCH  13  15
ENDBRANCH   3  13
ENDBRANCH  14   9
TORSDOF 7
ENDMDL
MODEL 10
REMARK VINA RESULT:       3.0      1.901      5.170
REMARK  Name = 45783390
REMARK  8 active torsions:
REMARK  status: ('A' for Active; 'I' for Inactive)
REMARK    1  A    between atoms: O_2  and  C_27
REMARK    2  A    between atoms: O_2  and  C_28
REMARK    3  A    between atoms: N_3  and  C_13
REMARK    4  A    between atoms: N_7  and  C_24
REMARK    5  A    between atoms: C_9  and  C_14
REMARK    6  A    between atoms: C_13  and  C_15
REMARK    7  A    between atoms: C_16  and  C_19
REMARK    8  A    between atoms: C_24  and  C_27
REMARK                            x       y       z     vdW  Elec       q    Type
REMARK                         _______ _______ _______ _____ _____    ______ ____
ROOT
ATOM      1  O   UNL     1      -2.714   0.652  22.765  0.00  0.00    -0.336 OA
ATOM      4  N   UNL     1      -4.051   0.475  24.554  0.00  0.00    -0.190 NA
ATOM      5  N   UNL     1      -3.133   1.953  23.070  0.00  0.00    -0.056 NA
ATOM     14  C   UNL     1      -3.300  -0.156  23.687  0.00  0.00    +0.245 A 
ATOM     16  C   UNL     1      -3.917   1.767  24.135  0.00  0.00    +0.205 A 
ENDROOT
BRANCH  16  19
ATOM      7  N   UNL     1      -2.490   3.981  25.199  0.00  0.00    -0.326 N 
ATOM      8  N   UNL     1      -4.501   4.968  25.964  0.00  0.00    -0.240 NA
ATOM     19  C   UNL     1      -4.582   2.848  24.804  0.00  0.00    +0.062 A 
ATOM     21  C   UNL     1      -3.902   3.935  25.328  0.00  0.00    +0.130 A 
ATOM     23  C   UNL     1      -5.965   2.818  24.939  0.00  0.00    +0.016 A 
ATOM     25  C   UNL     1      -6.618   3.862  25.586  0.00  0.00    +0.020 A 
ATOM     26  C   UNL     1      -5.846   4.903  26.076  0.00  0.00    +0.113 A 
ATOM     29  H   UNL     1      -2.093   3.434  24.443  0.00  0.00    +0.148 HD
BRANCH   7  24
ATOM     24  C   UNL     1      -1.706   5.058  25.707  0.00  0.00    +0.131 C 
BRANCH  24  27
ATOM     27  C   UNL     1      -0.847   5.643  24.598  0.00  0.00    +0.178 C 
BRANCH  27   2
ATOM      2  O   UNL     1      -0.437   4.602  23.719  0.00  0.00    -0.381 OA
ATOM     28  C   UNL     1       0.436   5.088  22.709  0.00  0.00    +0.194 C 
ENDBRANCH  27   2
ENDBRANCH  24  27
ENDBRANCH   7  24
ENDBRANCH  16  19
BRANCH  14   9
ATOM      3  N   UNL     1      -2.252  -2.155  24.735  0.00  0.00    -0.287 NA
ATOM      9  C   UNL     1      -3.001  -1.637  23.574  0.00  0.00    +0.146 C 
ATOM     10  C   UNL     1      -4.277  -2.498  23.514  0.00  0.00    +0.030 C 
ATOM     11  C   UNL     1      -4.126  -3.510  24.642  0.00  0.00    +0.017 C 
ATOM     12  C   UNL     1      -2.630  -3.562  24.877  0.00  0.00    +0.085 C 
BRANCH   3  13
ATOM     13  C   UNL     1      -0.811  -1.985  24.612  0.00  0.00    +0.121 C 
BRANCH  13  15
ATOM      6  N   UNL     1      -0.511   1.547  25.945  0.00  0.00    -0.263 NA
ATOM     15  C   UNL     1      -0.406  -0.538  24.725  0.00  0.00    -0.015 A 
ATOM     17  C   UNL     1       0.411   0.054  23.769  0.00  0.00    +0.008 A 
ATOM     18  C   UNL     1      -0.836   0.244  25.784  0.00  0.00    +0.115 A 
ATOM     20  C   UNL     1       0.768   1.391  23.899  0.00  0.00    +0.020 A 
ATOM     22  C   UNL     1       0.285   2.087  24.995  0.00  0.00    +0.111 A 
ENDBRANCH  13  15
ENDBRANCH   3  13
ENDBRANCH  14   9
TORSDOF 7
ENDMDL
