MODEL 1
REMARK VINA RESULT:      -9.3      0.000      0.000
REMARK  Name = 51137955
REMARK  6 active torsions:
REMARK  status: ('A' for Active; 'I' for Inactive)
REMARK    1  A    between atoms: N_3  and  C_5
REMARK    2  A    between atoms: C_9  and  C_13
REMARK    3  A    between atoms: C_10  and  C_16
REMARK    4  A    between atoms: C_13  and  C_17
REMARK    5  A    between atoms: C_17  and  C_22
REMARK    6  A    between atoms: C_17  and  C_23
REMARK                            x       y       z     vdW  Elec       q    Type
REMARK                         _______ _______ _______ _____ _____    ______ ____
ROOT
ATOM      2  N   UNL     1      -1.033   0.055  24.715  0.00  0.00    -0.299 NA
ATOM      4  N   UNL     1      -2.069   4.958  25.341  0.00  0.00    -0.360 N 
ATOM      9  C   UNL     1      -2.498   0.159  24.685  0.00  0.00    +0.085 C 
ATOM     10  C   UNL     1      -0.344   0.883  23.737  0.00  0.00    +0.145 C 
ATOM     11  C   UNL     1       0.130   2.199  24.350  0.00  0.00    +0.065 C 
ATOM     12  C   UNL     1      -3.079   1.532  25.038  0.00  0.00    -0.021 A 
ATOM     14  C   UNL     1      -2.345   2.753  25.054  0.00  0.00    +0.008 A 
ATOM     15  C   UNL     1      -0.979   3.103  24.773  0.00  0.00    -0.020 A 
ATOM     18  C   UNL     1      -3.000   3.946  25.383  0.00  0.00    +0.047 A 
ATOM     19  C   UNL     1      -0.854   4.464  24.970  0.00  0.00    +0.087 A 
ATOM     20  C   UNL     1      -4.469   1.634  25.297  0.00  0.00    +0.006 A 
ATOM     21  C   UNL     1      -4.361   4.019  25.681  0.00  0.00    +0.026 A 
ATOM     24  C   UNL     1      -5.091   2.839  25.619  0.00  0.00    +0.002 A 
ATOM     25  H   UNL     1      -0.676   0.221  25.655  0.00  0.00    +0.123 HD
ATOM     27  H   UNL     1      -2.264   5.929  25.540  0.00  0.00    +0.165 HD
ENDROOT
BRANCH  10  16
ATOM      1  O   UNL     1       0.783  -1.139  23.167  0.00  0.00    -0.274 OA
ATOM      3  N   UNL     1       1.983   0.848  23.101  0.00  0.00    -0.311 N 
ATOM     16  C   UNL     1       0.849   0.081  23.313  0.00  0.00    +0.231 C 
ATOM     26  H   UNL     1       1.917   1.852  23.251  0.00  0.00    +0.149 HD
BRANCH   3   5
ATOM      5  C   UNL     1       3.263   0.262  22.667  0.00  0.00    +0.073 C 
ATOM      6  C   UNL     1       3.858  -0.766  23.651  0.00  0.00    +0.022 C 
ATOM      7  C   UNL     1       4.497   1.141  22.961  0.00  0.00    +0.022 C 
ATOM      8  C   UNL     1       5.240  -0.158  23.332  0.00  0.00    +0.004 C 
ENDBRANCH   3   5
ENDBRANCH  10  16
BRANCH   9  13
ATOM     13  C   UNL     1      -2.987  -0.951  25.633  0.00  0.00    +0.026 C 
BRANCH  13  17
ATOM     17  C   UNL     1      -3.422  -2.221  24.894  0.00  0.00    -0.015 C 
ATOM     22  C   UNL     1      -4.369  -1.929  23.730  0.00  0.00    +0.007 C 
ATOM     23  C   UNL     1      -2.182  -2.955  24.380  0.00  0.00    +0.007 C 
ENDBRANCH  13  17
ENDBRANCH   9  13
TORSDOF 4
ENDMDL
