MODEL 1
REMARK VINA RESULT:      -0.2      0.000      0.000
REMARK  Name = 40780421
REMARK  8 active torsions:
REMARK  status: ('A' for Active; 'I' for Inactive)
REMARK    1  A    between atoms: N_4  and  C_11
REMARK    2  A    between atoms: N_5  and  C_19
REMARK    3  A    between atoms: N_7  and  C_25
REMARK    4  A    between atoms: N_8  and  C_21
REMARK    5  A    between atoms: C_9  and  C_12
REMARK    6  A    between atoms: C_15  and  C_17
REMARK    7  A    between atoms: C_16  and  C_18
REMARK    8  A    between atoms: C_25  and  C_27
REMARK                            x       y       z     vdW  Elec       q    Type
REMARK                         _______ _______ _______ _____ _____    ______ ____
ROOT
ATOM      5  N   UNL     1      -3.505   0.883  25.021  0.00  0.00    -0.234 N 
ATOM      6  N   UNL     1      -3.688  -0.393  24.640  0.00  0.00    -0.171 NA
ATOM     12  C   UNL     1      -1.477   0.179  24.617  0.00  0.00    +0.003 A 
ATOM     15  C   UNL     1      -2.198   1.275  25.025  0.00  0.00    +0.046 A 
ATOM     16  C   UNL     1      -2.446  -0.818  24.395  0.00  0.00    +0.064 A 
ATOM     17  C   UNL     1      -1.760   2.632  25.406  0.00  0.00    +0.066 C 
ATOM     18  C   UNL     1      -2.230  -2.203  23.941  0.00  0.00    +0.068 C 
ENDROOT
BRANCH   5  19
ATOM     19  C   UNL     1      -4.606   1.667  25.367  0.00  0.00    +0.096 A 
ATOM     21  C   UNL     1      -4.836   2.902  24.761  0.00  0.00    +0.151 A 
ATOM     22  C   UNL     1      -5.484   1.194  26.343  0.00  0.00    +0.030 A 
ATOM     23  C   UNL     1      -5.944   3.664  25.131  0.00  0.00    +0.035 A 
ATOM     24  C   UNL     1      -6.593   1.957  26.712  0.00  0.00    +0.002 A 
ATOM     26  C   UNL     1      -6.823   3.192  26.106  0.00  0.00    +0.002 A 
BRANCH  21   8
ATOM      2  O   UNL     1      -3.799   2.760  22.706  0.00  0.00    -0.126 OA
ATOM      3  O   UNL     1      -3.373   4.500  23.974  0.00  0.00    -0.126 OA
ATOM      8  N   UNL     1      -3.958   3.413  23.762  0.00  0.00    +0.059 N 
ENDBRANCH  21   8
ENDBRANCH   5  19
BRANCH  12   9
ATOM      9  C   UNL     1       0.021   0.072  24.446  0.00  0.00    +0.047 C 
ATOM     10  C   UNL     1       0.437  -0.654  23.151  0.00  0.00    +0.039 C 
ATOM     11  C   UNL     1       1.728   0.029  22.683  0.00  0.00    +0.098 C 
ATOM     13  C   UNL     1       0.734   1.387  24.322  0.00  0.00    -0.021 C 
ATOM     14  C   UNL     1       1.665   1.358  23.364  0.00  0.00    -0.009 C 
BRANCH  11   4
ATOM      1  O   UNL     1       4.320   1.178  23.225  0.00  0.00    -0.253 OA
ATOM      4  N   UNL     1       2.912  -0.666  23.114  0.00  0.00    -0.293 N 
ATOM      7  N   UNL     1       5.108  -0.938  23.760  0.00  0.00    -0.300 N 
ATOM     20  C   UNL     1       4.132  -0.031  23.355  0.00  0.00    +0.300 C 
ATOM     28  H   UNL     1       2.879  -1.678  23.205  0.00  0.00    +0.151 HD
ATOM     29  H   UNL     1       4.857  -1.918  23.850  0.00  0.00    +0.150 HD
BRANCH   7  25
ATOM     25  C   UNL     1       6.460  -0.543  24.074  0.00  0.00    +0.102 C 
ATOM     27  C   UNL     1       7.347  -0.574  22.846  0.00  0.00    +0.024 C 
ENDBRANCH   7  25
ENDBRANCH  11   4
ENDBRANCH  12   9
TORSDOF 5
ENDMDL
MODEL 2
REMARK VINA RESULT:       0.7      1.533      1.786
REMARK  Name = 40780421
REMARK  8 active torsions:
REMARK  status: ('A' for Active; 'I' for Inactive)
REMARK    1  A    between atoms: N_4  and  C_11
REMARK    2  A    between atoms: N_5  and  C_19
REMARK    3  A    between atoms: N_7  and  C_25
REMARK    4  A    between atoms: N_8  and  C_21
REMARK    5  A    between atoms: C_9  and  C_12
REMARK    6  A    between atoms: C_15  and  C_17
REMARK    7  A    between atoms: C_16  and  C_18
REMARK    8  A    between atoms: C_25  and  C_27
REMARK                            x       y       z     vdW  Elec       q    Type
REMARK                         _______ _______ _______ _____ _____    ______ ____
ROOT
ATOM      5  N   UNL     1      -2.838   1.121  24.850  0.00  0.00    -0.234 N 
ATOM      6  N   UNL     1      -2.538   0.005  25.536  0.00  0.00    -0.171 NA
ATOM     12  C   UNL     1      -0.821   0.631  24.167  0.00  0.00    +0.003 A 
ATOM     15  C   UNL     1      -1.841   1.538  24.016  0.00  0.00    +0.046 A 
ATOM     16  C   UNL     1      -1.306  -0.290  25.114  0.00  0.00    +0.064 A 
ATOM     17  C   UNL     1      -1.948   2.739  23.163  0.00  0.00    +0.066 C 
ATOM     18  C   UNL     1      -0.622  -1.480  25.652  0.00  0.00    +0.068 C 
ENDROOT
BRANCH   5  19
ATOM     19  C   UNL     1      -4.076   1.736  25.034  0.00  0.00    +0.096 A 
ATOM     21  C   UNL     1      -4.173   3.037  25.527  0.00  0.00    +0.151 A 
ATOM     22  C   UNL     1      -5.232   1.022  24.716  0.00  0.00    +0.030 A 
ATOM     23  C   UNL     1      -5.427   3.624  25.703  0.00  0.00    +0.035 A 
ATOM     24  C   UNL     1      -6.485   1.610  24.891  0.00  0.00    +0.002 A 
ATOM     26  C   UNL     1      -6.583   2.911  25.385  0.00  0.00    +0.002 A 
BRANCH  21   8
ATOM      2  O   UNL     1      -2.346   3.459  26.869  0.00  0.00    -0.126 OA
ATOM      3  O   UNL     1      -2.697   4.764  25.140  0.00  0.00    -0.126 OA
ATOM      8  N   UNL     1      -3.013   3.792  25.863  0.00  0.00    +0.059 N 
ENDBRANCH  21   8
ENDBRANCH   5  19
BRANCH  12   9
ATOM      9  C   UNL     1       0.520   0.626  23.469  0.00  0.00    +0.047 C 
ATOM     10  C   UNL     1       1.498  -0.424  24.035  0.00  0.00    +0.039 C 
ATOM     11  C   UNL     1       2.321  -0.917  22.838  0.00  0.00    +0.098 C 
ATOM     13  C   UNL     1       0.468   0.266  22.013  0.00  0.00    -0.021 C 
ATOM     14  C   UNL     1       1.453  -0.571  21.673  0.00  0.00    -0.009 C 
BRANCH  11   4
ATOM      1  O   UNL     1       4.792  -1.548  24.192  0.00  0.00    -0.253 OA
ATOM      4  N   UNL     1       3.580  -0.232  22.709  0.00  0.00    -0.293 N 
ATOM      7  N   UNL     1       5.806   0.227  23.093  0.00  0.00    -0.300 N 
ATOM     20  C   UNL     1       4.733  -0.604  23.404  0.00  0.00    +0.300 C 
ATOM     28  H   UNL     1       3.629   0.594  22.119  0.00  0.00    +0.151 HD
ATOM     29  H   UNL     1       5.667   0.974  22.421  0.00  0.00    +0.150 HD
BRANCH   7  25
ATOM     25  C   UNL     1       7.117   0.061  23.674  0.00  0.00    +0.102 C 
ATOM     27  C   UNL     1       8.053  -0.669  22.733  0.00  0.00    +0.024 C 
ENDBRANCH   7  25
ENDBRANCH  11   4
ENDBRANCH  12   9
TORSDOF 5
ENDMDL
MODEL 3
REMARK VINA RESULT:       1.4      1.987      2.752
REMARK  Name = 40780421
REMARK  8 active torsions:
REMARK  status: ('A' for Active; 'I' for Inactive)
REMARK    1  A    between atoms: N_4  and  C_11
REMARK    2  A    between atoms: N_5  and  C_19
REMARK    3  A    between atoms: N_7  and  C_25
REMARK    4  A    between atoms: N_8  and  C_21
REMARK    5  A    between atoms: C_9  and  C_12
REMARK    6  A    between atoms: C_15  and  C_17
REMARK    7  A    between atoms: C_16  and  C_18
REMARK    8  A    between atoms: C_25  and  C_27
REMARK                            x       y       z     vdW  Elec       q    Type
REMARK                         _______ _______ _______ _____ _____    ______ ____
ROOT
ATOM      5  N   UNL     1      -2.580   2.088  25.097  0.00  0.00    -0.234 N 
ATOM      6  N   UNL     1      -1.846   2.408  26.176  0.00  0.00    -0.171 NA
ATOM     12  C   UNL     1      -0.526   1.750  24.433  0.00  0.00    +0.003 A 
ATOM     15  C   UNL     1      -1.836   1.688  24.025  0.00  0.00    +0.046 A 
ATOM     16  C   UNL     1      -0.593   2.199  25.765  0.00  0.00    +0.064 A 
ATOM     17  C   UNL     1      -2.428   1.288  22.732  0.00  0.00    +0.066 C 
ATOM     18  C   UNL     1       0.525   2.444  26.694  0.00  0.00    +0.068 C 
ENDROOT
BRANCH   5  19
ATOM     19  C   UNL     1      -3.970   2.187  25.150  0.00  0.00    +0.096 A 
ATOM     21  C   UNL     1      -4.779   1.050  25.142  0.00  0.00    +0.151 A 
ATOM     22  C   UNL     1      -4.550   3.455  25.210  0.00  0.00    +0.030 A 
ATOM     23  C   UNL     1      -6.166   1.181  25.193  0.00  0.00    +0.035 A 
ATOM     24  C   UNL     1      -5.938   3.585  25.261  0.00  0.00    +0.002 A 
ATOM     26  C   UNL     1      -6.747   2.449  25.253  0.00  0.00    +0.002 A 
BRANCH  21   8
ATOM      2  O   UNL     1      -3.593  -0.695  26.073  0.00  0.00    -0.126 OA
ATOM      3  O   UNL     1      -4.369  -0.929  24.034  0.00  0.00    -0.126 OA
ATOM      8  N   UNL     1      -4.219  -0.258  25.080  0.00  0.00    +0.059 N 
ENDBRANCH  21   8
ENDBRANCH   5  19
BRANCH  12   9
ATOM      9  C   UNL     1       0.707   1.409  23.629  0.00  0.00    +0.047 C 
ATOM     10  C   UNL     1       1.614   0.366  24.314  0.00  0.00    +0.039 C 
ATOM     11  C   UNL     1       2.217  -0.474  23.181  0.00  0.00    +0.098 C 
ATOM     13  C   UNL     1       0.433   0.772  22.297  0.00  0.00    -0.021 C 
ATOM     14  C   UNL     1       1.260  -0.250  22.057  0.00  0.00    -0.009 C 
BRANCH  11   4
ATOM      1  O   UNL     1       4.750  -1.272  24.312  0.00  0.00    -0.253 OA
ATOM      4  N   UNL     1       3.524  -0.019  22.787  0.00  0.00    -0.293 N 
ATOM      7  N   UNL     1       5.823   0.141  22.816  0.00  0.00    -0.300 N 
ATOM     20  C   UNL     1       4.705  -0.458  23.390  0.00  0.00    +0.300 C 
ATOM     28  H   UNL     1       3.597   0.692  22.065  0.00  0.00    +0.151 HD
ATOM     29  H   UNL     1       5.689   0.793  22.050  0.00  0.00    +0.150 HD
BRANCH   7  25
ATOM     25  C   UNL     1       7.170  -0.138  23.253  0.00  0.00    +0.102 C 
ATOM     27  C   UNL     1       7.813  -1.221  22.412  0.00  0.00    +0.024 C 
ENDBRANCH   7  25
ENDBRANCH  11   4
ENDBRANCH  12   9
TORSDOF 5
ENDMDL
MODEL 4
REMARK VINA RESULT:       1.5      1.570      2.039
REMARK  Name = 40780421
REMARK  8 active torsions:
REMARK  status: ('A' for Active; 'I' for Inactive)
REMARK    1  A    between atoms: N_4  and  C_11
REMARK    2  A    between atoms: N_5  and  C_19
REMARK    3  A    between atoms: N_7  and  C_25
REMARK    4  A    between atoms: N_8  and  C_21
REMARK    5  A    between atoms: C_9  and  C_12
REMARK    6  A    between atoms: C_15  and  C_17
REMARK    7  A    between atoms: C_16  and  C_18
REMARK    8  A    between atoms: C_25  and  C_27
REMARK                            x       y       z     vdW  Elec       q    Type
REMARK                         _______ _______ _______ _____ _____    ______ ____
ROOT
ATOM      5  N   UNL     1      -3.333   2.044  24.967  0.00  0.00    -0.234 N 
ATOM      6  N   UNL     1      -3.717   0.756  24.950  0.00  0.00    -0.171 NA
ATOM     12  C   UNL     1      -1.458   0.959  24.685  0.00  0.00    +0.003 A 
ATOM     15  C   UNL     1      -1.989   2.220  24.812  0.00  0.00    +0.046 A 
ATOM     16  C   UNL     1      -2.568   0.099  24.777  0.00  0.00    +0.064 A 
ATOM     17  C   UNL     1      -1.341   3.547  24.797  0.00  0.00    +0.066 C 
ATOM     18  C   UNL     1      -2.580  -1.373  24.703  0.00  0.00    +0.068 C 
ENDROOT
BRANCH   5  19
ATOM     19  C   UNL     1      -4.286   3.049  25.134  0.00  0.00    +0.096 A 
ATOM     21  C   UNL     1      -5.600   2.751  25.494  0.00  0.00    +0.151 A 
ATOM     22  C   UNL     1      -3.902   4.375  24.931  0.00  0.00    +0.030 A 
ATOM     23  C   UNL     1      -6.531   3.778  25.650  0.00  0.00    +0.035 A 
ATOM     24  C   UNL     1      -4.834   5.403  25.089  0.00  0.00    +0.002 A 
ATOM     26  C   UNL     1      -6.148   5.104  25.448  0.00  0.00    +0.002 A 
BRANCH  21   8
ATOM      2  O   UNL     1      -6.165   0.998  26.882  0.00  0.00    -0.126 OA
ATOM      3  O   UNL     1      -6.241   0.679  24.711  0.00  0.00    -0.126 OA
ATOM      8  N   UNL     1      -6.024   1.407  25.706  0.00  0.00    +0.059 N 
ENDBRANCH  21   8
ENDBRANCH   5  19
BRANCH  12   9
ATOM      9  C   UNL     1      -0.007   0.585  24.487  0.00  0.00    +0.047 C 
ATOM     10  C   UNL     1       0.223  -0.352  23.284  0.00  0.00    +0.039 C 
ATOM     11  C   UNL     1       1.584   0.046  22.698  0.00  0.00    +0.098 C 
ATOM     13  C   UNL     1       0.902   1.738  24.177  0.00  0.00    -0.021 C 
ATOM     14  C   UNL     1       1.769   1.439  23.206  0.00  0.00    -0.009 C 
BRANCH  11   4
ATOM      1  O   UNL     1       4.284   0.877  23.291  0.00  0.00    -0.253 OA
ATOM      4  N   UNL     1       2.660  -0.780  23.181  0.00  0.00    -0.293 N 
ATOM      7  N   UNL     1       4.786  -1.305  23.900  0.00  0.00    -0.300 N 
ATOM     20  C   UNL     1       3.943  -0.295  23.444  0.00  0.00    +0.300 C 
ATOM     28  H   UNL     1       2.497  -1.776  23.296  0.00  0.00    +0.151 HD
ATOM     29  H   UNL     1       4.412  -2.243  24.006  0.00  0.00    +0.150 HD
BRANCH   7  25
ATOM     25  C   UNL     1       6.168  -1.074  24.245  0.00  0.00    +0.102 C 
ATOM     27  C   UNL     1       6.922  -0.418  23.107  0.00  0.00    +0.024 C 
ENDBRANCH   7  25
ENDBRANCH  11   4
ENDBRANCH  12   9
TORSDOF 5
ENDMDL
MODEL 5
REMARK VINA RESULT:       2.2      1.271      1.590
REMARK  Name = 40780421
REMARK  8 active torsions:
REMARK  status: ('A' for Active; 'I' for Inactive)
REMARK    1  A    between atoms: N_4  and  C_11
REMARK    2  A    between atoms: N_5  and  C_19
REMARK    3  A    between atoms: N_7  and  C_25
REMARK    4  A    between atoms: N_8  and  C_21
REMARK    5  A    between atoms: C_9  and  C_12
REMARK    6  A    between atoms: C_15  and  C_17
REMARK    7  A    between atoms: C_16  and  C_18
REMARK    8  A    between atoms: C_25  and  C_27
REMARK                            x       y       z     vdW  Elec       q    Type
REMARK                         _______ _______ _______ _____ _____    ______ ____
ROOT
ATOM      5  N   UNL     1      -3.206   1.560  24.350  0.00  0.00    -0.234 N 
ATOM      6  N   UNL     1      -3.218   1.578  23.006  0.00  0.00    -0.171 NA
ATOM     12  C   UNL     1      -1.154   1.032  23.818  0.00  0.00    +0.003 A 
ATOM     15  C   UNL     1      -1.993   1.238  24.886  0.00  0.00    +0.046 A 
ATOM     16  C   UNL     1      -1.962   1.256  22.687  0.00  0.00    +0.064 A 
ATOM     17  C   UNL     1      -1.745   1.158  26.339  0.00  0.00    +0.066 C 
ATOM     18  C   UNL     1      -1.573   1.174  21.268  0.00  0.00    +0.068 C 
ENDROOT
BRANCH   5  19
ATOM     19  C   UNL     1      -4.373   1.854  25.057  0.00  0.00    +0.096 A 
ATOM     21  C   UNL     1      -4.630   3.141  25.529  0.00  0.00    +0.151 A 
ATOM     22  C   UNL     1      -5.289   0.828  25.290  0.00  0.00    +0.030 A 
ATOM     23  C   UNL     1      -5.804   3.402  26.235  0.00  0.00    +0.035 A 
ATOM     24  C   UNL     1      -6.464   1.091  25.997  0.00  0.00    +0.002 A 
ATOM     26  C   UNL     1      -6.721   2.378  26.469  0.00  0.00    +0.002 A 
BRANCH  21   8
ATOM      2  O   UNL     1      -2.903   4.506  26.216  0.00  0.00    -0.126 OA
ATOM      3  O   UNL     1      -3.748   4.816  24.214  0.00  0.00    -0.126 OA
ATOM      8  N   UNL     1      -3.714   4.209  25.308  0.00  0.00    +0.059 N 
ENDBRANCH  21   8
ENDBRANCH   5  19
BRANCH  12   9
ATOM      9  C   UNL     1       0.308   0.653  23.854  0.00  0.00    +0.047 C 
ATOM     10  C   UNL     1       0.719  -0.303  22.716  0.00  0.00    +0.039 C 
ATOM     11  C   UNL     1       2.156   0.084  22.342  0.00  0.00    +0.098 C 
ATOM     13  C   UNL     1       1.259   1.800  23.670  0.00  0.00    -0.021 C 
ATOM     14  C   UNL     1       2.265   1.484  22.849  0.00  0.00    -0.009 C 
BRANCH  11   4
ATOM      1  O   UNL     1       4.823   0.862  23.126  0.00  0.00    -0.253 OA
ATOM      4  N   UNL     1       3.141  -0.735  22.998  0.00  0.00    -0.293 N 
ATOM      7  N   UNL     1       5.161  -1.274  23.968  0.00  0.00    -0.300 N 
ATOM     20  C   UNL     1       4.414  -0.278  23.344  0.00  0.00    +0.300 C 
ATOM     28  H   UNL     1       2.922  -1.710  23.181  0.00  0.00    +0.151 HD
ATOM     29  H   UNL     1       4.736  -2.183  24.116  0.00  0.00    +0.150 HD
BRANCH   7  25
ATOM     25  C   UNL     1       6.513  -1.064  24.427  0.00  0.00    +0.102 C 
ATOM     27  C   UNL     1       7.399  -0.529  23.321  0.00  0.00    +0.024 C 
ENDBRANCH   7  25
ENDBRANCH  11   4
ENDBRANCH  12   9
TORSDOF 5
ENDMDL
MODEL 6
REMARK VINA RESULT:       2.7      1.787      2.277
REMARK  Name = 40780421
REMARK  8 active torsions:
REMARK  status: ('A' for Active; 'I' for Inactive)
REMARK    1  A    between atoms: N_4  and  C_11
REMARK    2  A    between atoms: N_5  and  C_19
REMARK    3  A    between atoms: N_7  and  C_25
REMARK    4  A    between atoms: N_8  and  C_21
REMARK    5  A    between atoms: C_9  and  C_12
REMARK    6  A    between atoms: C_15  and  C_17
REMARK    7  A    between atoms: C_16  and  C_18
REMARK    8  A    between atoms: C_25  and  C_27
REMARK                            x       y       z     vdW  Elec       q    Type
REMARK                         _______ _______ _______ _____ _____    ______ ____
ROOT
ATOM      5  N   UNL     1      -2.992   1.816  24.194  0.00  0.00    -0.234 N 
ATOM      6  N   UNL     1      -2.987   1.769  22.851  0.00  0.00    -0.171 NA
ATOM     12  C   UNL     1      -0.943   1.228  23.714  0.00  0.00    +0.003 A 
ATOM     15  C   UNL     1      -1.791   1.499  24.760  0.00  0.00    +0.046 A 
ATOM     16  C   UNL     1      -1.733   1.411  22.564  0.00  0.00    +0.064 A 
ATOM     17  C   UNL     1      -1.562   1.485  26.219  0.00  0.00    +0.066 C 
ATOM     18  C   UNL     1      -1.329   1.253  21.155  0.00  0.00    +0.068 C 
ENDROOT
BRANCH   5  19
ATOM     19  C   UNL     1      -4.161   2.163  24.871  0.00  0.00    +0.096 A 
ATOM     21  C   UNL     1      -5.020   1.189  25.381  0.00  0.00    +0.151 A 
ATOM     22  C   UNL     1      -4.466   3.515  25.030  0.00  0.00    +0.030 A 
ATOM     23  C   UNL     1      -6.184   1.568  26.051  0.00  0.00    +0.035 A 
ATOM     24  C   UNL     1      -5.630   3.893  25.700  0.00  0.00    +0.002 A 
ATOM     26  C   UNL     1      -6.489   2.920  26.211  0.00  0.00    +0.002 A 
BRANCH  21   8
ATOM      2  O   UNL     1      -5.113  -0.784  24.192  0.00  0.00    -0.126 OA
ATOM      3  O   UNL     1      -4.125  -0.790  26.152  0.00  0.00    -0.126 OA
ATOM      8  N   UNL     1      -4.738  -0.199  25.234  0.00  0.00    +0.059 N 
ENDBRANCH  21   8
ENDBRANCH   5  19
BRANCH  12   9
ATOM      9  C   UNL     1       0.512   0.826  23.787  0.00  0.00    +0.047 C 
ATOM     10  C   UNL     1       0.900  -0.251  22.754  0.00  0.00    +0.039 C 
ATOM     11  C   UNL     1       2.343   0.067  22.339  0.00  0.00    +0.098 C 
ATOM     13  C   UNL     1       1.484   1.930  23.483  0.00  0.00    -0.021 C 
ATOM     14  C   UNL     1       2.480   1.510  22.698  0.00  0.00    -0.009 C 
BRANCH  11   4
ATOM      1  O   UNL     1       5.023   0.875  23.043  0.00  0.00    -0.253 OA
ATOM      4  N   UNL     1       3.314  -0.698  23.076  0.00  0.00    -0.293 N 
ATOM      7  N   UNL     1       5.326  -1.171  24.096  0.00  0.00    -0.300 N 
ATOM     20  C   UNL     1       4.595  -0.230  23.375  0.00  0.00    +0.300 C 
ATOM     28  H   UNL     1       3.079  -1.646  23.357  0.00  0.00    +0.151 HD
ATOM     29  H   UNL     1       4.885  -2.053  24.336  0.00  0.00    +0.150 HD
BRANCH   7  25
ATOM     25  C   UNL     1       6.682  -0.939  24.534  0.00  0.00    +0.102 C 
ATOM     27  C   UNL     1       7.566  -0.493  23.388  0.00  0.00    +0.024 C 
ENDBRANCH   7  25
ENDBRANCH  11   4
ENDBRANCH  12   9
TORSDOF 5
ENDMDL
