MODEL 1
REMARK VINA RESULT:      -1.5      0.000      0.000
REMARK  Name = 51137905
REMARK  3 active torsions:
REMARK  status: ('A' for Active; 'I' for Inactive)
REMARK    1  A    between atoms: N_4  and  C_14
REMARK    2  A    between atoms: C_6  and  C_10
REMARK    3  A    between atoms: C_11  and  C_15
REMARK                            x       y       z     vdW  Elec       q    Type
REMARK                         _______ _______ _______ _____ _____    ______ ____
ROOT
ATOM      2  O   UNL     1       1.360  -0.671  21.047  0.00  0.00    -0.270 OA
ATOM      3  N   UNL     1       0.474  -0.786  23.191  0.00  0.00    -0.297 N 
ATOM      6  C   UNL     1      -0.896  -0.517  25.119  0.00  0.00    +0.074 C 
ATOM      7  C   UNL     1      -1.646  -1.343  24.063  0.00  0.00    +0.032 C 
ATOM      8  C   UNL     1       0.559  -0.643  24.646  0.00  0.00    +0.119 C 
ATOM      9  C   UNL     1      -0.892  -1.060  22.772  0.00  0.00    +0.109 C 
ATOM     11  C   UNL     1       1.494  -0.614  22.268  0.00  0.00    +0.247 C 
ENDROOT
BRANCH   6  10
ATOM      4  N   UNL     1      -2.798   1.144  25.259  0.00  0.00    -0.330 N 
ATOM      5  N   UNL     1      -0.746   1.997  25.301  0.00  0.00    -0.232 NA
ATOM     10  C   UNL     1      -1.453   0.892  25.227  0.00  0.00    +0.115 A 
ATOM     12  C   UNL     1      -2.967   2.500  25.360  0.00  0.00    +0.069 A 
ATOM     13  C   UNL     1      -1.673   3.011  25.385  0.00  0.00    +0.089 A 
ATOM     14  C   UNL     1      -3.853   0.158  25.198  0.00  0.00    +0.150 C 
ATOM     16  C   UNL     1      -4.109   3.300  25.431  0.00  0.00    +0.028 A 
ATOM     17  C   UNL     1      -1.486   4.400  25.485  0.00  0.00    +0.030 A 
ATOM     18  C   UNL     1      -3.905   4.680  25.530  0.00  0.00    +0.002 A 
ATOM     19  C   UNL     1      -2.617   5.222  25.556  0.00  0.00    +0.002 A 
ENDBRANCH   6  10
BRANCH  11  15
ATOM      1  F   UNL     1       6.617   0.485  24.246  0.00  0.00    -0.205 F 
ATOM     15  C   UNL     1       2.839  -0.325  22.788  0.00  0.00    +0.037 A 
ATOM     20  C   UNL     1       3.557  -1.318  23.456  0.00  0.00    +0.016 A 
ATOM     21  C   UNL     1       3.398   0.941  22.614  0.00  0.00    +0.016 A 
ATOM     22  C   UNL     1       4.833  -1.045  23.948  0.00  0.00    +0.039 A 
ATOM     23  C   UNL     1       4.673   1.214  23.106  0.00  0.00    +0.039 A 
ATOM     24  C   UNL     1       5.390   0.221  23.774  0.00  0.00    +0.123 A 
ENDBRANCH  11  15
TORSDOF 2
ENDMDL
MODEL 2
REMARK VINA RESULT:      -0.4      0.757      1.625
REMARK  Name = 51137905
REMARK  3 active torsions:
REMARK  status: ('A' for Active; 'I' for Inactive)
REMARK    1  A    between atoms: N_4  and  C_14
REMARK    2  A    between atoms: C_6  and  C_10
REMARK    3  A    between atoms: C_11  and  C_15
REMARK                            x       y       z     vdW  Elec       q    Type
REMARK                         _______ _______ _______ _____ _____    ______ ____
ROOT
ATOM      2  O   UNL     1       0.924  -1.084  21.306  0.00  0.00    -0.270 OA
ATOM      3  N   UNL     1       0.178  -0.759  23.482  0.00  0.00    -0.297 N 
ATOM      6  C   UNL     1      -1.073  -0.108  25.398  0.00  0.00    +0.074 C 
ATOM      7  C   UNL     1      -1.868  -1.144  24.590  0.00  0.00    +0.032 C 
ATOM      8  C   UNL     1       0.352  -0.315  24.866  0.00  0.00    +0.119 C 
ATOM      9  C   UNL     1      -1.204  -1.128  23.220  0.00  0.00    +0.109 C 
ATOM     11  C   UNL     1       1.133  -0.772  22.477  0.00  0.00    +0.247 C 
ENDROOT
BRANCH   6  10
ATOM      4  N   UNL     1      -0.964   2.409  25.610  0.00  0.00    -0.330 N 
ATOM      5  N   UNL     1      -2.849   1.576  24.778  0.00  0.00    -0.232 NA
ATOM     10  C   UNL     1      -1.657   1.287  25.250  0.00  0.00    +0.115 A 
ATOM     12  C   UNL     1      -1.761   3.494  25.353  0.00  0.00    +0.069 A 
ATOM     13  C   UNL     1      -2.933   2.948  24.834  0.00  0.00    +0.089 A 
ATOM     14  C   UNL     1       0.372   2.449  26.162  0.00  0.00    +0.150 C 
ATOM     16  C   UNL     1      -1.565   4.865  25.524  0.00  0.00    +0.028 A 
ATOM     17  C   UNL     1      -3.981   3.806  24.459  0.00  0.00    +0.030 A 
ATOM     18  C   UNL     1      -2.618   5.704  25.146  0.00  0.00    +0.002 A 
ATOM     19  C   UNL     1      -3.805   5.185  24.623  0.00  0.00    +0.002 A 
ENDBRANCH   6  10
BRANCH  11  15
ATOM      1  F   UNL     1       6.342   0.771  23.836  0.00  0.00    -0.205 F 
ATOM     15  C   UNL     1       2.501  -0.366  22.834  0.00  0.00    +0.037 A 
ATOM     20  C   UNL     1       3.337  -1.254  23.512  0.00  0.00    +0.016 A 
ATOM     21  C   UNL     1       2.963   0.905  22.495  0.00  0.00    +0.016 A 
ATOM     22  C   UNL     1       4.634  -0.870  23.851  0.00  0.00    +0.039 A 
ATOM     23  C   UNL     1       4.260   1.289  22.833  0.00  0.00    +0.039 A 
ATOM     24  C   UNL     1       5.095   0.402  23.512  0.00  0.00    +0.123 A 
ENDBRANCH  11  15
TORSDOF 2
ENDMDL
