MODEL 1
REMARK VINA RESULT:      -2.0      0.000      0.000
REMARK  Name = 51137379
REMARK  5 active torsions:
REMARK  status: ('A' for Active; 'I' for Inactive)
REMARK    1  A    between atoms: N_3  and  C_8
REMARK    2  A    between atoms: C_10  and  C_17
REMARK    3  A    between atoms: C_18  and  C_20
REMARK    4  A    between atoms: C_19  and  C_21
REMARK    5  A    between atoms: C_21  and  C_22
REMARK                            x       y       z     vdW  Elec       q    Type
REMARK                         _______ _______ _______ _____ _____    ______ ____
ROOT
ATOM      1  O   UNL     1      -3.443   1.543  24.775  0.00  0.00    -0.424 OA
ATOM      5  N   UNL     1      -4.332   3.569  25.105  0.00  0.00    -0.112 NA
ATOM      6  N   UNL     1      -5.352   2.640  25.177  0.00  0.00    -0.112 NA
ATOM     17  C   UNL     1      -3.237   2.885  24.869  0.00  0.00    +0.222 A 
ATOM     19  C   UNL     1      -4.787   1.471  24.978  0.00  0.00    +0.222 A 
ENDROOT
BRANCH  17  10
ATOM      3  N   UNL     1       0.314   2.693  23.987  0.00  0.00    -0.299 NA
ATOM      9  C   UNL     1      -1.082   2.669  23.545  0.00  0.00    +0.097 C 
ATOM     10  C   UNL     1      -1.817   3.371  24.695  0.00  0.00    +0.092 C 
ATOM     11  C   UNL     1       0.266   2.343  25.406  0.00  0.00    +0.085 C 
ATOM     12  C   UNL     1      -0.909   3.166  25.920  0.00  0.00    +0.029 C 
BRANCH   3   8
ATOM      2  O   UNL     1       4.151  -2.110  23.965  0.00  0.00    -0.276 OA
ATOM      4  N   UNL     1       3.338  -0.119  23.088  0.00  0.00    -0.302 N 
ATOM      8  C   UNL     1       1.159   1.783  23.218  0.00  0.00    +0.060 C 
ATOM     13  C   UNL     1       2.624   2.232  23.295  0.00  0.00    +0.038 C 
ATOM     14  C   UNL     1       1.009   0.351  23.748  0.00  0.00    +0.038 C 
ATOM     15  C   UNL     1       3.540   1.242  22.577  0.00  0.00    +0.109 C 
ATOM     16  C   UNL     1       1.956  -0.601  23.020  0.00  0.00    +0.109 C 
ATOM     18  C   UNL     1       4.341  -0.956  23.574  0.00  0.00    +0.212 C 
ATOM     20  C   UNL     1       5.736  -0.385  23.615  0.00  0.00    +0.109 C 
ENDBRANCH   3   8
ENDBRANCH  17  10
BRANCH  19  21
ATOM     21  C   UNL     1      -5.392   0.133  24.949  0.00  0.00    +0.135 C 
BRANCH  21  22
ATOM      7  N   UNL     1      -3.594  -2.821  23.638  0.00  0.00    -0.360 N 
ATOM     22  C   UNL     1      -4.434  -0.993  24.575  0.00  0.00    -0.013 A 
ATOM     23  C   UNL     1      -3.107  -1.170  25.057  0.00  0.00    +0.003 A 
ATOM     24  C   UNL     1      -4.705  -2.023  23.704  0.00  0.00    +0.087 A 
ATOM     25  C   UNL     1      -2.602  -2.324  24.454  0.00  0.00    +0.047 A 
ATOM     26  C   UNL     1      -2.283  -0.458  25.952  0.00  0.00    +0.010 A 
ATOM     27  C   UNL     1      -1.312  -2.804  24.701  0.00  0.00    +0.026 A 
ATOM     28  C   UNL     1      -0.989  -0.926  26.209  0.00  0.00    +0.001 A 
ATOM     29  C   UNL     1      -0.512  -2.081  25.592  0.00  0.00    +0.002 A 
ATOM     30  H   UNL     1      -3.513  -3.654  23.072  0.00  0.00    +0.165 HD
ENDBRANCH  21  22
ENDBRANCH  19  21
TORSDOF 4
ENDMDL
