MODEL 1
REMARK VINA RESULT:       1.2      0.000      0.000
REMARK  Name = 45361421
REMARK  16 active torsions:
REMARK  status: ('A' for Active; 'I' for Inactive)
REMARK    1  A    between atoms: O_1  and  C_10
REMARK    2  A    between atoms: O_4  and  C_34
REMARK    3  A    between atoms: O_4  and  C_35
REMARK    4  A    between atoms: N_5  and  C_14
REMARK    5  A    between atoms: N_6  and  C_25
REMARK    6  A    between atoms: C_7  and  C_17
REMARK    7  A    between atoms: C_9  and  C_19
REMARK    8  A    between atoms: C_13  and  C_18
REMARK    9  A    between atoms: C_18  and  C_20
REMARK   10  A    between atoms: C_18  and  C_21
REMARK   11  A    between atoms: C_22  and  C_23
REMARK   12  A    between atoms: C_23  and  C_24
REMARK   13  A    between atoms: C_24  and  C_26
REMARK   14  A    between atoms: C_24  and  C_27
REMARK   15  A    between atoms: C_24  and  C_28
REMARK   16  A    between atoms: C_25  and  C_29
REMARK                            x       y       z     vdW  Elec       q    Type
REMARK                         _______ _______ _______ _____ _____    ______ ____
ROOT
ATOM      7  C   UNL     1      -2.192  -1.011  25.086  0.00  0.00    -0.027 C 
ATOM      8  C   UNL     1      -2.242   0.221  24.122  0.00  0.00    +0.028 C 
ATOM      9  C   UNL     1      -0.818   0.866  23.966  0.00  0.00    +0.012 C 
ATOM     10  C   UNL     1      -3.381   1.204  24.520  0.00  0.00    +0.122 C 
ATOM     11  C   UNL     1      -3.583  -1.689  25.127  0.00  0.00    +0.007 C 
ATOM     12  C   UNL     1      -1.182  -2.043  24.534  0.00  0.00    +0.009 C 
ATOM     13  C   UNL     1      -4.751   0.500  24.663  0.00  0.00    +0.029 C 
ATOM     14  C   UNL     1       0.205  -0.199  23.482  0.00  0.00    +0.076 C 
ATOM     15  C   UNL     1      -4.694  -0.739  25.556  0.00  0.00    +0.007 C 
ATOM     16  C   UNL     1       0.213  -1.467  24.336  0.00  0.00    +0.023 C 
ATOM     17  C   UNL     1      -1.786  -0.620  26.529  0.00  0.00    +0.011 C 
ATOM     19  C   UNL     1      -0.788   2.068  23.007  0.00  0.00    +0.010 C 
ENDROOT
BRANCH  14   5
ATOM      3  O   UNL     1       2.115  -0.427  21.317  0.00  0.00    -0.276 OA
ATOM      5  N   UNL     1       1.552   0.332  23.439  0.00  0.00    -0.312 N 
ATOM     22  C   UNL     1       2.393   0.170  22.354  0.00  0.00    +0.214 C 
ATOM     36  H   UNL     1       1.894   0.813  24.265  0.00  0.00    +0.149 HD
BRANCH  22  23
ATOM     23  C   UNL     1       3.756   0.814  22.560  0.00  0.00    +0.102 C 
BRANCH  23  24
ATOM     24  C   UNL     1       4.776  -0.064  23.322  0.00  0.00    -0.029 C 
ATOM     26  C   UNL     1       4.147  -1.403  23.745  0.00  0.00    +0.011 C 
ATOM     27  C   UNL     1       5.954  -0.359  22.372  0.00  0.00    +0.011 C 
ATOM     28  C   UNL     1       5.323   0.655  24.566  0.00  0.00    +0.011 C 
ENDBRANCH  23  24
ENDBRANCH  22  23
ENDBRANCH  14   5
BRANCH  10   1
ATOM      1  O   UNL     1      -3.534   2.194  23.502  0.00  0.00    -0.391 OA
ATOM     37  H   UNL     1      -3.769   3.035  23.931  0.00  0.00    +0.210 HD
ENDBRANCH  10   1
BRANCH  13  18
ATOM     18  C   UNL     1      -5.831   1.456  25.182  0.00  0.00    +0.077 C 
ATOM     20  C   UNL     1      -6.973   1.554  24.176  0.00  0.00    +0.017 C 
BRANCH  18  21
ATOM      2  O   UNL     1      -5.443   3.810  24.763  0.00  0.00    -0.276 OA
ATOM      6  N   UNL     1      -4.400   2.820  26.584  0.00  0.00    -0.311 N 
ATOM     21  C   UNL     1      -5.220   2.826  25.466  0.00  0.00    +0.216 C 
ATOM     38  H   UNL     1      -4.309   1.977  27.141  0.00  0.00    +0.149 HD
BRANCH   6  25
ATOM     25  C   UNL     1      -3.707   4.000  27.051  0.00  0.00    +0.139 C 
BRANCH  25  29
ATOM     29  C   UNL     1      -2.519   4.328  26.194  0.00  0.00    -0.030 A 
ATOM     30  C   UNL     1      -1.397   3.498  26.209  0.00  0.00    +0.009 A 
ATOM     31  C   UNL     1      -2.536   5.465  25.385  0.00  0.00    +0.009 A 
ATOM     32  C   UNL     1      -0.293   3.805  25.413  0.00  0.00    +0.046 A 
ATOM     33  C   UNL     1      -1.431   5.771  24.590  0.00  0.00    +0.046 A 
ATOM     34  C   UNL     1      -0.310   4.941  24.603  0.00  0.00    +0.120 A 
BRANCH  34   4
ATOM      4  O   UNL     1       0.766   5.239  23.826  0.00  0.00    -0.495 OA
ATOM     35  C   UNL     1       0.542   5.352  22.422  0.00  0.00    +0.277 C 
ENDBRANCH  34   4
ENDBRANCH  25  29
ENDBRANCH   6  25
ENDBRANCH  18  21
ENDBRANCH  13  18
TORSDOF 9
ENDMDL
MODEL 2
REMARK VINA RESULT:       1.9      1.102      1.650
REMARK  Name = 45361421
REMARK  16 active torsions:
REMARK  status: ('A' for Active; 'I' for Inactive)
REMARK    1  A    between atoms: O_1  and  C_10
REMARK    2  A    between atoms: O_4  and  C_34
REMARK    3  A    between atoms: O_4  and  C_35
REMARK    4  A    between atoms: N_5  and  C_14
REMARK    5  A    between atoms: N_6  and  C_25
REMARK    6  A    between atoms: C_7  and  C_17
REMARK    7  A    between atoms: C_9  and  C_19
REMARK    8  A    between atoms: C_13  and  C_18
REMARK    9  A    between atoms: C_18  and  C_20
REMARK   10  A    between atoms: C_18  and  C_21
REMARK   11  A    between atoms: C_22  and  C_23
REMARK   12  A    between atoms: C_23  and  C_24
REMARK   13  A    between atoms: C_24  and  C_26
REMARK   14  A    between atoms: C_24  and  C_27
REMARK   15  A    between atoms: C_24  and  C_28
REMARK   16  A    between atoms: C_25  and  C_29
REMARK                            x       y       z     vdW  Elec       q    Type
REMARK                         _______ _______ _______ _____ _____    ______ ____
ROOT
ATOM      7  C   UNL     1      -2.312  -1.196  24.977  0.00  0.00    -0.027 C 
ATOM      8  C   UNL     1      -2.357   0.035  24.011  0.00  0.00    +0.028 C 
ATOM      9  C   UNL     1      -0.949   0.722  23.917  0.00  0.00    +0.012 C 
ATOM     10  C   UNL     1      -3.542   0.982  24.359  0.00  0.00    +0.122 C 
ATOM     11  C   UNL     1      -3.682  -1.916  24.959  0.00  0.00    +0.007 C 
ATOM     12  C   UNL     1      -1.248  -2.197  24.470  0.00  0.00    +0.009 C 
ATOM     13  C   UNL     1      -4.895   0.237  24.443  0.00  0.00    +0.029 C 
ATOM     14  C   UNL     1       0.127  -0.311  23.478  0.00  0.00    +0.076 C 
ATOM     15  C   UNL     1      -4.839  -1.001  25.338  0.00  0.00    +0.007 C 
ATOM     16  C   UNL     1       0.136  -1.579  24.332  0.00  0.00    +0.023 C 
ATOM     17  C   UNL     1      -1.980  -0.794  26.436  0.00  0.00    +0.011 C 
ATOM     19  C   UNL     1      -0.913   1.925  22.958  0.00  0.00    +0.010 C 
ENDROOT
BRANCH  14   5
ATOM      3  O   UNL     1       2.096  -0.389  21.355  0.00  0.00    -0.276 OA
ATOM      5  N   UNL     1       1.457   0.261  23.492  0.00  0.00    -0.312 N 
ATOM     22  C   UNL     1       2.330   0.171  22.424  0.00  0.00    +0.214 C 
ATOM     36  H   UNL     1       1.764   0.716  24.347  0.00  0.00    +0.149 HD
BRANCH  22  23
ATOM     23  C   UNL     1       3.667   0.844  22.693  0.00  0.00    +0.102 C 
BRANCH  23  24
ATOM     24  C   UNL     1       4.728  -0.067  23.353  0.00  0.00    -0.029 C 
ATOM     26  C   UNL     1       4.119  -1.419  23.762  0.00  0.00    +0.011 C 
ATOM     27  C   UNL     1       5.842  -0.327  22.320  0.00  0.00    +0.011 C 
ATOM     28  C   UNL     1       5.356   0.601  24.588  0.00  0.00    +0.011 C 
ENDBRANCH  23  24
ENDBRANCH  22  23
ENDBRANCH  14   5
BRANCH  10   1
ATOM      1  O   UNL     1      -3.681   1.968  23.335  0.00  0.00    -0.391 OA
ATOM     37  H   UNL     1      -4.595   1.932  23.003  0.00  0.00    +0.210 HD
ENDBRANCH  10   1
BRANCH  13  18
ATOM     18  C   UNL     1      -6.024   1.160  24.914  0.00  0.00    +0.077 C 
ATOM     20  C   UNL     1      -6.888   1.580  23.729  0.00  0.00    +0.017 C 
BRANCH  18  21
ATOM      2  O   UNL     1      -5.687   2.626  26.812  0.00  0.00    -0.276 OA
ATOM      6  N   UNL     1      -4.619   3.132  24.815  0.00  0.00    -0.311 N 
ATOM     21  C   UNL     1      -5.440   2.371  25.634  0.00  0.00    +0.216 C 
ATOM     38  H   UNL     1      -4.423   2.824  23.868  0.00  0.00    +0.149 HD
BRANCH   6  25
ATOM     25  C   UNL     1      -3.953   4.330  25.272  0.00  0.00    +0.139 C 
BRANCH  25  29
ATOM     29  C   UNL     1      -2.522   4.070  25.646  0.00  0.00    -0.030 A 
ATOM     30  C   UNL     1      -1.500   4.806  25.047  0.00  0.00    +0.009 A 
ATOM     31  C   UNL     1      -2.215   3.090  26.591  0.00  0.00    +0.009 A 
ATOM     32  C   UNL     1      -0.171   4.563  25.394  0.00  0.00    +0.046 A 
ATOM     33  C   UNL     1      -0.886   2.848  26.937  0.00  0.00    +0.046 A 
ATOM     34  C   UNL     1       0.136   3.584  26.339  0.00  0.00    +0.120 A 
BRANCH  34   4
ATOM      4  O   UNL     1       1.433   3.348  26.677  0.00  0.00    -0.495 OA
ATOM     35  C   UNL     1       1.676   2.811  27.977  0.00  0.00    +0.277 C 
ENDBRANCH  34   4
ENDBRANCH  25  29
ENDBRANCH   6  25
ENDBRANCH  18  21
ENDBRANCH  13  18
TORSDOF 9
ENDMDL
