MODEL 1
REMARK VINA RESULT:       1.4      0.000      0.000
REMARK  Name = 38028941
REMARK  12 active torsions:
REMARK  status: ('A' for Active; 'I' for Inactive)
REMARK    1  A    between atoms: O_3  and  C_28
REMARK    2  A    between atoms: O_3  and  C_33
REMARK    3  A    between atoms: N_4  and  C_16
REMARK    4  A    between atoms: C_8  and  C_12
REMARK    5  A    between atoms: C_9  and  C_16
REMARK    6  A    between atoms: C_11  and  C_15
REMARK    7  A    between atoms: C_12  and  C_17
REMARK    8  A    between atoms: C_12  and  C_18
REMARK    9  A    between atoms: C_13  and  C_19
REMARK   10  A    between atoms: C_15  and  C_20
REMARK   11  A    between atoms: C_25  and  C_26
REMARK   12  A    between atoms: C_26  and  C_28
REMARK                            x       y       z     vdW  Elec       q    Type
REMARK                         _______ _______ _______ _____ _____    ______ ____
ROOT
ATOM      8  C   UNL     1      -3.486   2.171  24.118  0.00  0.00    +0.000 C 
ATOM      9  C   UNL     1      -4.218   3.357  24.795  0.00  0.00    +0.032 C 
ATOM     10  C   UNL     1      -4.467   1.018  23.854  0.00  0.00    +0.012 C 
ATOM     11  C   UNL     1      -5.129   0.509  25.148  0.00  0.00    +0.023 C 
ATOM     13  C   UNL     1      -5.641   1.649  26.005  0.00  0.00    -0.073 C 
ATOM     14  C   UNL     1      -5.233   2.917  25.824  0.00  0.00    -0.022 C 
ATOM     19  C   UNL     1      -6.669   1.304  27.046  0.00  0.00    +0.039 C 
ENDROOT
BRANCH   8  12
ATOM     12  C   UNL     1      -2.814   2.590  22.807  0.00  0.00    -0.013 C 
ATOM     17  C   UNL     1      -2.414   1.361  21.997  0.00  0.00    +0.007 C 
ATOM     18  C   UNL     1      -3.741   3.493  21.999  0.00  0.00    +0.007 C 
ENDBRANCH   8  12
BRANCH  11  15
ATOM     15  C   UNL     1      -4.173  -0.388  25.942  0.00  0.00    +0.103 C 
BRANCH  15  20
ATOM      1  O   UNL     1      -4.145  -2.368  24.630  0.00  0.00    -0.276 OA
ATOM      5  N   UNL     1      -2.194  -1.107  24.657  0.00  0.00    -0.298 N 
ATOM      6  N   UNL     1       0.466  -0.524  23.677  0.00  0.00    -0.312 N 
ATOM      7  N   UNL     1       2.757  -0.088  24.053  0.00  0.00    -0.240 NA
ATOM     20  C   UNL     1      -3.514  -1.382  25.017  0.00  0.00    +0.216 C 
ATOM     21  C   UNL     1      -1.484  -2.023  23.769  0.00  0.00    +0.126 C 
ATOM     22  C   UNL     1      -1.448   0.070  25.109  0.00  0.00    +0.126 C 
ATOM     23  C   UNL     1      -0.487  -1.291  22.872  0.00  0.00    +0.125 C 
ATOM     24  C   UNL     1       0.067  -0.121  25.027  0.00  0.00    +0.125 C 
ATOM     27  C   UNL     1       1.732  -0.219  23.180  0.00  0.00    +0.121 A 
ATOM     29  C   UNL     1       1.856  -0.069  21.808  0.00  0.00    +0.043 A 
ATOM     30  C   UNL     1       3.113   0.236  21.299  0.00  0.00    +0.005 A 
ATOM     31  C   UNL     1       3.964   0.209  23.519  0.00  0.00    +0.113 A 
ATOM     32  C   UNL     1       4.192   0.378  22.164  0.00  0.00    +0.020 A 
ENDBRANCH  15  20
ENDBRANCH  11  15
BRANCH   9  16
ATOM     16  C   UNL     1      -3.220   4.324  25.443  0.00  0.00    +0.112 C 
BRANCH  16   4
ATOM      2  O   UNL     1      -0.579   5.076  24.552  0.00  0.00    -0.276 OA
ATOM      4  N   UNL     1      -1.990   3.660  25.741  0.00  0.00    -0.315 N 
ATOM     25  C   UNL     1      -0.750   4.092  25.267  0.00  0.00    +0.215 C 
ATOM     34  H   UNL     1      -2.019   2.874  26.383  0.00  0.00    +0.149 HD
BRANCH  25  26
ATOM     26  C   UNL     1       0.385   3.197  25.743  0.00  0.00    +0.124 C 
BRANCH  26  28
ATOM     28  C   UNL     1       0.213   2.736  27.182  0.00  0.00    +0.168 C 
BRANCH  28   3
ATOM      3  O   UNL     1       1.478   2.731  27.831  0.00  0.00    -0.382 OA
ATOM     33  C   UNL     1       1.355   2.415  29.210  0.00  0.00    +0.194 C 
ENDBRANCH  28   3
ENDBRANCH  26  28
ENDBRANCH  25  26
ENDBRANCH  16   4
ENDBRANCH   9  16
TORSDOF 8
ENDMDL
MODEL 2
REMARK VINA RESULT:       4.7      1.855      4.577
REMARK  Name = 38028941
REMARK  12 active torsions:
REMARK  status: ('A' for Active; 'I' for Inactive)
REMARK    1  A    between atoms: O_3  and  C_28
REMARK    2  A    between atoms: O_3  and  C_33
REMARK    3  A    between atoms: N_4  and  C_16
REMARK    4  A    between atoms: C_8  and  C_12
REMARK    5  A    between atoms: C_9  and  C_16
REMARK    6  A    between atoms: C_11  and  C_15
REMARK    7  A    between atoms: C_12  and  C_17
REMARK    8  A    between atoms: C_12  and  C_18
REMARK    9  A    between atoms: C_13  and  C_19
REMARK   10  A    between atoms: C_15  and  C_20
REMARK   11  A    between atoms: C_25  and  C_26
REMARK   12  A    between atoms: C_26  and  C_28
REMARK                            x       y       z     vdW  Elec       q    Type
REMARK                         _______ _______ _______ _____ _____    ______ ____
ROOT
ATOM      8  C   UNL     1      -4.672   2.592  25.157  0.00  0.00    +0.000 C 
ATOM      9  C   UNL     1      -4.482   2.525  23.620  0.00  0.00    +0.032 C 
ATOM     10  C   UNL     1      -5.243   3.959  25.567  0.00  0.00    +0.012 C 
ATOM     11  C   UNL     1      -4.331   5.123  25.137  0.00  0.00    +0.023 C 
ATOM     13  C   UNL     1      -3.880   4.984  23.697  0.00  0.00    -0.073 C 
ATOM     14  C   UNL     1      -3.967   3.818  23.031  0.00  0.00    -0.022 C 
ATOM     19  C   UNL     1      -3.367   6.226  23.025  0.00  0.00    +0.039 C 
ENDROOT
BRANCH   8  12
ATOM     12  C   UNL     1      -5.588   1.474  25.666  0.00  0.00    -0.013 C 
ATOM     17  C   UNL     1      -6.203   1.860  27.007  0.00  0.00    +0.007 C 
ATOM     18  C   UNL     1      -6.674   1.168  24.640  0.00  0.00    +0.007 C 
ENDBRANCH   8  12
BRANCH  11  15
ATOM     15  C   UNL     1      -3.129   5.260  26.078  0.00  0.00    +0.103 C 
BRANCH  15  20
ATOM      1  O   UNL     1      -3.251   3.369  27.509  0.00  0.00    -0.276 OA
ATOM      5  N   UNL     1      -1.635   3.311  25.841  0.00  0.00    -0.298 N 
ATOM      6  N   UNL     1       0.391   1.917  24.315  0.00  0.00    -0.312 N 
ATOM      7  N   UNL     1       2.571   1.779  23.417  0.00  0.00    -0.240 NA
ATOM     20  C   UNL     1      -2.687   3.895  26.548  0.00  0.00    +0.216 C 
ATOM     21  C   UNL     1      -1.145   1.994  26.236  0.00  0.00    +0.126 C 
ATOM     22  C   UNL     1      -0.972   3.934  24.692  0.00  0.00    +0.126 C 
ATOM     23  C   UNL     1      -0.651   1.185  25.039  0.00  0.00    +0.125 C 
ATOM     24  C   UNL     1       0.429   3.375  24.443  0.00  0.00    +0.125 C 
ATOM     27  C   UNL     1       1.340   1.236  23.555  0.00  0.00    +0.121 A 
ATOM     29  C   UNL     1       0.953   0.034  22.985  0.00  0.00    +0.043 A 
ATOM     30  C   UNL     1       1.890  -0.656  22.224  0.00  0.00    +0.005 A 
ATOM     31  C   UNL     1       3.455   1.079  22.669  0.00  0.00    +0.113 A 
ATOM     32  C   UNL     1       3.166  -0.131  22.058  0.00  0.00    +0.020 A 
ENDBRANCH  15  20
ENDBRANCH  11  15
BRANCH   9  16
ATOM     16  C   UNL     1      -3.545   1.377  23.229  0.00  0.00    +0.112 C 
BRANCH  16   4
ATOM      2  O   UNL     1      -4.257  -1.420  23.189  0.00  0.00    -0.276 OA
ATOM      4  N   UNL     1      -3.415   0.440  24.301  0.00  0.00    -0.315 N 
ATOM     25  C   UNL     1      -3.785  -0.902  24.197  0.00  0.00    +0.215 C 
ATOM     34  H   UNL     1      -2.970   0.757  25.157  0.00  0.00    +0.149 HD
BRANCH  25  26
ATOM     26  C   UNL     1      -3.535  -1.663  25.490  0.00  0.00    +0.124 C 
BRANCH  26  28
ATOM     28  C   UNL     1      -2.526  -2.790  25.329  0.00  0.00    +0.168 C 
BRANCH  28   3
ATOM      3  O   UNL     1      -1.414  -2.325  24.576  0.00  0.00    -0.382 OA
ATOM     33  C   UNL     1      -0.267  -2.146  25.395  0.00  0.00    +0.194 C 
ENDBRANCH  28   3
ENDBRANCH  26  28
ENDBRANCH  25  26
ENDBRANCH  16   4
ENDBRANCH   9  16
TORSDOF 8
ENDMDL
