MODEL 1
REMARK VINA RESULT:       6.7      0.000      0.000
REMARK  Name = 51137139
REMARK  6 active torsions:
REMARK  status: ('A' for Active; 'I' for Inactive)
REMARK    1  A    between atoms: S_1  and  C_23
REMARK    2  A    between atoms: S_1  and  C_25
REMARK    3  A    between atoms: N_5  and  C_8
REMARK    4  A    between atoms: N_6  and  C_18
REMARK    5  A    between atoms: C_9  and  C_17
REMARK    6  A    between atoms: C_25  and  C_26
REMARK                            x       y       z     vdW  Elec       q    Type
REMARK                         _______ _______ _______ _____ _____    ______ ____
ROOT
ATOM      2  O   UNL     1      -1.666  -1.384  24.371  0.00  0.00    -0.439 OA
ATOM      7  N   UNL     1      -1.545   0.636  23.349  0.00  0.00    -0.213 NA
ATOM     17  C   UNL     1      -1.003  -0.550  23.521  0.00  0.00    +0.201 A 
ATOM     19  C   UNL     1      -2.661   0.592  24.149  0.00  0.00    +0.111 A 
ATOM     20  C   UNL     1      -2.739  -0.642  24.776  0.00  0.00    +0.155 A 
ATOM     21  C   UNL     1      -3.657   1.545  24.403  0.00  0.00    +0.058 A 
ATOM     22  C   UNL     1      -3.745  -1.022  25.656  0.00  0.00    +0.050 A 
ATOM     23  C   UNL     1      -4.691   1.199  25.286  0.00  0.00    +0.090 A 
ATOM     24  C   UNL     1      -4.732  -0.060  25.898  0.00  0.00    +0.030 A 
ENDROOT
BRANCH  17   9
ATOM      5  N   UNL     1       2.591  -0.892  22.898  0.00  0.00    -0.299 NA
ATOM      9  C   UNL     1       0.256  -1.107  22.899  0.00  0.00    +0.090 C 
ATOM     10  C   UNL     1       1.472  -1.025  23.833  0.00  0.00    +0.097 C 
ATOM     11  C   UNL     1       2.130   0.063  21.890  0.00  0.00    +0.085 C 
ATOM     12  C   UNL     1       0.706  -0.401  21.609  0.00  0.00    +0.029 C 
BRANCH   5   8
ATOM      6  N   UNL     1       6.719  -0.071  23.485  0.00  0.00    -0.305 NA
ATOM      8  C   UNL     1       3.819  -0.455  23.557  0.00  0.00    +0.059 C 
ATOM     13  C   UNL     1       4.473   0.678  22.763  0.00  0.00    +0.034 C 
ATOM     14  C   UNL     1       4.803  -1.620  23.712  0.00  0.00    +0.034 C 
ATOM     15  C   UNL     1       5.813   1.082  23.385  0.00  0.00    +0.085 C 
ATOM     16  C   UNL     1       6.131  -1.141  24.303  0.00  0.00    +0.085 C 
ATOM     18  C   UNL     1       8.012   0.341  24.034  0.00  0.00    +0.104 C 
ENDBRANCH   5   8
ENDBRANCH  17   9
BRANCH  23   1
ATOM      1  S   UNL     1      -5.951   2.363  25.628  0.00  0.00    -0.003 S 
ATOM      3  O   UNL     1      -7.006   2.219  24.636  0.00  0.00    -0.169 OA
ATOM      4  O   UNL     1      -6.270   2.268  27.045  0.00  0.00    -0.169 OA
BRANCH   1  25
ATOM     25  C   UNL     1      -5.181   3.940  25.344  0.00  0.00    +0.168 C 
ATOM     26  C   UNL     1      -3.872   4.061  26.089  0.00  0.00    +0.028 C 
ENDBRANCH   1  25
ENDBRANCH  23   1
TORSDOF 4
ENDMDL
MODEL 2
REMARK VINA RESULT:       6.7      1.299      2.007
REMARK  Name = 51137139
REMARK  6 active torsions:
REMARK  status: ('A' for Active; 'I' for Inactive)
REMARK    1  A    between atoms: S_1  and  C_23
REMARK    2  A    between atoms: S_1  and  C_25
REMARK    3  A    between atoms: N_5  and  C_8
REMARK    4  A    between atoms: N_6  and  C_18
REMARK    5  A    between atoms: C_9  and  C_17
REMARK    6  A    between atoms: C_25  and  C_26
REMARK                            x       y       z     vdW  Elec       q    Type
REMARK                         _______ _______ _______ _____ _____    ______ ____
ROOT
ATOM      2  O   UNL     1      -0.598   1.515  24.103  0.00  0.00    -0.439 OA
ATOM      7  N   UNL     1      -2.202  -0.083  24.004  0.00  0.00    -0.213 NA
ATOM     17  C   UNL     1      -0.943   0.233  23.796  0.00  0.00    +0.201 A 
ATOM     19  C   UNL     1      -2.744   1.083  24.489  0.00  0.00    +0.111 A 
ATOM     20  C   UNL     1      -1.766   2.063  24.550  0.00  0.00    +0.155 A 
ATOM     21  C   UNL     1      -4.047   1.400  24.899  0.00  0.00    +0.058 A 
ATOM     22  C   UNL     1      -1.973   3.363  24.995  0.00  0.00    +0.050 A 
ATOM     23  C   UNL     1      -4.296   2.703  25.355  0.00  0.00    +0.090 A 
ATOM     24  C   UNL     1      -3.278   3.663  25.401  0.00  0.00    +0.030 A 
ENDROOT
BRANCH  17   9
ATOM      5  N   UNL     1       2.504  -0.825  23.148  0.00  0.00    -0.299 NA
ATOM      9  C   UNL     1       0.169  -0.640  23.265  0.00  0.00    +0.090 C 
ATOM     10  C   UNL     1       1.441  -0.579  24.123  0.00  0.00    +0.097 C 
ATOM     11  C   UNL     1       2.136  -0.027  21.978  0.00  0.00    +0.085 C 
ATOM     12  C   UNL     1       0.642  -0.292  21.843  0.00  0.00    +0.029 C 
BRANCH   5   8
ATOM      6  N   UNL     1       6.715  -0.259  23.253  0.00  0.00    -0.305 NA
ATOM      8  C   UNL     1       3.826  -0.478  23.664  0.00  0.00    +0.059 C 
ATOM     13  C   UNL     1       4.449   0.638  22.821  0.00  0.00    +0.034 C 
ATOM     14  C   UNL     1       4.749  -1.701  23.675  0.00  0.00    +0.034 C 
ATOM     15  C   UNL     1       5.875   0.946  23.287  0.00  0.00    +0.085 C 
ATOM     16  C   UNL     1       6.164  -1.316  24.112  0.00  0.00    +0.085 C 
ATOM     18  C   UNL     1       8.086   0.062  23.652  0.00  0.00    +0.104 C 
ENDBRANCH   5   8
ENDBRANCH  17   9
BRANCH  23   1
ATOM      1  S   UNL     1      -5.911   3.135  25.872  0.00  0.00    -0.003 S 
ATOM      3  O   UNL     1      -6.167   2.524  27.168  0.00  0.00    -0.169 OA
ATOM      4  O   UNL     1      -6.060   4.573  25.706  0.00  0.00    -0.169 OA
BRANCH   1  25
ATOM     25  C   UNL     1      -6.978   2.332  24.699  0.00  0.00    +0.168 C 
ATOM     26  C   UNL     1      -6.595   0.884  24.501  0.00  0.00    +0.028 C 
ENDBRANCH   1  25
ENDBRANCH  23   1
TORSDOF 4
ENDMDL
MODEL 3
REMARK VINA RESULT:       6.7      3.595      9.158
REMARK  Name = 51137139
REMARK  6 active torsions:
REMARK  status: ('A' for Active; 'I' for Inactive)
REMARK    1  A    between atoms: S_1  and  C_23
REMARK    2  A    between atoms: S_1  and  C_25
REMARK    3  A    between atoms: N_5  and  C_8
REMARK    4  A    between atoms: N_6  and  C_18
REMARK    5  A    between atoms: C_9  and  C_17
REMARK    6  A    between atoms: C_25  and  C_26
REMARK                            x       y       z     vdW  Elec       q    Type
REMARK                         _______ _______ _______ _____ _____    ______ ____
ROOT
ATOM      2  O   UNL     1      -0.580   0.362  23.484  0.00  0.00    -0.439 OA
ATOM      7  N   UNL     1       0.000  -1.731  24.129  0.00  0.00    -0.213 NA
ATOM     17  C   UNL     1      -0.969  -0.867  23.925  0.00  0.00    +0.201 A 
ATOM     19  C   UNL     1       1.130  -1.023  23.798  0.00  0.00    +0.111 A 
ATOM     20  C   UNL     1       0.779   0.259  23.403  0.00  0.00    +0.155 A 
ATOM     21  C   UNL     1       2.485  -1.383  23.804  0.00  0.00    +0.058 A 
ATOM     22  C   UNL     1       1.679   1.239  23.002  0.00  0.00    +0.050 A 
ATOM     23  C   UNL     1       3.424  -0.421  23.405  0.00  0.00    +0.090 A 
ATOM     24  C   UNL     1       3.027   0.863  23.013  0.00  0.00    +0.030 A 
ENDROOT
BRANCH  17   9
ATOM      5  N   UNL     1      -4.445   0.093  24.575  0.00  0.00    -0.299 NA
ATOM      9  C   UNL     1      -2.456  -1.061  24.113  0.00  0.00    +0.090 C 
ATOM     10  C   UNL     1      -3.277   0.168  23.696  0.00  0.00    +0.097 C 
ATOM     11  C   UNL     1      -3.906  -0.259  25.889  0.00  0.00    +0.085 C 
ATOM     12  C   UNL     1      -2.892  -1.348  25.560  0.00  0.00    +0.029 C 
BRANCH   5   8
ATOM      6  N   UNL     1      -5.584   4.037  25.672  0.00  0.00    -0.305 NA
ATOM      8  C   UNL     1      -5.204   1.340  24.602  0.00  0.00    +0.059 C 
ATOM     13  C   UNL     1      -4.310   2.514  24.194  0.00  0.00    +0.034 C 
ATOM     14  C   UNL     1      -5.795   1.593  25.993  0.00  0.00    +0.034 C 
ATOM     15  C   UNL     1      -5.062   3.843  24.313  0.00  0.00    +0.085 C 
ATOM     16  C   UNL     1      -6.498   2.951  26.052  0.00  0.00    +0.085 C 
ATOM     18  C   UNL     1      -6.256   5.333  25.782  0.00  0.00    +0.104 C 
ENDBRANCH   5   8
ENDBRANCH  17   9
BRANCH  23   1
ATOM      1  S   UNL     1       5.125  -0.833  23.400  0.00  0.00    -0.003 S 
ATOM      3  O   UNL     1       5.265  -2.245  23.727  0.00  0.00    -0.169 OA
ATOM      4  O   UNL     1       5.705  -0.311  22.172  0.00  0.00    -0.169 OA
BRANCH   1  25
ATOM     25  C   UNL     1       5.803   0.086  24.762  0.00  0.00    +0.168 C 
ATOM     26  C   UNL     1       6.204   1.482  24.344  0.00  0.00    +0.028 C 
ENDBRANCH   1  25
ENDBRANCH  23   1
TORSDOF 4
ENDMDL
