MODEL 1
REMARK VINA RESULT:      -3.8      0.000      0.000
REMARK  Name = 38030393
REMARK  11 active torsions:
REMARK  status: ('A' for Active; 'I' for Inactive)
REMARK    1  A    between atoms: O_1  and  C_24
REMARK    2  A    between atoms: N_3  and  C_11
REMARK    3  A    between atoms: C_7  and  C_12
REMARK    4  A    between atoms: C_8  and  C_11
REMARK    5  A    between atoms: C_10  and  C_20
REMARK    6  A    between atoms: C_12  and  C_21
REMARK    7  A    between atoms: C_12  and  C_22
REMARK    8  A    between atoms: C_14  and  C_23
REMARK    9  A    between atoms: C_17  and  C_24
REMARK   10  A    between atoms: C_20  and  C_25
REMARK   11  A    between atoms: C_26  and  C_27
REMARK                            x       y       z     vdW  Elec       q    Type
REMARK                         _______ _______ _______ _____ _____    ______ ____
ROOT
ATOM      7  C   UNL     1      15.636  -6.561  30.897  0.00  0.00    +0.000 C 
ATOM      8  C   UNL     1      14.422  -7.452  30.544  0.00  0.00    +0.029 C 
ATOM      9  C   UNL     1      16.767  -6.767  29.881  0.00  0.00    +0.012 C 
ATOM     10  C   UNL     1      16.338  -6.496  28.423  0.00  0.00    +0.024 C 
ATOM     13  C   UNL     1      14.103  -7.438  29.071  0.00  0.00    -0.023 C 
ATOM     14  C   UNL     1      14.939  -7.005  28.111  0.00  0.00    -0.073 C 
ATOM     23  C   UNL     1      14.485  -6.954  26.678  0.00  0.00    +0.039 C 
ENDROOT
BRANCH   7  12
ATOM     12  C   UNL     1      15.236  -5.082  30.990  0.00  0.00    -0.013 C 
ATOM     21  C   UNL     1      16.424  -4.238  31.442  0.00  0.00    +0.007 C 
ATOM     22  C   UNL     1      14.056  -4.909  31.941  0.00  0.00    +0.007 C 
ENDBRANCH   7  12
BRANCH   8  11
ATOM     11  C   UNL     1      14.631  -8.900  31.002  0.00  0.00    +0.092 C 
BRANCH  11   3
ATOM      3  N   UNL     1      13.404  -9.438  31.591  0.00  0.00    -0.302 NA
ATOM     15  C   UNL     1      12.623 -10.161  30.579  0.00  0.00    +0.085 C 
ATOM     16  C   UNL     1      12.614  -8.362  32.203  0.00  0.00    +0.085 C 
ATOM     17  C   UNL     1      10.501  -9.711  31.878  0.00  0.00    +0.017 C 
ATOM     18  C   UNL     1      11.363 -10.776  31.191  0.00  0.00    +0.021 C 
ATOM     19  C   UNL     1      11.354  -8.915  32.871  0.00  0.00    +0.021 C 
BRANCH  17  24
ATOM     24  C   UNL     1       9.297 -10.344  32.572  0.00  0.00    +0.159 C 
BRANCH  24   1
ATOM      1  O   UNL     1       8.168 -10.207  31.729  0.00  0.00    -0.395 OA
ATOM     32  H   UNL     1       8.360 -10.698  30.911  0.00  0.00    +0.209 HD
ENDBRANCH  24   1
ENDBRANCH  17  24
ENDBRANCH  11   3
ENDBRANCH   8  11
BRANCH  10  20
ATOM     20  C   UNL     1      17.405  -7.070  27.483  0.00  0.00    +0.105 C 
BRANCH  20  25
ATOM      2  O   UNL     1      17.299  -5.043  26.128  0.00  0.00    -0.420 OA
ATOM      4  N   UNL     1      17.395  -6.936  24.939  0.00  0.00    -0.112 NA
ATOM      5  N   UNL     1      17.339  -5.877  24.053  0.00  0.00    -0.107 NA
ATOM     25  C   UNL     1      17.369  -6.403  26.139  0.00  0.00    +0.218 A 
ATOM     26  C   UNL     1      17.285  -4.792  24.790  0.00  0.00    +0.250 A 
BRANCH  26  27
ATOM      6  N   UNL     1      17.229  -1.086  25.074  0.00  0.00    -0.263 NA
ATOM     27  C   UNL     1      17.213  -3.412  24.412  0.00  0.00    +0.057 A 
ATOM     28  C   UNL     1      17.066  -3.039  23.080  0.00  0.00    +0.016 A 
ATOM     29  C   UNL     1      17.289  -2.406  25.362  0.00  0.00    +0.124 A 
ATOM     30  C   UNL     1      17.000  -1.691  22.745  0.00  0.00    +0.020 A 
ATOM     31  C   UNL     1      17.086  -0.763  23.769  0.00  0.00    +0.111 A 
ENDBRANCH  26  27
ENDBRANCH  20  25
ENDBRANCH  10  20
TORSDOF 8
ENDMDL
MODEL 2
REMARK VINA RESULT:      -0.6     17.600     18.785
REMARK  Name = 38030393
REMARK  11 active torsions:
REMARK  status: ('A' for Active; 'I' for Inactive)
REMARK    1  A    between atoms: O_1  and  C_24
REMARK    2  A    between atoms: N_3  and  C_11
REMARK    3  A    between atoms: C_7  and  C_12
REMARK    4  A    between atoms: C_8  and  C_11
REMARK    5  A    between atoms: C_10  and  C_20
REMARK    6  A    between atoms: C_12  and  C_21
REMARK    7  A    between atoms: C_12  and  C_22
REMARK    8  A    between atoms: C_14  and  C_23
REMARK    9  A    between atoms: C_17  and  C_24
REMARK   10  A    between atoms: C_20  and  C_25
REMARK   11  A    between atoms: C_26  and  C_27
REMARK                            x       y       z     vdW  Elec       q    Type
REMARK                         _______ _______ _______ _____ _____    ______ ____
ROOT
ATOM      7  C   UNL     1      -2.697   2.781  25.822  0.00  0.00    +0.000 C 
ATOM      8  C   UNL     1      -4.199   2.822  25.454  0.00  0.00    +0.029 C 
ATOM      9  C   UNL     1      -1.908   1.989  24.772  0.00  0.00    +0.012 C 
ATOM     10  C   UNL     1      -2.070   2.541  23.340  0.00  0.00    +0.024 C 
ATOM     13  C   UNL     1      -4.428   3.104  23.992  0.00  0.00    -0.023 C 
ATOM     14  C   UNL     1      -3.489   2.996  23.035  0.00  0.00    -0.073 C 
ATOM     23  C   UNL     1      -3.803   3.386  21.617  0.00  0.00    +0.039 C 
ENDROOT
BRANCH   7  12
ATOM     12  C   UNL     1      -2.125   4.195  25.998  0.00  0.00    -0.013 C 
ATOM     21  C   UNL     1      -3.217   5.239  25.785  0.00  0.00    +0.007 C 
ATOM     22  C   UNL     1      -0.964   4.423  25.037  0.00  0.00    +0.007 C 
ENDBRANCH   7  12
BRANCH   8  11
ATOM     11  C   UNL     1      -4.911   1.519  25.835  0.00  0.00    +0.092 C 
BRANCH  11   3
ATOM      3  N   UNL     1      -4.179   0.361  25.321  0.00  0.00    -0.302 NA
ATOM     15  C   UNL     1      -4.910  -0.255  24.206  0.00  0.00    +0.085 C 
ATOM     16  C   UNL     1      -3.934  -0.610  26.396  0.00  0.00    +0.085 C 
ATOM     17  C   UNL     1      -3.812  -2.479  24.699  0.00  0.00    +0.017 C 
ATOM     18  C   UNL     1      -4.132  -1.436  23.622  0.00  0.00    +0.021 C 
ATOM     19  C   UNL     1      -3.123  -1.803  25.888  0.00  0.00    +0.021 C 
BRANCH  17  24
ATOM     24  C   UNL     1      -2.951  -3.605  24.132  0.00  0.00    +0.159 C 
BRANCH  24   1
ATOM      1  O   UNL     1      -1.659  -3.090  23.862  0.00  0.00    -0.395 OA
ATOM     32  H   UNL     1      -1.747  -2.473  23.115  0.00  0.00    +0.209 HD
ENDBRANCH  24   1
ENDBRANCH  17  24
ENDBRANCH  11   3
ENDBRANCH   8  11
BRANCH  10  20
ATOM     20  C   UNL     1      -1.554   1.490  22.348  0.00  0.00    +0.105 C 
BRANCH  20  25
ATOM      2  O   UNL     1       0.766   0.834  22.732  0.00  0.00    -0.420 OA
ATOM      4  N   UNL     1      -0.736  -0.453  23.778  0.00  0.00    -0.112 NA
ATOM      5  N   UNL     1       0.524  -0.934  24.081  0.00  0.00    -0.107 NA
ATOM     25  C   UNL     1      -0.547   0.579  22.989  0.00  0.00    +0.218 A 
ATOM     26  C   UNL     1       1.369  -0.153  23.449  0.00  0.00    +0.250 A 
BRANCH  26  27
ATOM      6  N   UNL     1       4.860  -1.384  23.793  0.00  0.00    -0.263 NA
ATOM     27  C   UNL     1       2.802  -0.178  23.399  0.00  0.00    +0.057 A 
ATOM     28  C   UNL     1       3.523   0.916  22.932  0.00  0.00    +0.016 A 
ATOM     29  C   UNL     1       3.512  -1.293  23.814  0.00  0.00    +0.124 A 
ATOM     30  C   UNL     1       4.912   0.860  22.895  0.00  0.00    +0.020 A 
ATOM     31  C   UNL     1       5.527  -0.301  23.332  0.00  0.00    +0.111 A 
ENDBRANCH  26  27
ENDBRANCH  20  25
ENDBRANCH  10  20
TORSDOF 8
ENDMDL
