MODEL 1
REMARK VINA RESULT:      -5.4      0.000      0.000
REMARK  Name = 56775440
REMARK  11 active torsions:
REMARK  status: ('A' for Active; 'I' for Inactive)
REMARK    1  A    between atoms: N_3  and  C_6
REMARK    2  A    between atoms: N_3  and  C_10
REMARK    3  A    between atoms: N_5  and  C_17
REMARK    4  A    between atoms: N_5  and  C_18
REMARK    5  A    between atoms: N_5  and  C_19
REMARK    6  A    between atoms: C_6  and  C_9
REMARK    7  A    between atoms: C_9  and  C_11
REMARK    8  A    between atoms: C_10  and  C_12
REMARK    9  A    between atoms: C_12  and  C_14
REMARK   10  A    between atoms: C_12  and  C_15
REMARK   11  A    between atoms: C_16  and  C_17
REMARK                            x       y       z     vdW  Elec       q    Type
REMARK                         _______ _______ _______ _____ _____    ______ ____
ROOT
ATOM      1  O   UNL     1      -3.897   3.111  23.228  0.00  0.00    -0.376 OA
ATOM      6  C   UNL     1      -3.178   1.431  24.332  0.00  0.00    +0.072 C 
ATOM      7  C   UNL     1      -4.248   2.505  24.494  0.00  0.00    +0.184 C 
ATOM      8  C   UNL     1      -2.931   2.067  22.969  0.00  0.00    +0.184 C 
ENDROOT
BRANCH   6   3
ATOM      3  N   UNL     1      -3.836   0.135  24.135  0.00  0.00    -0.306 NA
ATOM     20  H   UNL     1      -3.574  -0.363  23.287  0.00  0.00    +0.123 HD
BRANCH   3  10
ATOM     10  C   UNL     1      -3.614  -0.702  25.309  0.00  0.00    +0.084 C 
BRANCH  10  12
ATOM     12  C   UNL     1      -3.472  -2.191  24.951  0.00  0.00    -0.003 C 
ATOM     14  C   UNL     1      -4.347  -2.516  23.738  0.00  0.00    +0.008 C 
ATOM     15  C   UNL     1      -2.023  -2.590  24.663  0.00  0.00    +0.008 C 
ENDBRANCH  10  12
ENDBRANCH   3  10
ENDBRANCH   6   3
BRANCH   6   9
ATOM      9  C   UNL     1      -2.054   1.371  25.320  0.00  0.00    +0.085 C 
BRANCH   9  11
ATOM      2  O   UNL     1       1.238   1.838  23.906  0.00  0.00    -0.358 OA
ATOM      4  N   UNL     1       0.140   2.274  24.637  0.00  0.00    -0.083 NA
ATOM     11  C   UNL     1      -0.720   1.253  24.610  0.00  0.00    +0.086 A 
ATOM     13  C   UNL     1      -0.224   0.156  23.885  0.00  0.00    +0.072 A 
ATOM     16  C   UNL     1       1.010   0.576  23.463  0.00  0.00    +0.151 A 
BRANCH  16  17
ATOM     17  C   UNL     1       2.076  -0.043  22.668  0.00  0.00    +0.161 C 
BRANCH  17   5
ATOM      5  N   UNL     1       3.415   0.127  23.260  0.00  0.00    -0.301 NA
ATOM     18  C   UNL     1       4.269   0.889  22.356  0.00  0.00    +0.105 C 
ATOM     19  C   UNL     1       4.002  -1.175  23.554  0.00  0.00    +0.105 C 
ENDBRANCH  17   5
ENDBRANCH  16  17
ENDBRANCH   9  11
ENDBRANCH   6   9
TORSDOF 7
ENDMDL
MODEL 2
REMARK VINA RESULT:      -5.1      1.776      2.542
REMARK  Name = 56775440
REMARK  11 active torsions:
REMARK  status: ('A' for Active; 'I' for Inactive)
REMARK    1  A    between atoms: N_3  and  C_6
REMARK    2  A    between atoms: N_3  and  C_10
REMARK    3  A    between atoms: N_5  and  C_17
REMARK    4  A    between atoms: N_5  and  C_18
REMARK    5  A    between atoms: N_5  and  C_19
REMARK    6  A    between atoms: C_6  and  C_9
REMARK    7  A    between atoms: C_9  and  C_11
REMARK    8  A    between atoms: C_10  and  C_12
REMARK    9  A    between atoms: C_12  and  C_14
REMARK   10  A    between atoms: C_12  and  C_15
REMARK   11  A    between atoms: C_16  and  C_17
REMARK                            x       y       z     vdW  Elec       q    Type
REMARK                         _______ _______ _______ _____ _____    ______ ____
ROOT
ATOM      1  O   UNL     1      -6.534   2.929  25.899  0.00  0.00    -0.376 OA
ATOM      6  C   UNL     1      -4.772   2.181  24.952  0.00  0.00    +0.072 C 
ATOM      7  C   UNL     1      -5.117   3.026  26.174  0.00  0.00    +0.184 C 
ATOM      8  C   UNL     1      -6.281   2.046  24.782  0.00  0.00    +0.184 C 
ENDROOT
BRANCH   6   3
ATOM      3  N   UNL     1      -4.231   0.896  25.404  0.00  0.00    -0.306 NA
ATOM     20  H   UNL     1      -4.598   0.556  26.291  0.00  0.00    +0.123 HD
BRANCH   3  10
ATOM     10  C   UNL     1      -4.418  -0.102  24.357  0.00  0.00    +0.084 C 
BRANCH  10  12
ATOM     12  C   UNL     1      -3.361  -1.218  24.412  0.00  0.00    -0.003 C 
ATOM     14  C   UNL     1      -2.647  -1.186  25.766  0.00  0.00    +0.008 C 
ATOM     15  C   UNL     1      -3.959  -2.607  24.177  0.00  0.00    +0.008 C 
ENDBRANCH  10  12
ENDBRANCH   3  10
ENDBRANCH   6   3
BRANCH   6   9
ATOM      9  C   UNL     1      -3.970   2.797  23.848  0.00  0.00    +0.085 C 
BRANCH   9  11
ATOM      2  O   UNL     1      -0.574   2.925  25.075  0.00  0.00    -0.358 OA
ATOM      4  N   UNL     1      -1.913   3.293  25.121  0.00  0.00    -0.083 NA
ATOM     11  C   UNL     1      -2.486   2.637  24.108  0.00  0.00    +0.086 A 
ATOM     13  C   UNL     1      -1.566   1.848  23.395  0.00  0.00    +0.072 A 
ATOM     16  C   UNL     1      -0.379   2.065  24.044  0.00  0.00    +0.151 A 
BRANCH  16  17
ATOM     17  C   UNL     1       0.989   1.573  23.851  0.00  0.00    +0.161 C 
BRANCH  17   5
ATOM      5  N   UNL     1       1.057   0.349  23.033  0.00  0.00    -0.301 NA
ATOM     18  C   UNL     1       0.498  -0.778  23.770  0.00  0.00    +0.105 C 
ATOM     19  C   UNL     1       2.437   0.083  22.644  0.00  0.00    +0.105 C 
ENDBRANCH  17   5
ENDBRANCH  16  17
ENDBRANCH   9  11
ENDBRANCH   6   9
TORSDOF 7
ENDMDL
MODEL 3
REMARK VINA RESULT:      -5.0      2.823      4.625
REMARK  Name = 56775440
REMARK  11 active torsions:
REMARK  status: ('A' for Active; 'I' for Inactive)
REMARK    1  A    between atoms: N_3  and  C_6
REMARK    2  A    between atoms: N_3  and  C_10
REMARK    3  A    between atoms: N_5  and  C_17
REMARK    4  A    between atoms: N_5  and  C_18
REMARK    5  A    between atoms: N_5  and  C_19
REMARK    6  A    between atoms: C_6  and  C_9
REMARK    7  A    between atoms: C_9  and  C_11
REMARK    8  A    between atoms: C_10  and  C_12
REMARK    9  A    between atoms: C_12  and  C_14
REMARK   10  A    between atoms: C_12  and  C_15
REMARK   11  A    between atoms: C_16  and  C_17
REMARK                            x       y       z     vdW  Elec       q    Type
REMARK                         _______ _______ _______ _____ _____    ______ ____
ROOT
ATOM      1  O   UNL     1      -1.073   5.529  25.022  0.00  0.00    -0.376 OA
ATOM      6  C   UNL     1      -1.327   3.409  24.983  0.00  0.00    +0.072 C 
ATOM      7  C   UNL     1      -2.011   4.610  25.628  0.00  0.00    +0.184 C 
ATOM      8  C   UNL     1      -0.437   4.446  24.306  0.00  0.00    +0.184 C 
ENDROOT
BRANCH   6   3
ATOM      3  N   UNL     1      -2.228   2.834  23.980  0.00  0.00    -0.306 NA
ATOM     20  H   UNL     1      -2.204   1.819  23.904  0.00  0.00    +0.123 HD
BRANCH   3  10
ATOM     10  C   UNL     1      -3.589   3.296  24.232  0.00  0.00    +0.084 C 
BRANCH  10  12
ATOM     12  C   UNL     1      -4.357   2.370  25.191  0.00  0.00    -0.003 C 
ATOM     14  C   UNL     1      -5.573   3.108  25.758  0.00  0.00    +0.008 C 
ATOM     15  C   UNL     1      -4.810   1.073  24.517  0.00  0.00    +0.008 C 
ENDBRANCH  10  12
ENDBRANCH   3  10
ENDBRANCH   6   3
BRANCH   6   9
ATOM      9  C   UNL     1      -0.695   2.375  25.863  0.00  0.00    +0.085 C 
BRANCH   9  11
ATOM      2  O   UNL     1      -0.385  -0.596  23.829  0.00  0.00    -0.358 OA
ATOM      4  N   UNL     1      -0.070   0.721  24.139  0.00  0.00    -0.083 NA
ATOM     11  C   UNL     1      -0.788   1.001  25.229  0.00  0.00    +0.086 A 
ATOM     13  C   UNL     1      -1.567  -0.091  25.650  0.00  0.00    +0.072 A 
ATOM     16  C   UNL     1      -1.277  -1.069  24.736  0.00  0.00    +0.151 A 
BRANCH  16  17
ATOM     17  C   UNL     1      -1.720  -2.456  24.557  0.00  0.00    +0.161 C 
BRANCH  17   5
ATOM      5  N   UNL     1      -3.136  -2.663  24.905  0.00  0.00    -0.301 NA
ATOM     18  C   UNL     1      -3.984  -2.354  23.761  0.00  0.00    +0.105 C 
ATOM     19  C   UNL     1      -3.495  -1.840  26.055  0.00  0.00    +0.105 C 
ENDBRANCH  17   5
ENDBRANCH  16  17
ENDBRANCH   9  11
ENDBRANCH   6   9
TORSDOF 7
ENDMDL
MODEL 4
REMARK VINA RESULT:      -4.8      2.529      4.745
REMARK  Name = 56775440
REMARK  11 active torsions:
REMARK  status: ('A' for Active; 'I' for Inactive)
REMARK    1  A    between atoms: N_3  and  C_6
REMARK    2  A    between atoms: N_3  and  C_10
REMARK    3  A    between atoms: N_5  and  C_17
REMARK    4  A    between atoms: N_5  and  C_18
REMARK    5  A    between atoms: N_5  and  C_19
REMARK    6  A    between atoms: C_6  and  C_9
REMARK    7  A    between atoms: C_9  and  C_11
REMARK    8  A    between atoms: C_10  and  C_12
REMARK    9  A    between atoms: C_12  and  C_14
REMARK   10  A    between atoms: C_12  and  C_15
REMARK   11  A    between atoms: C_16  and  C_17
REMARK                            x       y       z     vdW  Elec       q    Type
REMARK                         _______ _______ _______ _____ _____    ______ ____
ROOT
ATOM      1  O   UNL     1      -3.630  -3.302  25.371  0.00  0.00    -0.376 OA
ATOM      6  C   UNL     1      -2.442  -1.683  24.648  0.00  0.00    +0.072 C 
ATOM      7  C   UNL     1      -2.906  -3.046  24.146  0.00  0.00    +0.184 C 
ATOM      8  C   UNL     1      -3.304  -1.984  25.869  0.00  0.00    +0.184 C 
ENDROOT
BRANCH   6   3
ATOM      3  N   UNL     1      -3.096  -0.638  23.854  0.00  0.00    -0.306 NA
ATOM     20  H   UNL     1      -3.345  -0.905  22.904  0.00  0.00    +0.123 HD
BRANCH   3  10
ATOM     10  C   UNL     1      -4.269  -0.150  24.572  0.00  0.00    +0.084 C 
BRANCH  10  12
ATOM     12  C   UNL     1      -4.292   1.384  24.684  0.00  0.00    -0.003 C 
ATOM     14  C   UNL     1      -3.686   2.004  23.421  0.00  0.00    +0.008 C 
ATOM     15  C   UNL     1      -5.702   1.937  24.902  0.00  0.00    +0.008 C 
ENDBRANCH  10  12
ENDBRANCH   3  10
ENDBRANCH   6   3
BRANCH   6   9
ATOM      9  C   UNL     1      -0.976  -1.440  24.837  0.00  0.00    +0.085 C 
BRANCH   9  11
ATOM      2  O   UNL     1       0.088   1.891  23.928  0.00  0.00    -0.358 OA
ATOM      4  N   UNL     1      -0.040   0.530  23.680  0.00  0.00    -0.083 NA
ATOM     11  C   UNL     1      -0.661   0.040  24.756  0.00  0.00    +0.086 A 
ATOM     13  C   UNL     1      -0.948   1.035  25.707  0.00  0.00    +0.072 A 
ATOM     16  C   UNL     1      -0.456   2.180  25.137  0.00  0.00    +0.151 A 
BRANCH  16  17
ATOM     17  C   UNL     1      -0.407   3.584  25.559  0.00  0.00    +0.161 C 
BRANCH  17   5
ATOM      5  N   UNL     1      -1.583   4.361  25.130  0.00  0.00    -0.301 NA
ATOM     18  C   UNL     1      -1.210   5.753  24.905  0.00  0.00    +0.105 C 
ATOM     19  C   UNL     1      -2.641   4.263  26.130  0.00  0.00    +0.105 C 
ENDBRANCH  17   5
ENDBRANCH  16  17
ENDBRANCH   9  11
ENDBRANCH   6   9
TORSDOF 7
ENDMDL
MODEL 5
REMARK VINA RESULT:      -4.4      2.031      2.649
REMARK  Name = 56775440
REMARK  11 active torsions:
REMARK  status: ('A' for Active; 'I' for Inactive)
REMARK    1  A    between atoms: N_3  and  C_6
REMARK    2  A    between atoms: N_3  and  C_10
REMARK    3  A    between atoms: N_5  and  C_17
REMARK    4  A    between atoms: N_5  and  C_18
REMARK    5  A    between atoms: N_5  and  C_19
REMARK    6  A    between atoms: C_6  and  C_9
REMARK    7  A    between atoms: C_9  and  C_11
REMARK    8  A    between atoms: C_10  and  C_12
REMARK    9  A    between atoms: C_12  and  C_14
REMARK   10  A    between atoms: C_12  and  C_15
REMARK   11  A    between atoms: C_16  and  C_17
REMARK                            x       y       z     vdW  Elec       q    Type
REMARK                         _______ _______ _______ _____ _____    ______ ____
ROOT
ATOM      1  O   UNL     1      -1.677   5.334  25.397  0.00  0.00    -0.376 OA
ATOM      6  C   UNL     1      -1.836   3.235  25.042  0.00  0.00    +0.072 C 
ATOM      7  C   UNL     1      -2.618   4.309  25.791  0.00  0.00    +0.184 C 
ATOM      8  C   UNL     1      -0.943   4.384  24.590  0.00  0.00    +0.184 C 
ENDROOT
BRANCH   6   3
ATOM      3  N   UNL     1      -2.634   2.779  23.900  0.00  0.00    -0.306 NA
ATOM     20  H   UNL     1      -2.413   1.846  23.558  0.00  0.00    +0.123 HD
BRANCH   3  10
ATOM     10  C   UNL     1      -4.052   2.882  24.230  0.00  0.00    +0.084 C 
BRANCH  10  12
ATOM     12  C   UNL     1      -4.573   1.640  24.974  0.00  0.00    -0.003 C 
ATOM     14  C   UNL     1      -6.092   1.739  25.140  0.00  0.00    +0.008 C 
ATOM     15  C   UNL     1      -4.217   0.334  24.260  0.00  0.00    +0.008 C 
ENDBRANCH  10  12
ENDBRANCH   3  10
ENDBRANCH   6   3
BRANCH   6   9
ATOM      9  C   UNL     1      -1.229   2.106  25.817  0.00  0.00    +0.085 C 
BRANCH   9  11
ATOM      2  O   UNL     1       0.047  -0.615  23.811  0.00  0.00    -0.358 OA
ATOM      4  N   UNL     1      -0.884  -0.058  24.678  0.00  0.00    -0.083 NA
ATOM     11  C   UNL     1      -0.448   1.184  24.902  0.00  0.00    +0.086 A 
ATOM     13  C   UNL     1       0.743   1.465  24.210  0.00  0.00    +0.072 A 
ATOM     16  C   UNL     1       1.011   0.300  23.539  0.00  0.00    +0.151 A 
BRANCH  16  17
ATOM     17  C   UNL     1       2.082  -0.126  22.631  0.00  0.00    +0.161 C 
BRANCH  17   5
ATOM      5  N   UNL     1       3.431   0.099  23.178  0.00  0.00    -0.301 NA
ATOM     18  C   UNL     1       4.258   0.799  22.202  0.00  0.00    +0.105 C 
ATOM     19  C   UNL     1       4.038  -1.174  23.554  0.00  0.00    +0.105 C 
ENDBRANCH  17   5
ENDBRANCH  16  17
ENDBRANCH   9  11
ENDBRANCH   6   9
TORSDOF 7
ENDMDL
MODEL 6
REMARK VINA RESULT:      -4.4      2.523      5.480
REMARK  Name = 56775440
REMARK  11 active torsions:
REMARK  status: ('A' for Active; 'I' for Inactive)
REMARK    1  A    between atoms: N_3  and  C_6
REMARK    2  A    between atoms: N_3  and  C_10
REMARK    3  A    between atoms: N_5  and  C_17
REMARK    4  A    between atoms: N_5  and  C_18
REMARK    5  A    between atoms: N_5  and  C_19
REMARK    6  A    between atoms: C_6  and  C_9
REMARK    7  A    between atoms: C_9  and  C_11
REMARK    8  A    between atoms: C_10  and  C_12
REMARK    9  A    between atoms: C_12  and  C_14
REMARK   10  A    between atoms: C_12  and  C_15
REMARK   11  A    between atoms: C_16  and  C_17
REMARK                            x       y       z     vdW  Elec       q    Type
REMARK                         _______ _______ _______ _____ _____    ______ ____
ROOT
ATOM      1  O   UNL     1      -3.202  -3.235  25.330  0.00  0.00    -0.376 OA
ATOM      6  C   UNL     1      -2.840  -1.255  24.619  0.00  0.00    +0.072 C 
ATOM      7  C   UNL     1      -3.616  -1.916  25.754  0.00  0.00    +0.184 C 
ATOM      8  C   UNL     1      -2.370  -2.668  24.292  0.00  0.00    +0.184 C 
ENDROOT
BRANCH   6   3
ATOM      3  N   UNL     1      -1.717  -0.505  25.189  0.00  0.00    -0.306 NA
ATOM     20  H   UNL     1      -1.573  -0.628  26.190  0.00  0.00    +0.123 HD
BRANCH   3  10
ATOM     10  C   UNL     1      -0.498  -0.825  24.454  0.00  0.00    +0.084 C 
BRANCH  10  12
ATOM     12  C   UNL     1       0.011   0.360  23.616  0.00  0.00    -0.003 C 
ATOM     14  C   UNL     1       0.254   1.568  24.524  0.00  0.00    +0.008 C 
ATOM     15  C   UNL     1       1.292   0.028  22.847  0.00  0.00    +0.008 C 
ENDBRANCH  10  12
ENDBRANCH   3  10
ENDBRANCH   6   3
BRANCH   6   9
ATOM      9  C   UNL     1      -3.591  -0.482  23.580  0.00  0.00    +0.085 C 
BRANCH   9  11
ATOM      2  O   UNL     1      -4.688   2.604  25.106  0.00  0.00    -0.358 OA
ATOM      4  N   UNL     1      -4.760   1.229  24.923  0.00  0.00    -0.083 NA
ATOM     11  C   UNL     1      -3.810   0.949  24.028  0.00  0.00    +0.086 A 
ATOM     13  C   UNL     1      -3.112   2.097  23.614  0.00  0.00    +0.072 A 
ATOM     16  C   UNL     1      -3.704   3.110  24.321  0.00  0.00    +0.151 A 
BRANCH  16  17
ATOM     17  C   UNL     1      -3.490   4.560  24.392  0.00  0.00    +0.161 C 
BRANCH  17   5
ATOM      5  N   UNL     1      -2.548   4.957  25.453  0.00  0.00    -0.301 NA
ATOM     18  C   UNL     1      -1.186   4.978  24.932  0.00  0.00    +0.105 C 
ATOM     19  C   UNL     1      -2.656   4.045  26.586  0.00  0.00    +0.105 C 
ENDBRANCH  17   5
ENDBRANCH  16  17
ENDBRANCH   9  11
ENDBRANCH   6   9
TORSDOF 7
ENDMDL
MODEL 7
REMARK VINA RESULT:      -4.2      2.943      4.841
REMARK  Name = 56775440
REMARK  11 active torsions:
REMARK  status: ('A' for Active; 'I' for Inactive)
REMARK    1  A    between atoms: N_3  and  C_6
REMARK    2  A    between atoms: N_3  and  C_10
REMARK    3  A    between atoms: N_5  and  C_17
REMARK    4  A    between atoms: N_5  and  C_18
REMARK    5  A    between atoms: N_5  and  C_19
REMARK    6  A    between atoms: C_6  and  C_9
REMARK    7  A    between atoms: C_9  and  C_11
REMARK    8  A    between atoms: C_10  and  C_12
REMARK    9  A    between atoms: C_12  and  C_14
REMARK   10  A    between atoms: C_12  and  C_15
REMARK   11  A    between atoms: C_16  and  C_17
REMARK                            x       y       z     vdW  Elec       q    Type
REMARK                         _______ _______ _______ _____ _____    ______ ____
ROOT
ATOM      1  O   UNL     1      -6.381   4.620  25.756  0.00  0.00    -0.376 OA
ATOM      6  C   UNL     1      -4.776   3.314  25.232  0.00  0.00    +0.072 C 
ATOM      7  C   UNL     1      -5.109   4.795  25.092  0.00  0.00    +0.184 C 
ATOM      8  C   UNL     1      -6.087   3.226  26.005  0.00  0.00    +0.184 C 
ENDROOT
BRANCH   6   3
ATOM      3  N   UNL     1      -3.661   3.167  26.173  0.00  0.00    -0.306 NA
ATOM     20  H   UNL     1      -3.215   2.252  26.181  0.00  0.00    +0.123 HD
BRANCH   3  10
ATOM     10  C   UNL     1      -2.677   4.215  25.923  0.00  0.00    +0.084 C 
BRANCH  10  12
ATOM     12  C   UNL     1      -1.436   3.690  25.181  0.00  0.00    -0.003 C 
ATOM     14  C   UNL     1      -0.554   4.866  24.753  0.00  0.00    +0.008 C 
ATOM     15  C   UNL     1      -0.615   2.713  26.026  0.00  0.00    +0.008 C 
ENDBRANCH  10  12
ENDBRANCH   3  10
ENDBRANCH   6   3
BRANCH   6   9
ATOM      9  C   UNL     1      -4.607   2.487  23.994  0.00  0.00    +0.085 C 
BRANCH   9  11
ATOM      2  O   UNL     1      -3.992  -0.828  25.291  0.00  0.00    -0.358 OA
ATOM      4  N   UNL     1      -4.733   0.345  25.214  0.00  0.00    -0.083 NA
ATOM     11  C   UNL     1      -4.079   1.109  24.336  0.00  0.00    +0.086 A 
ATOM     13  C   UNL     1      -2.930   0.477  23.829  0.00  0.00    +0.072 A 
ATOM     16  C   UNL     1      -2.921  -0.738  24.462  0.00  0.00    +0.151 A 
BRANCH  16  17
ATOM     17  C   UNL     1      -2.027  -1.900  24.419  0.00  0.00    +0.161 C 
BRANCH  17   5
ATOM      5  N   UNL     1      -0.701  -1.635  25.007  0.00  0.00    -0.301 NA
ATOM     18  C   UNL     1      -0.846  -0.911  26.264  0.00  0.00    +0.105 C 
ATOM     19  C   UNL     1       0.122  -0.883  24.066  0.00  0.00    +0.105 C 
ENDBRANCH  17   5
ENDBRANCH  16  17
ENDBRANCH   9  11
ENDBRANCH   6   9
TORSDOF 7
ENDMDL
MODEL 8
REMARK VINA RESULT:      -4.0      2.289      3.735
REMARK  Name = 56775440
REMARK  11 active torsions:
REMARK  status: ('A' for Active; 'I' for Inactive)
REMARK    1  A    between atoms: N_3  and  C_6
REMARK    2  A    between atoms: N_3  and  C_10
REMARK    3  A    between atoms: N_5  and  C_17
REMARK    4  A    between atoms: N_5  and  C_18
REMARK    5  A    between atoms: N_5  and  C_19
REMARK    6  A    between atoms: C_6  and  C_9
REMARK    7  A    between atoms: C_9  and  C_11
REMARK    8  A    between atoms: C_10  and  C_12
REMARK    9  A    between atoms: C_12  and  C_14
REMARK   10  A    between atoms: C_12  and  C_15
REMARK   11  A    between atoms: C_16  and  C_17
REMARK                            x       y       z     vdW  Elec       q    Type
REMARK                         _______ _______ _______ _____ _____    ______ ____
ROOT
ATOM      1  O   UNL     1      -6.275   1.979  25.250  0.00  0.00    -0.376 OA
ATOM      6  C   UNL     1      -4.208   2.049  24.719  0.00  0.00    +0.072 C 
ATOM      7  C   UNL     1      -5.407   2.991  24.691  0.00  0.00    +0.184 C 
ATOM      8  C   UNL     1      -5.161   1.068  25.392  0.00  0.00    +0.184 C 
ENDROOT
BRANCH   6   3
ATOM      3  N   UNL     1      -3.249   2.534  25.716  0.00  0.00    -0.306 NA
ATOM     20  H   UNL     1      -2.428   1.948  25.853  0.00  0.00    +0.123 HD
BRANCH   3  10
ATOM     10  C   UNL     1      -2.855   3.899  25.382  0.00  0.00    +0.084 C 
BRANCH  10  12
ATOM     12  C   UNL     1      -1.391   4.195  25.753  0.00  0.00    -0.003 C 
ATOM     14  C   UNL     1      -0.700   2.903  26.198  0.00  0.00    +0.008 C 
ATOM     15  C   UNL     1      -0.609   4.827  24.599  0.00  0.00    +0.008 C 
ENDBRANCH  10  12
ENDBRANCH   3  10
ENDBRANCH   6   3
BRANCH   6   9
ATOM      9  C   UNL     1      -3.560   1.660  23.426  0.00  0.00    +0.085 C 
BRANCH   9  11
ATOM      2  O   UNL     1      -1.024  -0.725  24.394  0.00  0.00    -0.358 OA
ATOM      4  N   UNL     1      -2.339  -0.280  24.345  0.00  0.00    -0.083 NA
ATOM     11  C   UNL     1      -2.288   0.876  23.678  0.00  0.00    +0.086 A 
ATOM     13  C   UNL     1      -0.979   1.207  23.284  0.00  0.00    +0.072 A 
ATOM     16  C   UNL     1      -0.223   0.168  23.759  0.00  0.00    +0.151 A 
BRANCH  16  17
ATOM     17  C   UNL     1       1.208  -0.150  23.716  0.00  0.00    +0.161 C 
BRANCH  17   5
ATOM      5  N   UNL     1       1.866   0.297  22.475  0.00  0.00    -0.301 NA
ATOM     18  C   UNL     1       1.547  -0.615  21.383  0.00  0.00    +0.105 C 
ATOM     19  C   UNL     1       3.308   0.383  22.676  0.00  0.00    +0.105 C 
ENDBRANCH  17   5
ENDBRANCH  16  17
ENDBRANCH   9  11
ENDBRANCH   6   9
TORSDOF 7
ENDMDL
MODEL 9
REMARK VINA RESULT:      -3.9      2.195      5.544
REMARK  Name = 56775440
REMARK  11 active torsions:
REMARK  status: ('A' for Active; 'I' for Inactive)
REMARK    1  A    between atoms: N_3  and  C_6
REMARK    2  A    between atoms: N_3  and  C_10
REMARK    3  A    between atoms: N_5  and  C_17
REMARK    4  A    between atoms: N_5  and  C_18
REMARK    5  A    between atoms: N_5  and  C_19
REMARK    6  A    between atoms: C_6  and  C_9
REMARK    7  A    between atoms: C_9  and  C_11
REMARK    8  A    between atoms: C_10  and  C_12
REMARK    9  A    between atoms: C_12  and  C_14
REMARK   10  A    between atoms: C_12  and  C_15
REMARK   11  A    between atoms: C_16  and  C_17
REMARK                            x       y       z     vdW  Elec       q    Type
REMARK                         _______ _______ _______ _____ _____    ______ ____
ROOT
ATOM      1  O   UNL     1       1.292   0.048  22.777  0.00  0.00    -0.376 OA
ATOM      6  C   UNL     1      -0.323  -0.355  24.112  0.00  0.00    +0.072 C 
ATOM      7  C   UNL     1      -0.019   0.622  22.982  0.00  0.00    +0.184 C 
ATOM      8  C   UNL     1       1.032  -0.966  23.774  0.00  0.00    +0.184 C 
ENDROOT
BRANCH   6   3
ATOM      3  N   UNL     1      -1.378  -1.273  23.673  0.00  0.00    -0.306 NA
ATOM     20  H   UNL     1      -1.180  -1.786  22.816  0.00  0.00    +0.123 HD
BRANCH   3  10
ATOM     10  C   UNL     1      -1.700  -2.194  24.757  0.00  0.00    +0.084 C 
BRANCH  10  12
ATOM     12  C   UNL     1      -3.214  -2.297  25.011  0.00  0.00    -0.003 C 
ATOM     14  C   UNL     1      -3.602  -1.401  26.190  0.00  0.00    +0.008 C 
ATOM     15  C   UNL     1      -4.043  -1.919  23.782  0.00  0.00    +0.008 C 
ENDBRANCH  10  12
ENDBRANCH   3  10
ENDBRANCH   6   3
BRANCH   6   9
ATOM      9  C   UNL     1      -0.553   0.180  25.492  0.00  0.00    +0.085 C 
BRANCH   9  11
ATOM      2  O   UNL     1      -1.822   3.554  25.744  0.00  0.00    -0.358 OA
ATOM      4  N   UNL     1      -0.845   2.589  25.952  0.00  0.00    -0.083 NA
ATOM     11  C   UNL     1      -1.356   1.465  25.444  0.00  0.00    +0.086 A 
ATOM     13  C   UNL     1      -2.640   1.658  24.906  0.00  0.00    +0.072 A 
ATOM     16  C   UNL     1      -2.886   2.988  25.120  0.00  0.00    +0.151 A 
BRANCH  16  17
ATOM     17  C   UNL     1      -4.017   3.874  24.821  0.00  0.00    +0.161 C 
BRANCH  17   5
ATOM      5  N   UNL     1      -5.218   3.572  25.619  0.00  0.00    -0.301 NA
ATOM     18  C   UNL     1      -5.863   2.365  25.117  0.00  0.00    +0.105 C 
ATOM     19  C   UNL     1      -6.138   4.704  25.587  0.00  0.00    +0.105 C 
ENDBRANCH  17   5
ENDBRANCH  16  17
ENDBRANCH   9  11
ENDBRANCH   6   9
TORSDOF 7
ENDMDL
MODEL 10
REMARK VINA RESULT:      -3.2      2.397      6.189
REMARK  Name = 56775440
REMARK  11 active torsions:
REMARK  status: ('A' for Active; 'I' for Inactive)
REMARK    1  A    between atoms: N_3  and  C_6
REMARK    2  A    between atoms: N_3  and  C_10
REMARK    3  A    between atoms: N_5  and  C_17
REMARK    4  A    between atoms: N_5  and  C_18
REMARK    5  A    between atoms: N_5  and  C_19
REMARK    6  A    between atoms: C_6  and  C_9
REMARK    7  A    between atoms: C_9  and  C_11
REMARK    8  A    between atoms: C_10  and  C_12
REMARK    9  A    between atoms: C_12  and  C_14
REMARK   10  A    between atoms: C_12  and  C_15
REMARK   11  A    between atoms: C_16  and  C_17
REMARK                            x       y       z     vdW  Elec       q    Type
REMARK                         _______ _______ _______ _____ _____    ______ ____
ROOT
ATOM      1  O   UNL     1      -1.738  -0.642  24.273  0.00  0.00    -0.376 OA
ATOM      6  C   UNL     1       0.120   0.385  24.052  0.00  0.00    +0.072 C 
ATOM      7  C   UNL     1      -0.423  -0.791  24.856  0.00  0.00    +0.184 C 
ATOM      8  C   UNL     1      -1.264   0.418  23.412  0.00  0.00    +0.184 C 
ENDROOT
BRANCH   6   3
ATOM      3  N   UNL     1       1.082  -0.121  23.068  0.00  0.00    -0.306 NA
ATOM     20  H   UNL     1       0.724  -0.224  22.121  0.00  0.00    +0.123 HD
BRANCH   3  10
ATOM     10  C   UNL     1       2.271   0.726  23.076  0.00  0.00    +0.084 C 
BRANCH  10  12
ATOM     12  C   UNL     1       3.562  -0.071  22.821  0.00  0.00    -0.003 C 
ATOM     14  C   UNL     1       4.779   0.815  23.100  0.00  0.00    +0.008 C 
ATOM     15  C   UNL     1       3.645  -1.341  23.670  0.00  0.00    +0.008 C 
ENDBRANCH  10  12
ENDBRANCH   3  10
ENDBRANCH   6   3
BRANCH   6   9
ATOM      9  C   UNL     1       0.612   1.597  24.780  0.00  0.00    +0.085 C 
BRANCH   9  11
ATOM      2  O   UNL     1      -1.599   4.455  24.802  0.00  0.00    -0.358 OA
ATOM      4  N   UNL     1      -0.427   3.810  24.428  0.00  0.00    -0.083 NA
ATOM     11  C   UNL     1      -0.510   2.596  24.981  0.00  0.00    +0.086 A 
ATOM     13  C   UNL     1      -1.700   2.420  25.707  0.00  0.00    +0.072 A 
ATOM     16  C   UNL     1      -2.349   3.619  25.562  0.00  0.00    +0.151 A 
BRANCH  16  17
ATOM     17  C   UNL     1      -3.631   4.144  26.045  0.00  0.00    +0.161 C 
BRANCH  17   5
ATOM      5  N   UNL     1      -4.783   3.688  25.248  0.00  0.00    -0.301 NA
ATOM     18  C   UNL     1      -5.523   2.665  25.978  0.00  0.00    +0.105 C 
ATOM     19  C   UNL     1      -4.331   3.181  23.957  0.00  0.00    +0.105 C 
ENDBRANCH  17   5
ENDBRANCH  16  17
ENDBRANCH   9  11
ENDBRANCH   6   9
TORSDOF 7
ENDMDL
