MODEL 1
REMARK VINA RESULT:       0.2      0.000      0.000
REMARK  Name = 26743391
REMARK  9 active torsions:
REMARK  status: ('A' for Active; 'I' for Inactive)
REMARK    1  A    between atoms: S_1  and  N_6
REMARK    2  A    between atoms: S_1  and  C_20
REMARK    3  A    between atoms: O_5  and  C_26
REMARK    4  A    between atoms: O_5  and  C_29
REMARK    5  A    between atoms: N_6  and  C_11
REMARK    6  A    between atoms: N_7  and  C_19
REMARK    7  A    between atoms: C_9  and  C_12
REMARK    8  A    between atoms: C_15  and  C_17
REMARK    9  A    between atoms: C_16  and  C_18
REMARK                            x       y       z     vdW  Elec       q    Type
REMARK                         _______ _______ _______ _____ _____    ______ ____
ROOT
ATOM      9  C   UNL     1      -2.644   0.963  24.635  0.00  0.00    +0.047 C 
ATOM     10  C   UNL     1      -3.683   0.908  23.495  0.00  0.00    +0.037 C 
ATOM     11  C   UNL     1      -5.053   0.848  24.178  0.00  0.00    +0.100 C 
ATOM     13  C   UNL     1      -3.414   0.417  25.802  0.00  0.00    -0.021 C 
ATOM     14  C   UNL     1      -4.725   0.362  25.550  0.00  0.00    -0.010 C 
ENDROOT
BRANCH   9  12
ATOM      7  N   UNL     1       0.696  -0.313  23.840  0.00  0.00    -0.236 N 
ATOM      8  N   UNL     1       0.080  -1.503  23.921  0.00  0.00    -0.171 NA
ATOM     12  C   UNL     1      -1.367   0.219  24.318  0.00  0.00    +0.003 A 
ATOM     15  C   UNL     1      -0.126   0.751  24.070  0.00  0.00    +0.046 A 
ATOM     16  C   UNL     1      -1.181  -1.173  24.215  0.00  0.00    +0.064 A 
ATOM     17  C   UNL     1       0.335   2.154  24.034  0.00  0.00    +0.066 C 
ATOM     18  C   UNL     1      -2.188  -2.235  24.389  0.00  0.00    +0.068 C 
BRANCH   7  19
ATOM     19  C   UNL     1       2.059  -0.258  23.541  0.00  0.00    +0.066 A 
ATOM     21  C   UNL     1       2.899  -1.303  23.923  0.00  0.00    +0.031 A 
ATOM     22  C   UNL     1       2.579   0.844  22.862  0.00  0.00    +0.031 A 
ATOM     24  C   UNL     1       4.261  -1.247  23.627  0.00  0.00    +0.048 A 
ATOM     25  C   UNL     1       3.940   0.900  22.565  0.00  0.00    +0.048 A 
ATOM     26  C   UNL     1       4.781  -0.145  22.947  0.00  0.00    +0.120 A 
BRANCH  26   5
ATOM      5  O   UNL     1       6.110  -0.091  22.658  0.00  0.00    -0.495 OA
ATOM     29  C   UNL     1       7.018  -0.245  23.747  0.00  0.00    +0.277 C 
ENDBRANCH  26   5
ENDBRANCH   7  19
ENDBRANCH   9  12
BRANCH  11   6
ATOM      6  N   UNL     1      -5.647   2.198  24.273  0.00  0.00    -0.183 NA
ATOM     30  H   UNL     1      -5.657   2.734  23.396  0.00  0.00    +0.149 HD
BRANCH   6   1
ATOM      1  S   UNL     1      -5.543   3.072  25.729  0.00  0.00    +0.065 S 
ATOM      3  O   UNL     1      -5.621   2.154  26.848  0.00  0.00    -0.153 OA
ATOM      4  O   UNL     1      -6.434   4.213  25.657  0.00  0.00    -0.153 OA
BRANCH   1  20
ATOM      2  S   UNL     1      -3.438   4.346  24.134  0.00  0.00    -0.077 S 
ATOM     20  C   UNL     1      -3.892   3.702  25.654  0.00  0.00    +0.142 A 
ATOM     23  C   UNL     1      -2.872   3.785  26.577  0.00  0.00    +0.036 A 
ATOM     27  C   UNL     1      -1.702   4.387  26.028  0.00  0.00    +0.010 A 
ATOM     28  C   UNL     1      -1.874   4.740  24.708  0.00  0.00    +0.047 A 
ENDBRANCH   1  20
ENDBRANCH   6   1
ENDBRANCH  11   6
TORSDOF 6
ENDMDL
MODEL 2
REMARK VINA RESULT:       2.4      1.630      3.398
REMARK  Name = 26743391
REMARK  9 active torsions:
REMARK  status: ('A' for Active; 'I' for Inactive)
REMARK    1  A    between atoms: S_1  and  N_6
REMARK    2  A    between atoms: S_1  and  C_20
REMARK    3  A    between atoms: O_5  and  C_26
REMARK    4  A    between atoms: O_5  and  C_29
REMARK    5  A    between atoms: N_6  and  C_11
REMARK    6  A    between atoms: N_7  and  C_19
REMARK    7  A    between atoms: C_9  and  C_12
REMARK    8  A    between atoms: C_15  and  C_17
REMARK    9  A    between atoms: C_16  and  C_18
REMARK                            x       y       z     vdW  Elec       q    Type
REMARK                         _______ _______ _______ _____ _____    ______ ____
ROOT
ATOM      9  C   UNL     1      -2.195   1.729  23.614  0.00  0.00    +0.047 C 
ATOM     10  C   UNL     1      -2.910   2.775  24.494  0.00  0.00    +0.037 C 
ATOM     11  C   UNL     1      -4.138   3.228  23.695  0.00  0.00    +0.100 C 
ATOM     13  C   UNL     1      -2.726   2.038  22.245  0.00  0.00    -0.021 C 
ATOM     14  C   UNL     1      -3.786   2.850  22.295  0.00  0.00    -0.010 C 
ENDROOT
BRANCH   9  12
ATOM      7  N   UNL     1       1.442   1.301  23.688  0.00  0.00    -0.236 N 
ATOM      8  N   UNL     1       1.413   2.553  24.173  0.00  0.00    -0.171 NA
ATOM     12  C   UNL     1      -0.689   1.776  23.733  0.00  0.00    +0.003 A 
ATOM     15  C   UNL     1       0.209   0.789  23.408  0.00  0.00    +0.046 A 
ATOM     16  C   UNL     1       0.108   2.839  24.198  0.00  0.00    +0.064 A 
ATOM     17  C   UNL     1      -0.001  -0.568  22.864  0.00  0.00    +0.066 C 
ATOM     18  C   UNL     1      -0.336   4.159  24.681  0.00  0.00    +0.068 C 
BRANCH   7  19
ATOM     19  C   UNL     1       2.666   0.653  23.516  0.00  0.00    +0.066 A 
ATOM     21  C   UNL     1       2.790  -0.700  23.834  0.00  0.00    +0.031 A 
ATOM     22  C   UNL     1       3.766   1.359  23.028  0.00  0.00    +0.031 A 
ATOM     24  C   UNL     1       4.015  -1.346  23.665  0.00  0.00    +0.048 A 
ATOM     25  C   UNL     1       4.990   0.712  22.858  0.00  0.00    +0.048 A 
ATOM     26  C   UNL     1       5.114  -0.640  23.177  0.00  0.00    +0.120 A 
BRANCH  26   5
ATOM      5  O   UNL     1       6.309  -1.272  23.011  0.00  0.00    -0.495 OA
ATOM     29  C   UNL     1       7.482  -0.463  23.059  0.00  0.00    +0.277 C 
ENDBRANCH  26   5
ENDBRANCH   7  19
ENDBRANCH   9  12
BRANCH  11   6
ATOM      6  N   UNL     1      -5.338   2.472  24.112  0.00  0.00    -0.183 NA
ATOM     30  H   UNL     1      -6.234   2.870  23.804  0.00  0.00    +0.149 HD
BRANCH   6   1
ATOM      1  S   UNL     1      -5.326   1.593  25.569  0.00  0.00    +0.065 S 
ATOM      3  O   UNL     1      -6.691   1.343  25.991  0.00  0.00    -0.153 OA
ATOM      4  O   UNL     1      -4.381   2.207  26.480  0.00  0.00    -0.153 OA
BRANCH   1  20
ATOM      2  S   UNL     1      -3.522  -0.638  26.172  0.00  0.00    -0.077 S 
ATOM     20  C   UNL     1      -4.623   0.054  25.057  0.00  0.00    +0.142 A 
ATOM     23  C   UNL     1      -4.773  -0.723  23.929  0.00  0.00    +0.036 A 
ATOM     27  C   UNL     1      -3.975  -1.902  23.981  0.00  0.00    +0.010 A 
ATOM     28  C   UNL     1      -3.245  -1.981  25.147  0.00  0.00    +0.047 A 
ENDBRANCH   1  20
ENDBRANCH   6   1
ENDBRANCH  11   6
TORSDOF 6
ENDMDL
MODEL 3
REMARK VINA RESULT:       3.7      1.312      2.197
REMARK  Name = 26743391
REMARK  9 active torsions:
REMARK  status: ('A' for Active; 'I' for Inactive)
REMARK    1  A    between atoms: S_1  and  N_6
REMARK    2  A    between atoms: S_1  and  C_20
REMARK    3  A    between atoms: O_5  and  C_26
REMARK    4  A    between atoms: O_5  and  C_29
REMARK    5  A    between atoms: N_6  and  C_11
REMARK    6  A    between atoms: N_7  and  C_19
REMARK    7  A    between atoms: C_9  and  C_12
REMARK    8  A    between atoms: C_15  and  C_17
REMARK    9  A    between atoms: C_16  and  C_18
REMARK                            x       y       z     vdW  Elec       q    Type
REMARK                         _______ _______ _______ _____ _____    ______ ____
ROOT
ATOM      9  C   UNL     1      -2.034   0.306  25.026  0.00  0.00    +0.047 C 
ATOM     10  C   UNL     1      -3.178   1.100  24.361  0.00  0.00    +0.037 C 
ATOM     11  C   UNL     1      -4.346   0.118  24.223  0.00  0.00    +0.100 C 
ATOM     13  C   UNL     1      -2.417  -1.116  24.740  0.00  0.00    -0.021 C 
ATOM     14  C   UNL     1      -3.678  -1.214  24.309  0.00  0.00    -0.010 C 
ENDROOT
BRANCH   9  12
ATOM      7  N   UNL     1       1.417   0.700  23.862  0.00  0.00    -0.236 N 
ATOM      8  N   UNL     1       1.065   1.994  23.776  0.00  0.00    -0.171 NA
ATOM     12  C   UNL     1      -0.663   0.703  24.528  0.00  0.00    +0.003 A 
ATOM     15  C   UNL     1       0.418  -0.115  24.307  0.00  0.00    +0.046 A 
ATOM     16  C   UNL     1      -0.207   1.989  24.184  0.00  0.00    +0.064 A 
ATOM     17  C   UNL     1       0.577  -1.574  24.477  0.00  0.00    +0.066 C 
ATOM     18  C   UNL     1      -0.958   3.257  24.229  0.00  0.00    +0.068 C 
BRANCH   7  19
ATOM     19  C   UNL     1       2.709   0.309  23.508  0.00  0.00    +0.066 A 
ATOM     21  C   UNL     1       3.517   1.165  22.759  0.00  0.00    +0.031 A 
ATOM     22  C   UNL     1       3.193  -0.938  23.905  0.00  0.00    +0.031 A 
ATOM     24  C   UNL     1       4.808   0.773  22.404  0.00  0.00    +0.048 A 
ATOM     25  C   UNL     1       4.484  -1.329  23.551  0.00  0.00    +0.048 A 
ATOM     26  C   UNL     1       5.291  -0.474  22.800  0.00  0.00    +0.120 A 
BRANCH  26   5
ATOM      5  O   UNL     1       6.551  -0.855  22.455  0.00  0.00    -0.495 OA
ATOM     29  C   UNL     1       7.625  -0.322  23.228  0.00  0.00    +0.277 C 
ENDBRANCH  26   5
ENDBRANCH   7  19
ENDBRANCH   9  12
BRANCH  11   6
ATOM      6  N   UNL     1      -5.284   0.261  25.357  0.00  0.00    -0.183 NA
ATOM     30  H   UNL     1      -5.703  -0.616  25.691  0.00  0.00    +0.149 HD
BRANCH   6   1
ATOM      1  S   UNL     1      -6.198   1.686  25.531  0.00  0.00    +0.065 S 
ATOM      3  O   UNL     1      -6.898   1.657  26.800  0.00  0.00    -0.153 OA
ATOM      4  O   UNL     1      -6.925   1.930  24.301  0.00  0.00    -0.153 OA
BRANCH   1  20
ATOM      2  S   UNL     1      -4.678   3.806  24.193  0.00  0.00    -0.077 S 
ATOM     20  C   UNL     1      -4.932   2.916  25.634  0.00  0.00    +0.142 A 
ATOM     23  C   UNL     1      -4.089   3.319  26.647  0.00  0.00    +0.036 A 
ATOM     27  C   UNL     1      -3.223   4.373  26.234  0.00  0.00    +0.010 A 
ATOM     28  C   UNL     1      -3.437   4.735  24.923  0.00  0.00    +0.047 A 
ENDBRANCH   1  20
ENDBRANCH   6   1
ENDBRANCH  11   6
TORSDOF 6
ENDMDL
