MODEL 1
REMARK VINA RESULT:       5.0      0.000      0.000
REMARK  Name = 28962043
REMARK  10 active torsions:
REMARK  status: ('A' for Active; 'I' for Inactive)
REMARK    1  A    between atoms: S_1  and  N_10
REMARK    2  A    between atoms: S_1  and  C_24
REMARK    3  A    between atoms: O_3  and  C_14
REMARK    4  A    between atoms: O_4  and  C_21
REMARK    5  A    between atoms: O_7  and  C_32
REMARK    6  A    between atoms: O_7  and  C_33
REMARK    7  A    between atoms: N_8  and  C_12
REMARK    8  A    between atoms: N_10  and  C_18
REMARK    9  A    between atoms: C_13  and  C_18
REMARK   10  A    between atoms: C_15  and  C_21
REMARK                            x       y       z     vdW  Elec       q    Type
REMARK                         _______ _______ _______ _____ _____    ______ ____
ROOT
ATOM      2  O   UNL     1      -4.546   4.305  23.905  0.00  0.00    -0.366 OA
ATOM     12  C   UNL     1      -2.252   3.853  24.348  0.00  0.00    +0.118 C 
ATOM     13  C   UNL     1      -3.418   3.556  23.398  0.00  0.00    +0.154 C 
ATOM     14  C   UNL     1      -2.952   4.206  25.652  0.00  0.00    +0.165 C 
ATOM     15  C   UNL     1      -4.161   4.969  25.124  0.00  0.00    +0.174 C 
ENDROOT
BRANCH  12   8
ATOM      8  N   UNL     1      -1.230   2.825  24.453  0.00  0.00    -0.292 NA
ATOM      9  N   UNL     1       1.173   1.455  23.741  0.00  0.00    -0.313 N 
ATOM     11  N   UNL     1       2.204  -0.654  23.444  0.00  0.00    -0.240 NA
ATOM     16  C   UNL     1      -1.162   2.039  23.214  0.00  0.00    +0.104 C 
ATOM     17  C   UNL     1       0.079   3.425  24.735  0.00  0.00    +0.104 C 
ATOM     19  C   UNL     1      -0.130   0.917  23.332  0.00  0.00    +0.122 C 
ATOM     20  C   UNL     1       1.154   2.349  24.904  0.00  0.00    +0.122 C 
ATOM     22  C   UNL     1       2.315   0.692  23.471  0.00  0.00    +0.121 A 
ATOM     23  C   UNL     1       3.498   1.378  23.248  0.00  0.00    +0.043 A 
ATOM     25  C   UNL     1       4.641   0.633  22.980  0.00  0.00    +0.005 A 
ATOM     26  C   UNL     1       3.335  -1.346  23.179  0.00  0.00    +0.113 A 
ATOM     29  C   UNL     1       4.567  -0.755  22.942  0.00  0.00    +0.020 A 
ENDBRANCH  12   8
BRANCH  14   3
ATOM      3  O   UNL     1      -3.368   3.040  26.351  0.00  0.00    -0.388 OA
ATOM     34  H   UNL     1      -2.579   2.494  26.510  0.00  0.00    +0.210 HD
ENDBRANCH  14   3
BRANCH  13  18
ATOM     18  C   UNL     1      -3.856   2.100  23.286  0.00  0.00    +0.139 C 
BRANCH  18  10
ATOM     10  N   UNL     1      -5.262   1.979  23.711  0.00  0.00    -0.187 NA
ATOM     35  H   UNL     1      -5.831   2.832  23.623  0.00  0.00    +0.148 HD
BRANCH  10   1
ATOM      1  S   UNL     1      -5.705   0.828  24.884  0.00  0.00    +0.058 S 
ATOM      5  O   UNL     1      -6.859   0.085  24.414  0.00  0.00    -0.153 OA
ATOM      6  O   UNL     1      -5.728   1.465  26.187  0.00  0.00    -0.153 OA
BRANCH   1  24
ATOM     24  C   UNL     1      -4.312  -0.260  24.866  0.00  0.00    +0.105 A 
ATOM     27  C   UNL     1      -4.324  -1.394  24.054  0.00  0.00    +0.032 A 
ATOM     28  C   UNL     1      -3.202   0.015  25.664  0.00  0.00    +0.032 A 
ATOM     30  C   UNL     1      -3.225  -2.253  24.040  0.00  0.00    +0.047 A 
ATOM     31  C   UNL     1      -2.103  -0.844  25.651  0.00  0.00    +0.047 A 
ATOM     32  C   UNL     1      -2.115  -1.978  24.839  0.00  0.00    +0.120 A 
BRANCH  32   7
ATOM      7  O   UNL     1      -1.043  -2.817  24.826  0.00  0.00    -0.495 OA
ATOM     33  C   UNL     1       0.162  -2.340  25.423  0.00  0.00    +0.277 C 
ENDBRANCH  32   7
ENDBRANCH   1  24
ENDBRANCH  10   1
ENDBRANCH  18  10
ENDBRANCH  13  18
BRANCH  15  21
ATOM     21  C   UNL     1      -5.354   5.030  26.060  0.00  0.00    +0.190 C 
BRANCH  21   4
ATOM      4  O   UNL     1      -6.298   4.048  25.664  0.00  0.00    -0.392 OA
ATOM     36  H   UNL     1      -6.452   4.166  24.711  0.00  0.00    +0.210 HD
ENDBRANCH  21   4
ENDBRANCH  15  21
TORSDOF 9
ENDMDL
MODEL 2
REMARK VINA RESULT:       6.1      2.651      3.860
REMARK  Name = 28962043
REMARK  10 active torsions:
REMARK  status: ('A' for Active; 'I' for Inactive)
REMARK    1  A    between atoms: S_1  and  N_10
REMARK    2  A    between atoms: S_1  and  C_24
REMARK    3  A    between atoms: O_3  and  C_14
REMARK    4  A    between atoms: O_4  and  C_21
REMARK    5  A    between atoms: O_7  and  C_32
REMARK    6  A    between atoms: O_7  and  C_33
REMARK    7  A    between atoms: N_8  and  C_12
REMARK    8  A    between atoms: N_10  and  C_18
REMARK    9  A    between atoms: C_13  and  C_18
REMARK   10  A    between atoms: C_15  and  C_21
REMARK                            x       y       z     vdW  Elec       q    Type
REMARK                         _______ _______ _______ _____ _____    ______ ____
ROOT
ATOM      2  O   UNL     1      -5.258   2.750  24.056  0.00  0.00    -0.366 OA
ATOM     12  C   UNL     1      -2.940   3.259  24.237  0.00  0.00    +0.118 C 
ATOM     13  C   UNL     1      -3.955   2.122  24.066  0.00  0.00    +0.154 C 
ATOM     14  C   UNL     1      -3.745   4.335  24.951  0.00  0.00    +0.165 C 
ATOM     15  C   UNL     1      -5.101   4.165  24.277  0.00  0.00    +0.174 C 
ENDROOT
BRANCH  12   8
ATOM      8  N   UNL     1      -1.681   2.906  24.870  0.00  0.00    -0.292 NA
ATOM      9  N   UNL     1       0.198   2.716  27.013  0.00  0.00    -0.313 N 
ATOM     11  N   UNL     1       2.471   2.912  27.641  0.00  0.00    -0.240 NA
ATOM     16  C   UNL     1      -1.000   4.107  25.370  0.00  0.00    +0.104 C 
ATOM     17  C   UNL     1      -1.905   1.964  25.973  0.00  0.00    +0.104 C 
ATOM     19  C   UNL     1       0.354   3.755  25.987  0.00  0.00    +0.122 C 
ATOM     20  C   UNL     1      -0.580   1.539  26.613  0.00  0.00    +0.122 C 
ATOM     22  C   UNL     1       1.204   2.588  27.978  0.00  0.00    +0.121 A 
ATOM     23  C   UNL     1       0.827   2.129  29.230  0.00  0.00    +0.043 A 
ATOM     25  C   UNL     1       1.815   1.995  30.199  0.00  0.00    +0.005 A 
ATOM     26  C   UNL     1       3.405   2.770  28.608  0.00  0.00    +0.113 A 
ATOM     29  C   UNL     1       3.131   2.319  29.890  0.00  0.00    +0.020 A 
ENDBRANCH  12   8
BRANCH  14   3
ATOM      3  O   UNL     1      -3.847   4.070  26.344  0.00  0.00    -0.388 OA
ATOM     34  H   UNL     1      -3.414   3.216  26.514  0.00  0.00    +0.210 HD
ENDBRANCH  14   3
BRANCH  13  18
ATOM     18  C   UNL     1      -3.977   1.056  25.155  0.00  0.00    +0.139 C 
BRANCH  18  10
ATOM     10  N   UNL     1      -4.516  -0.199  24.599  0.00  0.00    -0.187 NA
ATOM     35  H   UNL     1      -5.541  -0.262  24.551  0.00  0.00    +0.148 HD
BRANCH  10   1
ATOM      1  S   UNL     1      -3.620  -1.641  24.720  0.00  0.00    +0.058 S 
ATOM      5  O   UNL     1      -4.087  -2.580  23.719  0.00  0.00    -0.153 OA
ATOM      6  O   UNL     1      -3.546  -2.037  26.113  0.00  0.00    -0.153 OA
BRANCH   1  24
ATOM     24  C   UNL     1      -2.003  -1.102  24.250  0.00  0.00    +0.105 A 
ATOM     27  C   UNL     1      -0.879  -1.658  24.860  0.00  0.00    +0.032 A 
ATOM     28  C   UNL     1      -1.853  -0.121  23.271  0.00  0.00    +0.032 A 
ATOM     30  C   UNL     1       0.397  -1.232  24.490  0.00  0.00    +0.047 A 
ATOM     31  C   UNL     1      -0.577   0.305  22.900  0.00  0.00    +0.047 A 
ATOM     32  C   UNL     1       0.547  -0.250  23.511  0.00  0.00    +0.120 A 
BRANCH  32   7
ATOM      7  O   UNL     1       1.792   0.166  23.150  0.00  0.00    -0.495 OA
ATOM     33  C   UNL     1       2.246  -0.195  21.847  0.00  0.00    +0.277 C 
ENDBRANCH  32   7
ENDBRANCH   1  24
ENDBRANCH  10   1
ENDBRANCH  18  10
ENDBRANCH  13  18
BRANCH  15  21
ATOM     21  C   UNL     1      -6.291   4.683  25.063  0.00  0.00    +0.190 C 
BRANCH  21   4
ATOM      4  O   UNL     1      -6.563   3.787  26.129  0.00  0.00    -0.392 OA
ATOM     36  H   UNL     1      -5.713   3.583  26.555  0.00  0.00    +0.210 HD
ENDBRANCH  21   4
ENDBRANCH  15  21
TORSDOF 9
ENDMDL
MODEL 3
REMARK VINA RESULT:       7.2      1.401      1.917
REMARK  Name = 28962043
REMARK  10 active torsions:
REMARK  status: ('A' for Active; 'I' for Inactive)
REMARK    1  A    between atoms: S_1  and  N_10
REMARK    2  A    between atoms: S_1  and  C_24
REMARK    3  A    between atoms: O_3  and  C_14
REMARK    4  A    between atoms: O_4  and  C_21
REMARK    5  A    between atoms: O_7  and  C_32
REMARK    6  A    between atoms: O_7  and  C_33
REMARK    7  A    between atoms: N_8  and  C_12
REMARK    8  A    between atoms: N_10  and  C_18
REMARK    9  A    between atoms: C_13  and  C_18
REMARK   10  A    between atoms: C_15  and  C_21
REMARK                            x       y       z     vdW  Elec       q    Type
REMARK                         _______ _______ _______ _____ _____    ______ ____
ROOT
ATOM      2  O   UNL     1      -5.334   3.036  24.610  0.00  0.00    -0.366 OA
ATOM     12  C   UNL     1      -3.070   2.779  23.921  0.00  0.00    +0.118 C 
ATOM     13  C   UNL     1      -4.375   2.029  24.214  0.00  0.00    +0.154 C 
ATOM     14  C   UNL     1      -3.191   4.028  24.781  0.00  0.00    +0.165 C 
ATOM     15  C   UNL     1      -4.681   4.320  24.644  0.00  0.00    +0.174 C 
ENDROOT
BRANCH  12   8
ATOM      8  N   UNL     1      -1.841   2.024  24.098  0.00  0.00    -0.292 NA
ATOM      9  N   UNL     1       0.835   1.222  23.503  0.00  0.00    -0.313 N 
ATOM     11  N   UNL     1       2.336  -0.600  23.334  0.00  0.00    -0.240 NA
ATOM     16  C   UNL     1      -1.555   1.220  22.903  0.00  0.00    +0.104 C 
ATOM     17  C   UNL     1      -0.717   2.925  24.374  0.00  0.00    +0.104 C 
ATOM     19  C   UNL     1      -0.295   0.375  23.097  0.00  0.00    +0.122 C 
ATOM     20  C   UNL     1       0.574   2.138  24.617  0.00  0.00    +0.122 C 
ATOM     22  C   UNL     1       2.130   0.734  23.294  0.00  0.00    +0.121 A 
ATOM     23  C   UNL     1       3.128   1.666  23.058  0.00  0.00    +0.043 A 
ATOM     25  C   UNL     1       4.421   1.198  22.850  0.00  0.00    +0.005 A 
ATOM     26  C   UNL     1       3.604  -1.020  23.127  0.00  0.00    +0.113 A 
ATOM     29  C   UNL     1       4.671  -0.169  22.883  0.00  0.00    +0.020 A 
ENDBRANCH  12   8
BRANCH  14   3
ATOM      3  O   UNL     1      -2.862   3.761  26.138  0.00  0.00    -0.388 OA
ATOM     34  H   UNL     1      -2.937   2.801  26.275  0.00  0.00    +0.210 HD
ENDBRANCH  14   3
BRANCH  13  18
ATOM     18  C   UNL     1      -4.330   0.987  25.325  0.00  0.00    +0.139 C 
BRANCH  18  10
ATOM     10  N   UNL     1      -5.097  -0.202  24.912  0.00  0.00    -0.187 NA
ATOM     35  H   UNL     1      -5.788  -0.547  25.591  0.00  0.00    +0.148 HD
BRANCH  10   1
ATOM      1  S   UNL     1      -4.428  -1.308  23.803  0.00  0.00    +0.058 S 
ATOM      5  O   UNL     1      -4.200  -0.638  22.537  0.00  0.00    -0.153 OA
ATOM      6  O   UNL     1      -5.190  -2.542  23.849  0.00  0.00    -0.153 OA
BRANCH   1  24
ATOM     24  C   UNL     1      -2.855  -1.645  24.534  0.00  0.00    +0.105 A 
ATOM     27  C   UNL     1      -2.431  -0.912  25.643  0.00  0.00    +0.032 A 
ATOM     28  C   UNL     1      -2.038  -2.641  24.002  0.00  0.00    +0.032 A 
ATOM     30  C   UNL     1      -1.188  -1.177  26.219  0.00  0.00    +0.047 A 
ATOM     31  C   UNL     1      -0.795  -2.906  24.578  0.00  0.00    +0.047 A 
ATOM     32  C   UNL     1      -0.371  -2.174  25.686  0.00  0.00    +0.120 A 
BRANCH  32   7
ATOM      7  O   UNL     1       0.842  -2.431  26.248  0.00  0.00    -0.495 OA
ATOM     33  C   UNL     1       1.801  -3.113  25.441  0.00  0.00    +0.277 C 
ENDBRANCH  32   7
ENDBRANCH   1  24
ENDBRANCH  10   1
ENDBRANCH  18  10
ENDBRANCH  13  18
BRANCH  15  21
ATOM     21  C   UNL     1      -5.287   5.161  25.752  0.00  0.00    +0.190 C 
BRANCH  21   4
ATOM      4  O   UNL     1      -6.647   4.793  25.915  0.00  0.00    -0.392 OA
ATOM     36  H   UNL     1      -7.022   5.376  26.598  0.00  0.00    +0.210 HD
ENDBRANCH  21   4
ENDBRANCH  15  21
TORSDOF 9
ENDMDL
MODEL 4
REMARK VINA RESULT:       8.3      1.990      4.376
REMARK  Name = 28962043
REMARK  10 active torsions:
REMARK  status: ('A' for Active; 'I' for Inactive)
REMARK    1  A    between atoms: S_1  and  N_10
REMARK    2  A    between atoms: S_1  and  C_24
REMARK    3  A    between atoms: O_3  and  C_14
REMARK    4  A    between atoms: O_4  and  C_21
REMARK    5  A    between atoms: O_7  and  C_32
REMARK    6  A    between atoms: O_7  and  C_33
REMARK    7  A    between atoms: N_8  and  C_12
REMARK    8  A    between atoms: N_10  and  C_18
REMARK    9  A    between atoms: C_13  and  C_18
REMARK   10  A    between atoms: C_15  and  C_21
REMARK                            x       y       z     vdW  Elec       q    Type
REMARK                         _______ _______ _______ _____ _____    ______ ____
ROOT
ATOM      2  O   UNL     1      -4.467   0.581  24.721  0.00  0.00    -0.366 OA
ATOM     12  C   UNL     1      -2.180  -0.078  24.686  0.00  0.00    +0.118 C 
ATOM     13  C   UNL     1      -3.134   1.115  24.552  0.00  0.00    +0.154 C 
ATOM     14  C   UNL     1      -3.046  -1.259  24.274  0.00  0.00    +0.165 C 
ATOM     15  C   UNL     1      -4.385  -0.849  24.876  0.00  0.00    +0.174 C 
ENDROOT
BRANCH  12   8
ATOM      8  N   UNL     1      -0.911   0.033  23.987  0.00  0.00    -0.292 NA
ATOM      9  N   UNL     1       1.927  -0.108  23.697  0.00  0.00    -0.313 N 
ATOM     11  N   UNL     1       3.851   0.929  22.790  0.00  0.00    -0.240 NA
ATOM     16  C   UNL     1      -0.048   1.024  24.641  0.00  0.00    +0.104 C 
ATOM     17  C   UNL     1      -0.232  -1.268  23.943  0.00  0.00    +0.104 C 
ATOM     19  C   UNL     1       1.269   1.192  23.882  0.00  0.00    +0.122 C 
ATOM     20  C   UNL     1       1.080  -1.177  23.160  0.00  0.00    +0.122 C 
ATOM     22  C   UNL     1       3.304  -0.118  23.444  0.00  0.00    +0.121 A 
ATOM     23  C   UNL     1       4.021  -1.218  23.886  0.00  0.00    +0.043 A 
ATOM     25  C   UNL     1       5.389  -1.244  23.641  0.00  0.00    +0.005 A 
ATOM     26  C   UNL     1       5.184   0.871  22.570  0.00  0.00    +0.113 A 
ATOM     29  C   UNL     1       5.990  -0.183  22.971  0.00  0.00    +0.020 A 
ENDBRANCH  12   8
BRANCH  14   3
ATOM      3  O   UNL     1      -3.149  -1.360  22.860  0.00  0.00    -0.388 OA
ATOM     34  H   UNL     1      -2.392  -0.886  22.474  0.00  0.00    +0.210 HD
ENDBRANCH  14   3
BRANCH  13  18
ATOM     18  C   UNL     1      -3.113   1.861  23.223  0.00  0.00    +0.139 C 
BRANCH  18  10
ATOM     10  N   UNL     1      -4.137   2.922  23.242  0.00  0.00    -0.187 NA
ATOM     35  H   UNL     1      -4.582   3.130  22.338  0.00  0.00    +0.148 HD
BRANCH  10   1
ATOM      1  S   UNL     1      -4.069   4.155  24.414  0.00  0.00    +0.058 S 
ATOM      5  O   UNL     1      -5.102   3.929  25.407  0.00  0.00    -0.153 OA
ATOM      6  O   UNL     1      -3.968   5.438  23.745  0.00  0.00    -0.153 OA
BRANCH   1  24
ATOM     24  C   UNL     1      -2.504   3.845  25.174  0.00  0.00    +0.105 A 
ATOM     27  C   UNL     1      -2.436   3.093  26.347  0.00  0.00    +0.032 A 
ATOM     28  C   UNL     1      -1.338   4.352  24.602  0.00  0.00    +0.032 A 
ATOM     30  C   UNL     1      -1.201   2.849  26.948  0.00  0.00    +0.047 A 
ATOM     31  C   UNL     1      -0.102   4.108  25.202  0.00  0.00    +0.047 A 
ATOM     32  C   UNL     1      -0.034   3.357  26.375  0.00  0.00    +0.120 A 
BRANCH  32   7
ATOM      7  O   UNL     1       1.170   3.119  26.962  0.00  0.00    -0.495 OA
ATOM     33  C   UNL     1       1.155   2.593  28.288  0.00  0.00    +0.277 C 
ENDBRANCH  32   7
ENDBRANCH   1  24
ENDBRANCH  10   1
ENDBRANCH  18  10
ENDBRANCH  13  18
BRANCH  15  21
ATOM     21  C   UNL     1      -5.608  -1.492  24.248  0.00  0.00    +0.190 C 
BRANCH  21   4
ATOM      4  O   UNL     1      -5.218  -2.704  23.622  0.00  0.00    -0.392 OA
ATOM     36  H   UNL     1      -4.252  -2.674  23.515  0.00  0.00    +0.210 HD
ENDBRANCH  21   4
ENDBRANCH  15  21
TORSDOF 9
ENDMDL
MODEL 5
REMARK VINA RESULT:       8.3      1.942      3.372
REMARK  Name = 28962043
REMARK  10 active torsions:
REMARK  status: ('A' for Active; 'I' for Inactive)
REMARK    1  A    between atoms: S_1  and  N_10
REMARK    2  A    between atoms: S_1  and  C_24
REMARK    3  A    between atoms: O_3  and  C_14
REMARK    4  A    between atoms: O_4  and  C_21
REMARK    5  A    between atoms: O_7  and  C_32
REMARK    6  A    between atoms: O_7  and  C_33
REMARK    7  A    between atoms: N_8  and  C_12
REMARK    8  A    between atoms: N_10  and  C_18
REMARK    9  A    between atoms: C_13  and  C_18
REMARK   10  A    between atoms: C_15  and  C_21
REMARK                            x       y       z     vdW  Elec       q    Type
REMARK                         _______ _______ _______ _____ _____    ______ ____
ROOT
ATOM      2  O   UNL     1      -3.787   2.154  25.328  0.00  0.00    -0.366 OA
ATOM     12  C   UNL     1      -2.286   1.850  23.506  0.00  0.00    +0.118 C 
ATOM     13  C   UNL     1      -2.668   1.343  24.902  0.00  0.00    +0.154 C 
ATOM     14  C   UNL     1      -2.769   3.293  23.519  0.00  0.00    +0.165 C 
ATOM     15  C   UNL     1      -4.056   3.150  24.322  0.00  0.00    +0.174 C 
ENDROOT
BRANCH  12   8
ATOM      8  N   UNL     1      -0.900   1.665  23.113  0.00  0.00    -0.292 NA
ATOM      9  N   UNL     1       1.773   0.689  23.360  0.00  0.00    -0.313 N 
ATOM     11  N   UNL     1       4.070   1.199  23.105  0.00  0.00    -0.240 NA
ATOM     16  C   UNL     1       0.003   2.221  24.129  0.00  0.00    +0.104 C 
ATOM     17  C   UNL     1      -0.607   0.241  22.910  0.00  0.00    +0.104 C 
ATOM     19  C   UNL     1       1.464   2.084  23.700  0.00  0.00    +0.122 C 
ATOM     20  C   UNL     1       0.836   0.037  22.441  0.00  0.00    +0.122 C 
ATOM     22  C   UNL     1       3.114   0.287  23.387  0.00  0.00    +0.121 A 
ATOM     23  C   UNL     1       3.373  -1.037  23.702  0.00  0.00    +0.043 A 
ATOM     25  C   UNL     1       4.699  -1.452  23.730  0.00  0.00    +0.005 A 
ATOM     26  C   UNL     1       5.349   0.760  23.143  0.00  0.00    +0.113 A 
ATOM     29  C   UNL     1       5.712  -0.542  23.447  0.00  0.00    +0.020 A 
ENDBRANCH  12   8
BRANCH  14   3
ATOM      3  O   UNL     1      -1.853   4.142  24.197  0.00  0.00    -0.388 OA
ATOM     34  H   UNL     1      -1.959   3.987  25.152  0.00  0.00    +0.210 HD
ENDBRANCH  14   3
BRANCH  13  18
ATOM     18  C   UNL     1      -1.598   1.448  25.983  0.00  0.00    +0.139 C 
BRANCH  18  10
ATOM     10  N   UNL     1      -0.556   0.435  25.740  0.00  0.00    -0.187 NA
ATOM     35  H   UNL     1       0.032   0.589  24.910  0.00  0.00    +0.148 HD
BRANCH  10   1
ATOM      1  S   UNL     1      -0.766  -1.160  26.299  0.00  0.00    +0.058 S 
ATOM      5  O   UNL     1      -1.135  -1.130  27.702  0.00  0.00    -0.153 OA
ATOM      6  O   UNL     1       0.354  -1.967  25.856  0.00  0.00    -0.153 OA
BRANCH   1  24
ATOM     24  C   UNL     1      -2.178  -1.683  25.375  0.00  0.00    +0.105 A 
ATOM     27  C   UNL     1      -3.417  -1.082  25.595  0.00  0.00    +0.032 A 
ATOM     28  C   UNL     1      -2.054  -2.698  24.427  0.00  0.00    +0.032 A 
ATOM     30  C   UNL     1      -4.532  -1.496  24.866  0.00  0.00    +0.047 A 
ATOM     31  C   UNL     1      -3.169  -3.113  23.698  0.00  0.00    +0.047 A 
ATOM     32  C   UNL     1      -4.408  -2.512  23.918  0.00  0.00    +0.120 A 
BRANCH  32   7
ATOM      7  O   UNL     1      -5.496  -2.916  23.208  0.00  0.00    -0.495 OA
ATOM     33  C   UNL     1      -5.312  -3.997  22.295  0.00  0.00    +0.277 C 
ENDBRANCH  32   7
ENDBRANCH   1  24
ENDBRANCH  10   1
ENDBRANCH  18  10
ENDBRANCH  13  18
BRANCH  15  21
ATOM     21  C   UNL     1      -4.551   4.418  24.994  0.00  0.00    +0.190 C 
BRANCH  21   4
ATOM      4  O   UNL     1      -5.731   4.120  25.723  0.00  0.00    -0.392 OA
ATOM     36  H   UNL     1      -5.582   3.272  26.175  0.00  0.00    +0.210 HD
ENDBRANCH  21   4
ENDBRANCH  15  21
TORSDOF 9
ENDMDL
MODEL 6
REMARK VINA RESULT:       8.6      2.490      6.813
REMARK  Name = 28962043
REMARK  10 active torsions:
REMARK  status: ('A' for Active; 'I' for Inactive)
REMARK    1  A    between atoms: S_1  and  N_10
REMARK    2  A    between atoms: S_1  and  C_24
REMARK    3  A    between atoms: O_3  and  C_14
REMARK    4  A    between atoms: O_4  and  C_21
REMARK    5  A    between atoms: O_7  and  C_32
REMARK    6  A    between atoms: O_7  and  C_33
REMARK    7  A    between atoms: N_8  and  C_12
REMARK    8  A    between atoms: N_10  and  C_18
REMARK    9  A    between atoms: C_13  and  C_18
REMARK   10  A    between atoms: C_15  and  C_21
REMARK                            x       y       z     vdW  Elec       q    Type
REMARK                         _______ _______ _______ _____ _____    ______ ____
ROOT
ATOM      2  O   UNL     1       2.561  -1.015  23.426  0.00  0.00    -0.366 OA
ATOM     12  C   UNL     1       1.686   1.005  24.331  0.00  0.00    +0.118 C 
ATOM     13  C   UNL     1       1.328  -0.421  23.892  0.00  0.00    +0.154 C 
ATOM     14  C   UNL     1       2.914   1.325  23.492  0.00  0.00    +0.165 C 
ATOM     15  C   UNL     1       3.611  -0.031  23.487  0.00  0.00    +0.174 C 
ENDROOT
BRANCH  12   8
ATOM      8  N   UNL     1       0.616   1.985  24.260  0.00  0.00    -0.292 NA
ATOM      9  N   UNL     1      -1.960   3.080  24.831  0.00  0.00    -0.313 N 
ATOM     11  N   UNL     1      -3.834   4.225  23.950  0.00  0.00    -0.240 NA
ATOM     16  C   UNL     1      -0.591   1.389  23.673  0.00  0.00    +0.104 C 
ATOM     17  C   UNL     1       0.313   2.514  25.595  0.00  0.00    +0.104 C 
ATOM     19  C   UNL     1      -1.707   2.427  23.540  0.00  0.00    +0.122 C 
ATOM     20  C   UNL     1      -0.775   3.590  25.528  0.00  0.00    +0.122 C 
ATOM     22  C   UNL     1      -3.199   3.702  25.022  0.00  0.00    +0.121 A 
ATOM     23  C   UNL     1      -3.697   3.742  26.315  0.00  0.00    +0.043 A 
ATOM     25  C   UNL     1      -4.926   4.358  26.520  0.00  0.00    +0.005 A 
ATOM     26  C   UNL     1      -5.027   4.816  24.188  0.00  0.00    +0.113 A 
ATOM     29  C   UNL     1      -5.610   4.908  25.442  0.00  0.00    +0.020 A 
ENDBRANCH  12   8
BRANCH  14   3
ATOM      3  O   UNL     1       2.558   1.703  22.169  0.00  0.00    -0.388 OA
ATOM     34  H   UNL     1       1.650   2.053  22.197  0.00  0.00    +0.210 HD
ENDBRANCH  14   3
BRANCH  13  18
ATOM     18  C   UNL     1       0.309  -0.555  22.767  0.00  0.00    +0.139 C 
BRANCH  18  10
ATOM     10  N   UNL     1      -0.498  -1.770  22.980  0.00  0.00    -0.187 NA
ATOM     35  H   UNL     1      -1.023  -2.107  22.163  0.00  0.00    +0.148 HD
BRANCH  10   1
ATOM      1  S   UNL     1      -1.089  -2.142  24.533  0.00  0.00    +0.058 S 
ATOM      5  O   UNL     1      -0.138  -1.685  25.529  0.00  0.00    -0.153 OA
ATOM      6  O   UNL     1      -1.555  -3.516  24.545  0.00  0.00    -0.153 OA
BRANCH   1  24
ATOM     24  C   UNL     1      -2.520  -1.110  24.631  0.00  0.00    +0.105 A 
ATOM     27  C   UNL     1      -3.289  -0.875  23.491  0.00  0.00    +0.032 A 
ATOM     28  C   UNL     1      -2.879  -0.530  25.847  0.00  0.00    +0.032 A 
ATOM     30  C   UNL     1      -4.418  -0.060  23.568  0.00  0.00    +0.047 A 
ATOM     31  C   UNL     1      -4.009   0.286  25.925  0.00  0.00    +0.047 A 
ATOM     32  C   UNL     1      -4.778   0.521  24.785  0.00  0.00    +0.120 A 
BRANCH  32   7
ATOM      7  O   UNL     1      -5.879   1.317  24.859  0.00  0.00    -0.495 OA
ATOM     33  C   UNL     1      -6.472   1.488  26.146  0.00  0.00    +0.277 C 
ENDBRANCH  32   7
ENDBRANCH   1  24
ENDBRANCH  10   1
ENDBRANCH  18  10
ENDBRANCH  13  18
BRANCH  15  21
ATOM     21  C   UNL     1       4.582  -0.262  22.344  0.00  0.00    +0.190 C 
BRANCH  21   4
ATOM      4  O   UNL     1       5.907  -0.111  22.829  0.00  0.00    -0.392 OA
ATOM     36  H   UNL     1       5.842   0.108  23.774  0.00  0.00    +0.210 HD
ENDBRANCH  21   4
ENDBRANCH  15  21
TORSDOF 9
ENDMDL
