MODEL 1
REMARK VINA RESULT:      -2.4      0.000      0.000
REMARK  Name = 40777690
REMARK  9 active torsions:
REMARK  status: ('A' for Active; 'I' for Inactive)
REMARK    1  A    between atoms: O_2  and  C_10
REMARK    2  A    between atoms: O_2  and  C_19
REMARK    3  A    between atoms: O_4  and  C_24
REMARK    4  A    between atoms: O_4  and  C_30
REMARK    5  A    between atoms: N_5  and  C_18
REMARK    6  A    between atoms: N_7  and  C_25
REMARK    7  A    between atoms: C_8  and  C_11
REMARK    8  A    between atoms: C_14  and  C_16
REMARK    9  A    between atoms: C_15  and  C_17
REMARK                            x       y       z     vdW  Elec       q    Type
REMARK                         _______ _______ _______ _____ _____    ______ ____
ROOT
ATOM      8  C   UNL     1      -2.546   3.621  25.084  0.00  0.00    +0.049 C 
ATOM      9  C   UNL     1      -3.419   2.881  26.115  0.00  0.00    +0.061 C 
ATOM     10  C   UNL     1      -4.759   3.622  26.137  0.00  0.00    +0.202 C 
ATOM     12  C   UNL     1      -3.565   4.345  24.254  0.00  0.00    -0.019 C 
ATOM     13  C   UNL     1      -4.772   4.339  24.829  0.00  0.00    +0.013 C 
ENDROOT
BRANCH   8  11
ATOM      5  N   UNL     1       0.040   1.494  23.598  0.00  0.00    -0.236 N 
ATOM      6  N   UNL     1      -0.901   1.287  22.663  0.00  0.00    -0.171 NA
ATOM     11  C   UNL     1      -1.640   2.701  24.299  0.00  0.00    +0.003 A 
ATOM     14  C   UNL     1      -0.352   2.333  24.601  0.00  0.00    +0.046 A 
ATOM     15  C   UNL     1      -1.926   2.027  23.095  0.00  0.00    +0.064 A 
ATOM     16  C   UNL     1       0.517   2.702  25.736  0.00  0.00    +0.066 C 
ATOM     17  C   UNL     1      -3.177   2.059  22.316  0.00  0.00    +0.068 C 
BRANCH   5  18
ATOM     18  C   UNL     1       1.282   0.869  23.480  0.00  0.00    +0.066 A 
ATOM     20  C   UNL     1       1.391  -0.508  23.679  0.00  0.00    +0.031 A 
ATOM     21  C   UNL     1       2.414   1.620  23.162  0.00  0.00    +0.031 A 
ATOM     22  C   UNL     1       2.633  -1.133  23.559  0.00  0.00    +0.048 A 
ATOM     23  C   UNL     1       3.655   0.994  23.042  0.00  0.00    +0.048 A 
ATOM     24  C   UNL     1       3.764  -0.382  23.241  0.00  0.00    +0.120 A 
BRANCH  24   4
ATOM      4  O   UNL     1       4.975  -0.992  23.126  0.00  0.00    -0.495 OA
ATOM     30  C   UNL     1       6.118  -0.251  23.553  0.00  0.00    +0.277 C 
ENDBRANCH  24   4
ENDBRANCH   5  18
ENDBRANCH   8  11
BRANCH  10   2
ATOM      2  O   UNL     1      -5.827   2.696  26.225  0.00  0.00    -0.443 OA
BRANCH   2  19
ATOM      3  O   UNL     1      -6.584   1.217  24.654  0.00  0.00    -0.226 OA
ATOM      7  N   UNL     1      -4.529   0.926  25.735  0.00  0.00    -0.251 N 
ATOM     19  C   UNL     1      -5.723   1.562  25.453  0.00  0.00    +0.405 C 
ATOM     32  H   UNL     1      -3.939   1.369  26.435  0.00  0.00    +0.158 HD
BRANCH   7  25
ATOM      1  F   UNL     1      -1.024  -2.323  25.291  0.00  0.00    -0.205 F 
ATOM     25  C   UNL     1      -4.023  -0.266  25.172  0.00  0.00    +0.039 A 
ATOM     26  C   UNL     1      -2.747  -0.714  25.516  0.00  0.00    +0.061 A 
ATOM     27  C   UNL     1      -4.800  -0.998  24.273  0.00  0.00    +0.023 A 
ATOM     28  C   UNL     1      -2.249  -1.893  24.961  0.00  0.00    +0.125 A 
ATOM     29  C   UNL     1      -4.301  -2.176  23.717  0.00  0.00    +0.005 A 
ATOM     31  C   UNL     1      -3.025  -2.624  24.063  0.00  0.00    +0.038 A 
ENDBRANCH   7  25
ENDBRANCH   2  19
ENDBRANCH  10   2
TORSDOF 6
ENDMDL
MODEL 2
REMARK VINA RESULT:      -2.2      1.832      4.018
REMARK  Name = 40777690
REMARK  9 active torsions:
REMARK  status: ('A' for Active; 'I' for Inactive)
REMARK    1  A    between atoms: O_2  and  C_10
REMARK    2  A    between atoms: O_2  and  C_19
REMARK    3  A    between atoms: O_4  and  C_24
REMARK    4  A    between atoms: O_4  and  C_30
REMARK    5  A    between atoms: N_5  and  C_18
REMARK    6  A    between atoms: N_7  and  C_25
REMARK    7  A    between atoms: C_8  and  C_11
REMARK    8  A    between atoms: C_14  and  C_16
REMARK    9  A    between atoms: C_15  and  C_17
REMARK                            x       y       z     vdW  Elec       q    Type
REMARK                         _______ _______ _______ _____ _____    ______ ____
ROOT
ATOM      8  C   UNL     1      -4.785   0.577  24.363  0.00  0.00    +0.049 C 
ATOM      9  C   UNL     1      -4.969   2.090  24.136  0.00  0.00    +0.061 C 
ATOM     10  C   UNL     1      -6.173   2.497  24.990  0.00  0.00    +0.202 C 
ATOM     12  C   UNL     1      -5.505   0.353  25.660  0.00  0.00    -0.019 C 
ATOM     13  C   UNL     1      -6.257   1.404  26.002  0.00  0.00    +0.013 C 
ENDROOT
BRANCH   8  11
ATOM      5  N   UNL     1      -1.194  -0.046  23.987  0.00  0.00    -0.236 N 
ATOM      6  N   UNL     1      -1.432  -0.999  24.903  0.00  0.00    -0.171 NA
ATOM     11  C   UNL     1      -3.336   0.147  24.371  0.00  0.00    +0.003 A 
ATOM     14  C   UNL     1      -2.302   0.670  23.635  0.00  0.00    +0.046 A 
ATOM     15  C   UNL     1      -2.742  -0.878  25.134  0.00  0.00    +0.064 A 
ATOM     16  C   UNL     1      -2.277   1.768  22.647  0.00  0.00    +0.066 C 
ATOM     17  C   UNL     1      -3.393  -1.773  26.107  0.00  0.00    +0.068 C 
BRANCH   5  18
ATOM     18  C   UNL     1       0.099   0.131  23.493  0.00  0.00    +0.066 A 
ATOM     20  C   UNL     1       0.947   1.071  24.079  0.00  0.00    +0.031 A 
ATOM     21  C   UNL     1       0.544  -0.633  22.414  0.00  0.00    +0.031 A 
ATOM     22  C   UNL     1       2.240   1.247  23.585  0.00  0.00    +0.048 A 
ATOM     23  C   UNL     1       1.836  -0.458  21.921  0.00  0.00    +0.048 A 
ATOM     24  C   UNL     1       2.684   0.482  22.507  0.00  0.00    +0.120 A 
BRANCH  24   4
ATOM      4  O   UNL     1       3.945   0.654  22.024  0.00  0.00    -0.495 OA
ATOM     30  C   UNL     1       5.023   0.431  22.931  0.00  0.00    +0.277 C 
ENDBRANCH  24   4
ENDBRANCH   5  18
ENDBRANCH   8  11
BRANCH  10   2
ATOM      2  O   UNL     1      -5.931   3.749  25.607  0.00  0.00    -0.443 OA
BRANCH   2  19
ATOM      3  O   UNL     1      -4.479   4.146  27.328  0.00  0.00    -0.226 OA
ATOM      7  N   UNL     1      -3.737   3.862  25.126  0.00  0.00    -0.251 N 
ATOM     19  C   UNL     1      -4.676   3.942  26.137  0.00  0.00    +0.405 C 
ATOM     32  H   UNL     1      -4.097   3.684  24.192  0.00  0.00    +0.158 HD
BRANCH   7  25
ATOM      1  F   UNL     1       0.487   2.368  26.845  0.00  0.00    -0.205 F 
ATOM     25  C   UNL     1      -2.335   3.999  25.229  0.00  0.00    +0.039 A 
ATOM     26  C   UNL     1      -1.602   3.098  26.003  0.00  0.00    +0.061 A 
ATOM     27  C   UNL     1      -1.682   5.032  24.556  0.00  0.00    +0.023 A 
ATOM     28  C   UNL     1      -0.217   3.232  26.102  0.00  0.00    +0.125 A 
ATOM     29  C   UNL     1      -0.298   5.166  24.657  0.00  0.00    +0.005 A 
ATOM     31  C   UNL     1       0.435   4.264  25.430  0.00  0.00    +0.038 A 
ENDBRANCH   7  25
ENDBRANCH   2  19
ENDBRANCH  10   2
TORSDOF 6
ENDMDL
MODEL 3
REMARK VINA RESULT:      -0.3      1.186      1.757
REMARK  Name = 40777690
REMARK  9 active torsions:
REMARK  status: ('A' for Active; 'I' for Inactive)
REMARK    1  A    between atoms: O_2  and  C_10
REMARK    2  A    between atoms: O_2  and  C_19
REMARK    3  A    between atoms: O_4  and  C_24
REMARK    4  A    between atoms: O_4  and  C_30
REMARK    5  A    between atoms: N_5  and  C_18
REMARK    6  A    between atoms: N_7  and  C_25
REMARK    7  A    between atoms: C_8  and  C_11
REMARK    8  A    between atoms: C_14  and  C_16
REMARK    9  A    between atoms: C_15  and  C_17
REMARK                            x       y       z     vdW  Elec       q    Type
REMARK                         _______ _______ _______ _____ _____    ______ ____
ROOT
ATOM      8  C   UNL     1      -3.492   4.097  24.635  0.00  0.00    +0.049 C 
ATOM      9  C   UNL     1      -4.129   3.471  25.890  0.00  0.00    +0.061 C 
ATOM     10  C   UNL     1      -5.573   3.137  25.504  0.00  0.00    +0.202 C 
ATOM     12  C   UNL     1      -4.390   3.610  23.536  0.00  0.00    -0.019 C 
ATOM     13  C   UNL     1      -5.522   3.083  24.014  0.00  0.00    +0.013 C 
ENDROOT
BRANCH   8  11
ATOM      5  N   UNL     1      -0.161   2.687  24.056  0.00  0.00    -0.236 N 
ATOM      6  N   UNL     1       0.241   3.917  24.414  0.00  0.00    -0.171 NA
ATOM     11  C   UNL     1      -2.036   3.732  24.460  0.00  0.00    +0.003 A 
ATOM     14  C   UNL     1      -1.516   2.523  24.066  0.00  0.00    +0.046 A 
ATOM     15  C   UNL     1      -0.909   4.552  24.661  0.00  0.00    +0.064 A 
ATOM     16  C   UNL     1      -2.182   1.255  23.706  0.00  0.00    +0.066 C 
ATOM     17  C   UNL     1      -0.881   5.962  25.089  0.00  0.00    +0.068 C 
BRANCH   5  18
ATOM     18  C   UNL     1       0.788   1.720  23.718  0.00  0.00    +0.066 A 
ATOM     20  C   UNL     1       0.420   0.376  23.652  0.00  0.00    +0.031 A 
ATOM     21  C   UNL     1       2.103   2.098  23.445  0.00  0.00    +0.031 A 
ATOM     22  C   UNL     1       1.368  -0.590  23.313  0.00  0.00    +0.048 A 
ATOM     23  C   UNL     1       3.050   1.133  23.106  0.00  0.00    +0.048 A 
ATOM     24  C   UNL     1       2.682  -0.211  23.040  0.00  0.00    +0.120 A 
BRANCH  24   4
ATOM      4  O   UNL     1       3.607  -1.154  22.710  0.00  0.00    -0.495 OA
ATOM     30  C   UNL     1       4.659  -1.386  23.646  0.00  0.00    +0.277 C 
ENDBRANCH  24   4
ENDBRANCH   5  18
ENDBRANCH   8  11
BRANCH  10   2
ATOM      2  O   UNL     1      -5.947   1.885  26.051  0.00  0.00    -0.443 OA
BRANCH   2  19
ATOM      3  O   UNL     1      -6.276   0.292  24.445  0.00  0.00    -0.226 OA
ATOM      7  N   UNL     1      -4.359   0.315  25.787  0.00  0.00    -0.251 N 
ATOM     19  C   UNL     1      -5.584   0.768  25.335  0.00  0.00    +0.405 C 
ATOM     32  H   UNL     1      -3.934   0.848  26.542  0.00  0.00    +0.158 HD
BRANCH   7  25
ATOM      1  F   UNL     1      -0.301  -2.244  25.680  0.00  0.00    -0.205 F 
ATOM     25  C   UNL     1      -3.622  -0.800  25.331  0.00  0.00    +0.039 A 
ATOM     26  C   UNL     1      -2.298  -0.975  25.738  0.00  0.00    +0.061 A 
ATOM     27  C   UNL     1      -4.216  -1.728  24.475  0.00  0.00    +0.023 A 
ATOM     28  C   UNL     1      -1.571  -2.077  25.289  0.00  0.00    +0.125 A 
ATOM     29  C   UNL     1      -3.487  -2.829  24.026  0.00  0.00    +0.005 A 
ATOM     31  C   UNL     1      -2.165  -3.004  24.434  0.00  0.00    +0.038 A 
ENDBRANCH   7  25
ENDBRANCH   2  19
ENDBRANCH  10   2
TORSDOF 6
ENDMDL
MODEL 4
REMARK VINA RESULT:       0.3      2.073      4.066
REMARK  Name = 40777690
REMARK  9 active torsions:
REMARK  status: ('A' for Active; 'I' for Inactive)
REMARK    1  A    between atoms: O_2  and  C_10
REMARK    2  A    between atoms: O_2  and  C_19
REMARK    3  A    between atoms: O_4  and  C_24
REMARK    4  A    between atoms: O_4  and  C_30
REMARK    5  A    between atoms: N_5  and  C_18
REMARK    6  A    between atoms: N_7  and  C_25
REMARK    7  A    between atoms: C_8  and  C_11
REMARK    8  A    between atoms: C_14  and  C_16
REMARK    9  A    between atoms: C_15  and  C_17
REMARK                            x       y       z     vdW  Elec       q    Type
REMARK                         _______ _______ _______ _____ _____    ______ ____
ROOT
ATOM      8  C   UNL     1      -2.971  -0.773  24.292  0.00  0.00    +0.049 C 
ATOM      9  C   UNL     1      -4.172   0.173  24.102  0.00  0.00    +0.061 C 
ATOM     10  C   UNL     1      -5.053  -0.016  25.341  0.00  0.00    +0.202 C 
ATOM     12  C   UNL     1      -2.976  -1.013  25.773  0.00  0.00    -0.019 C 
ATOM     13  C   UNL     1      -4.110  -0.594  26.343  0.00  0.00    +0.013 C 
ENDROOT
BRANCH   8  11
ATOM      5  N   UNL     1       0.426   0.175  23.301  0.00  0.00    -0.236 N 
ATOM      6  N   UNL     1      -0.221   1.119  22.597  0.00  0.00    -0.171 NA
ATOM     11  C   UNL     1      -1.676  -0.209  23.754  0.00  0.00    +0.003 A 
ATOM     14  C   UNL     1      -0.400  -0.647  24.011  0.00  0.00    +0.046 A 
ATOM     15  C   UNL     1      -1.505   0.880  22.878  0.00  0.00    +0.064 A 
ATOM     16  C   UNL     1       0.090  -1.756  24.856  0.00  0.00    +0.066 C 
ATOM     17  C   UNL     1      -2.549   1.729  22.276  0.00  0.00    +0.068 C 
BRANCH   5  18
ATOM     18  C   UNL     1       1.819   0.111  23.255  0.00  0.00    +0.066 A 
ATOM     20  C   UNL     1       2.558   1.238  22.896  0.00  0.00    +0.031 A 
ATOM     21  C   UNL     1       2.474  -1.081  23.569  0.00  0.00    +0.031 A 
ATOM     22  C   UNL     1       3.951   1.174  22.851  0.00  0.00    +0.048 A 
ATOM     23  C   UNL     1       3.866  -1.145  23.525  0.00  0.00    +0.048 A 
ATOM     24  C   UNL     1       4.604  -0.017  23.166  0.00  0.00    +0.120 A 
BRANCH  24   4
ATOM      4  O   UNL     1       5.963  -0.080  23.121  0.00  0.00    -0.495 OA
ATOM     30  C   UNL     1       6.606  -0.916  24.083  0.00  0.00    +0.277 C 
ENDBRANCH  24   4
ENDBRANCH   5  18
ENDBRANCH   8  11
BRANCH  10   2
ATOM      2  O   UNL     1      -5.559   1.234  25.773  0.00  0.00    -0.443 OA
BRANCH   2  19
ATOM      3  O   UNL     1      -5.382   3.291  24.790  0.00  0.00    -0.226 OA
ATOM      7  N   UNL     1      -3.537   2.217  25.750  0.00  0.00    -0.251 N 
ATOM     19  C   UNL     1      -4.861   2.352  25.377  0.00  0.00    +0.405 C 
ATOM     32  H   UNL     1      -3.292   1.357  26.234  0.00  0.00    +0.158 HD
BRANCH   7  25
ATOM      1  F   UNL     1      -1.972   6.667  24.863  0.00  0.00    -0.205 F 
ATOM     25  C   UNL     1      -2.477   3.128  25.540  0.00  0.00    +0.039 A 
ATOM     26  C   UNL     1      -2.753   4.475  25.300  0.00  0.00    +0.061 A 
ATOM     27  C   UNL     1      -1.155   2.683  25.576  0.00  0.00    +0.023 A 
ATOM     28  C   UNL     1      -1.707   5.374  25.095  0.00  0.00    +0.125 A 
ATOM     29  C   UNL     1      -0.110   3.583  25.371  0.00  0.00    +0.005 A 
ATOM     31  C   UNL     1      -0.387   4.929  25.131  0.00  0.00    +0.038 A 
ENDBRANCH   7  25
ENDBRANCH   2  19
ENDBRANCH  10   2
TORSDOF 6
ENDMDL
