MODEL 1
REMARK VINA RESULT:      -5.1      0.000      0.000
REMARK  Name = 75536647
REMARK  8 active torsions:
REMARK  status: ('A' for Active; 'I' for Inactive)
REMARK    1  A    between atoms: O_3  and  C_10
REMARK    2  A    between atoms: N_5  and  C_9
REMARK    3  A    between atoms: N_5  and  C_14
REMARK    4  A    between atoms: N_6  and  C_13
REMARK    5  A    between atoms: N_7  and  C_19
REMARK    6  A    between atoms: C_11  and  C_13
REMARK    7  A    between atoms: C_14  and  C_15
REMARK    8  A    between atoms: C_16  and  C_18
REMARK                            x       y       z     vdW  Elec       q    Type
REMARK                         _______ _______ _______ _____ _____    ______ ____
ROOT
ATOM      2  O   UNL     1      -0.136   3.365  23.730  0.00  0.00    -0.371 OA
ATOM      9  C   UNL     1      -1.104   3.865  25.841  0.00  0.00    +0.111 C 
ATOM     10  C   UNL     1      -0.501   2.475  25.890  0.00  0.00    +0.164 C 
ATOM     11  C   UNL     1       0.483   2.540  24.730  0.00  0.00    +0.165 C 
ATOM     12  C   UNL     1      -1.217   4.091  24.342  0.00  0.00    +0.181 C 
ENDROOT
BRANCH  10   3
ATOM      3  O   UNL     1       0.148   2.205  27.118  0.00  0.00    -0.388 OA
ATOM     27  H   UNL     1       0.603   1.348  27.042  0.00  0.00    +0.210 HD
ENDBRANCH  10   3
BRANCH   9   5
ATOM      5  N   UNL     1      -2.382   3.972  26.526  0.00  0.00    -0.302 NA
ATOM     26  H   UNL     1      -2.299   4.651  27.283  0.00  0.00    +0.123 HD
BRANCH   5  14
ATOM     14  C   UNL     1      -3.433   4.407  25.614  0.00  0.00    +0.156 C 
BRANCH  14  15
ATOM      7  N   UNL     1      -4.785   2.650  24.425  0.00  0.00    -0.336 N 
ATOM      8  N   UNL     1      -5.429   3.152  26.490  0.00  0.00    -0.239 NA
ATOM     15  C   UNL     1      -4.558   3.410  25.539  0.00  0.00    +0.123 A 
ATOM     17  C   UNL     1      -5.867   1.857  24.682  0.00  0.00    +0.106 A 
ATOM     19  C   UNL     1      -4.028   2.668  23.194  0.00  0.00    +0.150 C 
ATOM     20  C   UNL     1      -6.247   2.185  25.962  0.00  0.00    +0.130 A 
ENDBRANCH  14  15
ENDBRANCH   5  14
ENDBRANCH   9   5
BRANCH  11  13
ATOM     13  C   UNL     1       0.810   1.179  24.142  0.00  0.00    +0.138 C 
BRANCH  13   6
ATOM      4  O   UNL     1      -0.381  -0.642  26.017  0.00  0.00    -0.270 OA
ATOM      6  N   UNL     1      -0.377   0.399  23.943  0.00  0.00    -0.309 N 
ATOM     16  C   UNL     1      -0.885  -0.462  24.912  0.00  0.00    +0.244 C 
ATOM     28  H   UNL     1      -0.804   0.447  23.024  0.00  0.00    +0.149 HD
BRANCH  16  18
ATOM      1  F   UNL     1      -5.508  -3.324  23.512  0.00  0.00    -0.205 F 
ATOM     18  C   UNL     1      -2.108  -1.219  24.540  0.00  0.00    +0.037 A 
ATOM     21  C   UNL     1      -2.074  -2.613  24.478  0.00  0.00    +0.016 A 
ATOM     22  C   UNL     1      -3.291  -0.538  24.256  0.00  0.00    +0.016 A 
ATOM     23  C   UNL     1      -3.222  -3.324  24.131  0.00  0.00    +0.039 A 
ATOM     24  C   UNL     1      -4.439  -1.248  23.908  0.00  0.00    +0.039 A 
ATOM     25  C   UNL     1      -4.405  -2.642  23.845  0.00  0.00    +0.123 A 
ENDBRANCH  16  18
ENDBRANCH  13   6
ENDBRANCH  11  13
TORSDOF 7
ENDMDL
MODEL 2
REMARK VINA RESULT:      -4.5      2.640      5.047
REMARK  Name = 75536647
REMARK  8 active torsions:
REMARK  status: ('A' for Active; 'I' for Inactive)
REMARK    1  A    between atoms: O_3  and  C_10
REMARK    2  A    between atoms: N_5  and  C_9
REMARK    3  A    between atoms: N_5  and  C_14
REMARK    4  A    between atoms: N_6  and  C_13
REMARK    5  A    between atoms: N_7  and  C_19
REMARK    6  A    between atoms: C_11  and  C_13
REMARK    7  A    between atoms: C_14  and  C_15
REMARK    8  A    between atoms: C_16  and  C_18
REMARK                            x       y       z     vdW  Elec       q    Type
REMARK                         _______ _______ _______ _____ _____    ______ ____
ROOT
ATOM      2  O   UNL     1      -1.595  -2.469  23.747  0.00  0.00    -0.371 OA
ATOM      9  C   UNL     1      -0.023  -0.877  24.546  0.00  0.00    +0.111 C 
ATOM     10  C   UNL     1      -1.254  -0.843  25.431  0.00  0.00    +0.164 C 
ATOM     11  C   UNL     1      -1.867  -2.205  25.134  0.00  0.00    +0.165 C 
ATOM     12  C   UNL     1      -0.563  -1.568  23.305  0.00  0.00    +0.181 C 
ENDROOT
BRANCH  10   3
ATOM      3  O   UNL     1      -0.937  -0.695  26.801  0.00  0.00    -0.388 OA
ATOM     27  H   UNL     1      -1.131  -1.534  27.253  0.00  0.00    +0.210 HD
ENDBRANCH  10   3
BRANCH   9   5
ATOM      5  N   UNL     1       0.530   0.439  24.264  0.00  0.00    -0.302 NA
ATOM     26  H   UNL     1       1.298   0.343  23.599  0.00  0.00    +0.123 HD
BRANCH   5  14
ATOM     14  C   UNL     1      -0.480   1.322  23.695  0.00  0.00    +0.156 C 
BRANCH  14  15
ATOM      7  N   UNL     1      -0.727   3.734  24.368  0.00  0.00    -0.336 N 
ATOM      8  N   UNL     1      -1.415   2.228  25.847  0.00  0.00    -0.239 NA
ATOM     15  C   UNL     1      -0.884   2.407  24.658  0.00  0.00    +0.123 A 
ATOM     17  C   UNL     1      -1.187   4.445  25.439  0.00  0.00    +0.106 A 
ATOM     19  C   UNL     1      -0.178   4.298  23.156  0.00  0.00    +0.150 C 
ATOM     20  C   UNL     1      -1.607   3.494  26.339  0.00  0.00    +0.130 A 
ENDBRANCH  14  15
ENDBRANCH   5  14
ENDBRANCH   9   5
BRANCH  11  13
ATOM     13  C   UNL     1      -3.364  -2.257  25.381  0.00  0.00    +0.138 C 
BRANCH  13   6
ATOM      4  O   UNL     1      -3.943  -0.381  23.284  0.00  0.00    -0.270 OA
ATOM      6  N   UNL     1      -3.913  -0.941  25.536  0.00  0.00    -0.309 N 
ATOM     16  C   UNL     1      -4.163  -0.096  24.458  0.00  0.00    +0.244 C 
ATOM     28  H   UNL     1      -4.053  -0.616  26.487  0.00  0.00    +0.149 HD
BRANCH  16  18
ATOM      1  F   UNL     1      -6.220   4.975  25.712  0.00  0.00    -0.205 F 
ATOM     18  C   UNL     1      -4.708   1.246  24.789  0.00  0.00    +0.037 A 
ATOM     21  C   UNL     1      -5.691   1.377  25.770  0.00  0.00    +0.016 A 
ATOM     22  C   UNL     1      -4.236   2.375  24.121  0.00  0.00    +0.016 A 
ATOM     23  C   UNL     1      -6.202   2.636  26.082  0.00  0.00    +0.039 A 
ATOM     24  C   UNL     1      -4.747   3.635  24.431  0.00  0.00    +0.039 A 
ATOM     25  C   UNL     1      -5.730   3.766  25.413  0.00  0.00    +0.123 A 
ENDBRANCH  16  18
ENDBRANCH  13   6
ENDBRANCH  11  13
TORSDOF 7
ENDMDL
MODEL 3
REMARK VINA RESULT:      -3.9      2.610      5.116
REMARK  Name = 75536647
REMARK  8 active torsions:
REMARK  status: ('A' for Active; 'I' for Inactive)
REMARK    1  A    between atoms: O_3  and  C_10
REMARK    2  A    between atoms: N_5  and  C_9
REMARK    3  A    between atoms: N_5  and  C_14
REMARK    4  A    between atoms: N_6  and  C_13
REMARK    5  A    between atoms: N_7  and  C_19
REMARK    6  A    between atoms: C_11  and  C_13
REMARK    7  A    between atoms: C_14  and  C_15
REMARK    8  A    between atoms: C_16  and  C_18
REMARK                            x       y       z     vdW  Elec       q    Type
REMARK                         _______ _______ _______ _____ _____    ______ ____
ROOT
ATOM      2  O   UNL     1      -1.361  -2.005  23.528  0.00  0.00    -0.371 OA
ATOM      9  C   UNL     1       0.088  -0.488  24.642  0.00  0.00    +0.111 C 
ATOM     10  C   UNL     1      -1.194  -0.627  25.442  0.00  0.00    +0.164 C 
ATOM     11  C   UNL     1      -1.726  -1.953  24.917  0.00  0.00    +0.165 C 
ATOM     12  C   UNL     1      -0.347  -1.014  23.284  0.00  0.00    +0.181 C 
ENDROOT
BRANCH  10   3
ATOM      3  O   UNL     1      -0.965  -0.666  26.838  0.00  0.00    -0.388 OA
ATOM     27  H   UNL     1      -0.865   0.247  27.157  0.00  0.00    +0.210 HD
ENDBRANCH  10   3
BRANCH   9   5
ATOM      5  N   UNL     1       0.596   0.873  24.586  0.00  0.00    -0.302 NA
ATOM     26  H   UNL     1       0.395   1.266  23.666  0.00  0.00    +0.123 HD
BRANCH   5  14
ATOM     14  C   UNL     1      -0.027   1.710  25.604  0.00  0.00    +0.156 C 
BRANCH  14  15
ATOM      7  N   UNL     1      -1.365   3.840  25.638  0.00  0.00    -0.336 N 
ATOM      8  N   UNL     1       0.159   3.664  24.033  0.00  0.00    -0.239 NA
ATOM     15  C   UNL     1      -0.390   3.069  25.069  0.00  0.00    +0.123 A 
ATOM     17  C   UNL     1      -1.442   4.999  24.921  0.00  0.00    +0.106 A 
ATOM     19  C   UNL     1      -2.174   3.506  26.787  0.00  0.00    +0.150 C 
ATOM     20  C   UNL     1      -0.492   4.868  23.936  0.00  0.00    +0.130 A 
ENDBRANCH  14  15
ENDBRANCH   5  14
ENDBRANCH   9   5
BRANCH  11  13
ATOM     13  C   UNL     1      -3.231  -2.095  25.057  0.00  0.00    +0.138 C 
BRANCH  13   6
ATOM      4  O   UNL     1      -3.652  -0.017  23.119  0.00  0.00    -0.270 OA
ATOM      6  N   UNL     1      -3.855  -0.824  25.285  0.00  0.00    -0.309 N 
ATOM     16  C   UNL     1      -4.019   0.128  24.283  0.00  0.00    +0.244 C 
ATOM     28  H   UNL     1      -4.118  -0.612  26.243  0.00  0.00    +0.149 HD
BRANCH  16  18
ATOM      1  F   UNL     1      -6.449   4.952  25.811  0.00  0.00    -0.205 F 
ATOM     18  C   UNL     1      -4.661   1.405  24.688  0.00  0.00    +0.037 A 
ATOM     21  C   UNL     1      -4.255   2.605  24.105  0.00  0.00    +0.016 A 
ATOM     22  C   UNL     1      -5.671   1.403  25.649  0.00  0.00    +0.016 A 
ATOM     23  C   UNL     1      -4.859   3.804  24.484  0.00  0.00    +0.039 A 
ATOM     24  C   UNL     1      -6.275   2.601  26.029  0.00  0.00    +0.039 A 
ATOM     25  C   UNL     1      -5.869   3.802  25.447  0.00  0.00    +0.123 A 
ENDBRANCH  16  18
ENDBRANCH  13   6
ENDBRANCH  11  13
TORSDOF 7
ENDMDL
MODEL 4
REMARK VINA RESULT:      -3.8      3.130      6.793
REMARK  Name = 75536647
REMARK  8 active torsions:
REMARK  status: ('A' for Active; 'I' for Inactive)
REMARK    1  A    between atoms: O_3  and  C_10
REMARK    2  A    between atoms: N_5  and  C_9
REMARK    3  A    between atoms: N_5  and  C_14
REMARK    4  A    between atoms: N_6  and  C_13
REMARK    5  A    between atoms: N_7  and  C_19
REMARK    6  A    between atoms: C_11  and  C_13
REMARK    7  A    between atoms: C_14  and  C_15
REMARK    8  A    between atoms: C_16  and  C_18
REMARK                            x       y       z     vdW  Elec       q    Type
REMARK                         _______ _______ _______ _____ _____    ______ ____
ROOT
ATOM      2  O   UNL     1      -1.497  -2.740  23.848  0.00  0.00    -0.371 OA
ATOM      9  C   UNL     1       0.113  -1.077  24.380  0.00  0.00    +0.111 C 
ATOM     10  C   UNL     1      -1.113  -0.875  25.250  0.00  0.00    +0.164 C 
ATOM     11  C   UNL     1      -1.757  -2.252  25.175  0.00  0.00    +0.165 C 
ATOM     12  C   UNL     1      -0.448  -1.946  23.266  0.00  0.00    +0.181 C 
ENDROOT
BRANCH  10   3
ATOM      3  O   UNL     1      -0.787  -0.517  26.579  0.00  0.00    -0.388 OA
ATOM     27  H   UNL     1      -0.628   0.442  26.608  0.00  0.00    +0.210 HD
ENDBRANCH  10   3
BRANCH   9   5
ATOM      5  N   UNL     1       0.694   0.163  23.892  0.00  0.00    -0.302 NA
ATOM     26  H   UNL     1       1.251   0.586  24.635  0.00  0.00    +0.123 HD
BRANCH   5  14
ATOM     14  C   UNL     1       1.551  -0.076  22.737  0.00  0.00    +0.156 C 
BRANCH  14  15
ATOM      7  N   UNL     1       3.966   0.592  22.968  0.00  0.00    -0.336 N 
ATOM      8  N   UNL     1       3.436  -1.441  23.689  0.00  0.00    -0.239 NA
ATOM     15  C   UNL     1       2.977  -0.338  23.142  0.00  0.00    +0.123 A 
ATOM     17  C   UNL     1       5.127   0.046  23.434  0.00  0.00    +0.106 A 
ATOM     19  C   UNL     1       3.824   1.912  22.399  0.00  0.00    +0.150 C 
ATOM     20  C   UNL     1       4.776  -1.209  23.874  0.00  0.00    +0.130 A 
ENDBRANCH  14  15
ENDBRANCH   5  14
ENDBRANCH   9   5
BRANCH  11  13
ATOM     13  C   UNL     1      -3.254  -2.230  25.428  0.00  0.00    +0.138 C 
BRANCH  13   6
ATOM      4  O   UNL     1      -3.965  -0.434  23.303  0.00  0.00    -0.270 OA
ATOM      6  N   UNL     1      -3.740  -0.888  25.567  0.00  0.00    -0.309 N 
ATOM     16  C   UNL     1      -4.062  -0.085  24.476  0.00  0.00    +0.244 C 
ATOM     28  H   UNL     1      -3.776  -0.513  26.510  0.00  0.00    +0.149 HD
BRANCH  16  18
ATOM      1  F   UNL     1      -5.820   5.115  25.651  0.00  0.00    -0.205 F 
ATOM     18  C   UNL     1      -4.526   1.291  24.788  0.00  0.00    +0.037 A 
ATOM     21  C   UNL     1      -3.767   2.391  24.388  0.00  0.00    +0.016 A 
ATOM     22  C   UNL     1      -5.722   1.484  25.480  0.00  0.00    +0.016 A 
ATOM     23  C   UNL     1      -4.204   3.683  24.680  0.00  0.00    +0.039 A 
ATOM     24  C   UNL     1      -6.159   2.775  25.772  0.00  0.00    +0.039 A 
ATOM     25  C   UNL     1      -5.400   3.875  25.372  0.00  0.00    +0.123 A 
ENDBRANCH  16  18
ENDBRANCH  13   6
ENDBRANCH  11  13
TORSDOF 7
ENDMDL
MODEL 5
REMARK VINA RESULT:      -3.4      3.091      6.413
REMARK  Name = 75536647
REMARK  8 active torsions:
REMARK  status: ('A' for Active; 'I' for Inactive)
REMARK    1  A    between atoms: O_3  and  C_10
REMARK    2  A    between atoms: N_5  and  C_9
REMARK    3  A    between atoms: N_5  and  C_14
REMARK    4  A    between atoms: N_6  and  C_13
REMARK    5  A    between atoms: N_7  and  C_19
REMARK    6  A    between atoms: C_11  and  C_13
REMARK    7  A    between atoms: C_14  and  C_15
REMARK    8  A    between atoms: C_16  and  C_18
REMARK                            x       y       z     vdW  Elec       q    Type
REMARK                         _______ _______ _______ _____ _____    ______ ____
ROOT
ATOM      2  O   UNL     1      -4.246  -2.424  23.498  0.00  0.00    -0.371 OA
ATOM      9  C   UNL     1      -2.492  -2.670  25.081  0.00  0.00    +0.111 C 
ATOM     10  C   UNL     1      -3.242  -1.383  25.369  0.00  0.00    +0.164 C 
ATOM     11  C   UNL     1      -4.566  -1.651  24.667  0.00  0.00    +0.165 C 
ATOM     12  C   UNL     1      -2.915  -2.951  23.649  0.00  0.00    +0.181 C 
ENDROOT
BRANCH  10   3
ATOM      3  O   UNL     1      -3.417  -1.151  26.754  0.00  0.00    -0.388 OA
ATOM     27  H   UNL     1      -2.746  -1.662  27.237  0.00  0.00    +0.210 HD
ENDBRANCH  10   3
BRANCH   9   5
ATOM      5  N   UNL     1      -1.051  -2.551  25.232  0.00  0.00    -0.302 NA
ATOM     26  H   UNL     1      -0.640  -3.484  25.256  0.00  0.00    +0.123 HD
BRANCH   5  14
ATOM     14  C   UNL     1      -0.466  -1.805  24.124  0.00  0.00    +0.156 C 
BRANCH  14  15
ATOM      7  N   UNL     1       0.567   0.457  23.747  0.00  0.00    -0.336 N 
ATOM      8  N   UNL     1      -0.833   0.291  25.463  0.00  0.00    -0.239 NA
ATOM     15  C   UNL     1      -0.263  -0.354  24.469  0.00  0.00    +0.123 A 
ATOM     17  C   UNL     1       0.525   1.698  24.316  0.00  0.00    +0.106 A 
ATOM     19  C   UNL     1       1.352   0.087  22.592  0.00  0.00    +0.150 C 
ATOM     20  C   UNL     1      -0.346   1.571  25.373  0.00  0.00    +0.130 A 
ENDBRANCH  14  15
ENDBRANCH   5  14
ENDBRANCH   9   5
BRANCH  11  13
ATOM     13  C   UNL     1      -5.298  -0.385  24.259  0.00  0.00    +0.138 C 
BRANCH  13   6
ATOM      4  O   UNL     1      -5.855   1.997  25.764  0.00  0.00    -0.270 OA
ATOM      6  N   UNL     1      -4.453   0.768  24.383  0.00  0.00    -0.309 N 
ATOM     16  C   UNL     1      -4.805   1.883  25.137  0.00  0.00    +0.244 C 
ATOM     28  H   UNL     1      -3.600   0.768  23.832  0.00  0.00    +0.149 HD
BRANCH  16  18
ATOM      1  F   UNL     1      -1.123   6.122  25.155  0.00  0.00    -0.205 F 
ATOM     18  C   UNL     1      -3.832   3.006  25.142  0.00  0.00    +0.037 A 
ATOM     21  C   UNL     1      -3.649   3.766  26.297  0.00  0.00    +0.016 A 
ATOM     22  C   UNL     1      -3.099   3.298  23.992  0.00  0.00    +0.016 A 
ATOM     23  C   UNL     1      -2.734   4.819  26.302  0.00  0.00    +0.039 A 
ATOM     24  C   UNL     1      -2.185   4.351  23.996  0.00  0.00    +0.039 A 
ATOM     25  C   UNL     1      -2.002   5.112  25.151  0.00  0.00    +0.123 A 
ENDBRANCH  16  18
ENDBRANCH  13   6
ENDBRANCH  11  13
TORSDOF 7
ENDMDL
MODEL 6
REMARK VINA RESULT:      -3.1      3.756      5.774
REMARK  Name = 75536647
REMARK  8 active torsions:
REMARK  status: ('A' for Active; 'I' for Inactive)
REMARK    1  A    between atoms: O_3  and  C_10
REMARK    2  A    between atoms: N_5  and  C_9
REMARK    3  A    between atoms: N_5  and  C_14
REMARK    4  A    between atoms: N_6  and  C_13
REMARK    5  A    between atoms: N_7  and  C_19
REMARK    6  A    between atoms: C_11  and  C_13
REMARK    7  A    between atoms: C_14  and  C_15
REMARK    8  A    between atoms: C_16  and  C_18
REMARK                            x       y       z     vdW  Elec       q    Type
REMARK                         _______ _______ _______ _____ _____    ______ ____
ROOT
ATOM      2  O   UNL     1      -1.002  -0.388  25.510  0.00  0.00    -0.371 OA
ATOM      9  C   UNL     1      -3.310  -0.881  25.778  0.00  0.00    +0.111 C 
ATOM     10  C   UNL     1      -2.888  -1.245  24.368  0.00  0.00    +0.164 C 
ATOM     11  C   UNL     1      -1.380  -1.377  24.537  0.00  0.00    +0.165 C 
ATOM     12  C   UNL     1      -2.186   0.052  26.198  0.00  0.00    +0.181 C 
ENDROOT
BRANCH  10   3
ATOM      3  O   UNL     1      -3.475  -2.449  23.915  0.00  0.00    -0.388 OA
ATOM     27  H   UNL     1      -2.780  -2.996  23.512  0.00  0.00    +0.210 HD
ENDBRANCH  10   3
BRANCH   9   5
ATOM      5  N   UNL     1      -4.621  -0.256  25.852  0.00  0.00    -0.302 NA
ATOM     26  H   UNL     1      -4.642   0.384  26.647  0.00  0.00    +0.123 HD
BRANCH   5  14
ATOM     14  C   UNL     1      -4.916   0.492  24.636  0.00  0.00    +0.156 C 
BRANCH  14  15
ATOM      7  N   UNL     1      -3.730   2.643  24.093  0.00  0.00    -0.336 N 
ATOM      8  N   UNL     1      -5.317   2.761  25.642  0.00  0.00    -0.239 NA
ATOM     15  C   UNL     1      -4.677   1.967  24.812  0.00  0.00    +0.123 A 
ATOM     17  C   UNL     1      -3.770   3.950  24.489  0.00  0.00    +0.106 A 
ATOM     19  C   UNL     1      -2.844   2.093  23.093  0.00  0.00    +0.150 C 
ATOM     20  C   UNL     1      -4.757   3.998  25.446  0.00  0.00    +0.130 A 
ENDBRANCH  14  15
ENDBRANCH   5  14
ENDBRANCH   9   5
BRANCH  11  13
ATOM     13  C   UNL     1      -0.608  -1.151  23.250  0.00  0.00    +0.138 C 
BRANCH  13   6
ATOM      4  O   UNL     1       1.380  -0.358  21.334  0.00  0.00    -0.270 OA
ATOM      6  N   UNL     1       0.777  -0.888  23.512  0.00  0.00    -0.309 N 
ATOM     16  C   UNL     1       1.674  -0.506  22.518  0.00  0.00    +0.244 C 
ATOM     28  H   UNL     1       1.102  -1.060  24.458  0.00  0.00    +0.149 HD
BRANCH  16  18
ATOM      1  F   UNL     1       6.991   0.282  24.137  0.00  0.00    -0.205 F 
ATOM     18  C   UNL     1       3.080  -0.298  22.947  0.00  0.00    +0.037 A 
ATOM     21  C   UNL     1       3.771  -1.323  23.593  0.00  0.00    +0.016 A 
ATOM     22  C   UNL     1       3.711   0.922  22.703  0.00  0.00    +0.016 A 
ATOM     23  C   UNL     1       5.093  -1.127  23.995  0.00  0.00    +0.039 A 
ATOM     24  C   UNL     1       5.031   1.118  23.106  0.00  0.00    +0.039 A 
ATOM     25  C   UNL     1       5.722   0.093  23.752  0.00  0.00    +0.123 A 
ENDBRANCH  16  18
ENDBRANCH  13   6
ENDBRANCH  11  13
TORSDOF 7
ENDMDL
MODEL 7
REMARK VINA RESULT:      -2.8      2.795      5.311
REMARK  Name = 75536647
REMARK  8 active torsions:
REMARK  status: ('A' for Active; 'I' for Inactive)
REMARK    1  A    between atoms: O_3  and  C_10
REMARK    2  A    between atoms: N_5  and  C_9
REMARK    3  A    between atoms: N_5  and  C_14
REMARK    4  A    between atoms: N_6  and  C_13
REMARK    5  A    between atoms: N_7  and  C_19
REMARK    6  A    between atoms: C_11  and  C_13
REMARK    7  A    between atoms: C_14  and  C_15
REMARK    8  A    between atoms: C_16  and  C_18
REMARK                            x       y       z     vdW  Elec       q    Type
REMARK                         _______ _______ _______ _____ _____    ______ ____
ROOT
ATOM      2  O   UNL     1      -2.224  -1.458  26.827  0.00  0.00    -0.371 OA
ATOM      9  C   UNL     1      -3.534  -2.123  24.961  0.00  0.00    +0.111 C 
ATOM     10  C   UNL     1      -2.141  -1.758  24.483  0.00  0.00    +0.164 C 
ATOM     11  C   UNL     1      -1.345  -1.886  25.774  0.00  0.00    +0.165 C 
ATOM     12  C   UNL     1      -3.572  -1.449  26.322  0.00  0.00    +0.181 C 
ENDROOT
BRANCH  10   3
ATOM      3  O   UNL     1      -1.662  -2.631  23.478  0.00  0.00    -0.388 OA
ATOM     27  H   UNL     1      -2.418  -2.923  22.940  0.00  0.00    +0.210 HD
ENDBRANCH  10   3
BRANCH   9   5
ATOM      5  N   UNL     1      -4.593  -1.667  24.075  0.00  0.00    -0.302 NA
ATOM     26  H   UNL     1      -5.454  -1.557  24.612  0.00  0.00    +0.123 HD
BRANCH   5  14
ATOM     14  C   UNL     1      -4.252  -0.389  23.462  0.00  0.00    +0.156 C 
BRANCH  14  15
ATOM      7  N   UNL     1      -4.395   2.065  23.998  0.00  0.00    -0.336 N 
ATOM      8  N   UNL     1      -5.558   0.705  25.312  0.00  0.00    -0.239 NA
ATOM     15  C   UNL     1      -4.752   0.774  24.276  0.00  0.00    +0.123 A 
ATOM     17  C   UNL     1      -5.013   2.868  24.913  0.00  0.00    +0.106 A 
ATOM     19  C   UNL     1      -3.526   2.514  22.934  0.00  0.00    +0.150 C 
ATOM     20  C   UNL     1      -5.725   2.006  25.713  0.00  0.00    +0.130 A 
ENDBRANCH  14  15
ENDBRANCH   5  14
ENDBRANCH   9   5
BRANCH  11  13
ATOM     13  C   UNL     1      -0.082  -1.044  25.787  0.00  0.00    +0.138 C 
BRANCH  13   6
ATOM      4  O   UNL     1       0.030   0.701  23.508  0.00  0.00    -0.270 OA
ATOM      6  N   UNL     1      -0.389   0.357  25.764  0.00  0.00    -0.309 N 
ATOM     16  C   UNL     1      -0.308   1.129  24.609  0.00  0.00    +0.244 C 
ATOM     28  H   UNL     1      -0.607   0.789  26.657  0.00  0.00    +0.149 HD
BRANCH  16  18
ATOM      1  F   UNL     1      -1.531   6.579  25.178  0.00  0.00    -0.205 F 
ATOM     18  C   UNL     1      -0.633   2.571  24.759  0.00  0.00    +0.037 A 
ATOM     21  C   UNL     1      -1.531   2.985  25.742  0.00  0.00    +0.016 A 
ATOM     22  C   UNL     1      -0.038   3.511  23.918  0.00  0.00    +0.016 A 
ATOM     23  C   UNL     1      -1.835   4.338  25.884  0.00  0.00    +0.039 A 
ATOM     24  C   UNL     1      -0.342   4.864  24.058  0.00  0.00    +0.039 A 
ATOM     25  C   UNL     1      -1.241   5.278  25.042  0.00  0.00    +0.123 A 
ENDBRANCH  16  18
ENDBRANCH  13   6
ENDBRANCH  11  13
TORSDOF 7
ENDMDL
MODEL 8
REMARK VINA RESULT:      -2.6      2.728      5.306
REMARK  Name = 75536647
REMARK  8 active torsions:
REMARK  status: ('A' for Active; 'I' for Inactive)
REMARK    1  A    between atoms: O_3  and  C_10
REMARK    2  A    between atoms: N_5  and  C_9
REMARK    3  A    between atoms: N_5  and  C_14
REMARK    4  A    between atoms: N_6  and  C_13
REMARK    5  A    between atoms: N_7  and  C_19
REMARK    6  A    between atoms: C_11  and  C_13
REMARK    7  A    between atoms: C_14  and  C_15
REMARK    8  A    between atoms: C_16  and  C_18
REMARK                            x       y       z     vdW  Elec       q    Type
REMARK                         _______ _______ _______ _____ _____    ______ ____
ROOT
ATOM      2  O   UNL     1      -1.516  -2.635  24.893  0.00  0.00    -0.371 OA
ATOM      9  C   UNL     1      -3.544  -1.754  24.024  0.00  0.00    +0.111 C 
ATOM     10  C   UNL     1      -2.423  -0.766  23.763  0.00  0.00    +0.164 C 
ATOM     11  C   UNL     1      -1.203  -1.669  23.876  0.00  0.00    +0.165 C 
ATOM     12  C   UNL     1      -2.937  -2.615  25.120  0.00  0.00    +0.181 C 
ENDROOT
BRANCH  10   3
ATOM      3  O   UNL     1      -2.515  -0.160  22.488  0.00  0.00    -0.388 OA
ATOM     27  H   UNL     1      -2.517  -0.862  21.815  0.00  0.00    +0.210 HD
ENDBRANCH  10   3
BRANCH   9   5
ATOM      5  N   UNL     1      -4.793  -1.127  24.425  0.00  0.00    -0.302 NA
ATOM     26  H   UNL     1      -5.446  -1.848  24.731  0.00  0.00    +0.123 HD
BRANCH   5  14
ATOM     14  C   UNL     1      -4.582  -0.186  25.519  0.00  0.00    +0.156 C 
BRANCH  14  15
ATOM      7  N   UNL     1      -5.576   2.119  25.687  0.00  0.00    -0.336 N 
ATOM      8  N   UNL     1      -4.092   1.806  24.065  0.00  0.00    -0.239 NA
ATOM     15  C   UNL     1      -4.729   1.242  25.067  0.00  0.00    +0.123 A 
ATOM     17  C   UNL     1      -5.472   3.317  25.040  0.00  0.00    +0.106 A 
ATOM     19  C   UNL     1      -6.431   1.845  26.820  0.00  0.00    +0.150 C 
ATOM     20  C   UNL     1      -4.550   3.099  24.043  0.00  0.00    +0.130 A 
ENDBRANCH  14  15
ENDBRANCH   5  14
ENDBRANCH   9   5
BRANCH  11  13
ATOM     13  C   UNL     1       0.065  -0.923  24.251  0.00  0.00    +0.138 C 
BRANCH  13   6
ATOM      4  O   UNL     1      -1.101   0.541  26.430  0.00  0.00    -0.270 OA
ATOM      6  N   UNL     1      -0.161   0.492  24.309  0.00  0.00    -0.309 N 
ATOM     16  C   UNL     1      -0.734   1.120  25.411  0.00  0.00    +0.244 C 
ATOM     28  H   UNL     1       0.056   1.022  23.471  0.00  0.00    +0.149 HD
BRANCH  16  18
ATOM      1  F   UNL     1      -1.458   6.672  25.000  0.00  0.00    -0.205 F 
ATOM     18  C   UNL     1      -0.924   2.590  25.303  0.00  0.00    +0.037 A 
ATOM     21  C   UNL     1      -0.174   3.325  24.386  0.00  0.00    +0.016 A 
ATOM     22  C   UNL     1      -1.855   3.234  26.118  0.00  0.00    +0.016 A 
ATOM     23  C   UNL     1      -0.354   4.704  24.283  0.00  0.00    +0.039 A 
ATOM     24  C   UNL     1      -2.035   4.613  26.016  0.00  0.00    +0.039 A 
ATOM     25  C   UNL     1      -1.285   5.348  25.099  0.00  0.00    +0.123 A 
ENDBRANCH  16  18
ENDBRANCH  13   6
ENDBRANCH  11  13
TORSDOF 7
ENDMDL
MODEL 9
REMARK VINA RESULT:      -2.3      3.022      6.676
REMARK  Name = 75536647
REMARK  8 active torsions:
REMARK  status: ('A' for Active; 'I' for Inactive)
REMARK    1  A    between atoms: O_3  and  C_10
REMARK    2  A    between atoms: N_5  and  C_9
REMARK    3  A    between atoms: N_5  and  C_14
REMARK    4  A    between atoms: N_6  and  C_13
REMARK    5  A    between atoms: N_7  and  C_19
REMARK    6  A    between atoms: C_11  and  C_13
REMARK    7  A    between atoms: C_14  and  C_15
REMARK    8  A    between atoms: C_16  and  C_18
REMARK                            x       y       z     vdW  Elec       q    Type
REMARK                         _______ _______ _______ _____ _____    ______ ____
ROOT
ATOM      2  O   UNL     1      -3.184  -2.639  24.457  0.00  0.00    -0.371 OA
ATOM      9  C   UNL     1      -0.941  -2.188  25.097  0.00  0.00    +0.111 C 
ATOM     10  C   UNL     1      -1.833  -1.066  25.594  0.00  0.00    +0.164 C 
ATOM     11  C   UNL     1      -3.195  -1.747  25.583  0.00  0.00    +0.165 C 
ATOM     12  C   UNL     1      -1.821  -2.822  24.032  0.00  0.00    +0.181 C 
ENDROOT
BRANCH  10   3
ATOM      3  O   UNL     1      -1.477  -0.619  26.888  0.00  0.00    -0.388 OA
ATOM     27  H   UNL     1      -1.897  -1.205  27.541  0.00  0.00    +0.210 HD
ENDBRANCH  10   3
BRANCH   9   5
ATOM      5  N   UNL     1       0.337  -1.730  24.575  0.00  0.00    -0.302 NA
ATOM     26  H   UNL     1       0.843  -2.525  24.186  0.00  0.00    +0.123 HD
BRANCH   5  14
ATOM     14  C   UNL     1       0.149  -0.731  23.529  0.00  0.00    +0.156 C 
BRANCH  14  15
ATOM      7  N   UNL     1       1.712   1.238  23.449  0.00  0.00    -0.336 N 
ATOM      8  N   UNL     1       2.444  -0.634  22.505  0.00  0.00    -0.239 NA
ATOM     15  C   UNL     1       1.446  -0.069  23.147  0.00  0.00    +0.123 A 
ATOM     17  C   UNL     1       2.958   1.524  22.968  0.00  0.00    +0.106 A 
ATOM     19  C   UNL     1       0.847   2.161  24.146  0.00  0.00    +0.150 C 
ATOM     20  C   UNL     1       3.390   0.353  22.390  0.00  0.00    +0.130 A 
ENDBRANCH  14  15
ENDBRANCH   5  14
ENDBRANCH   9   5
BRANCH  11  13
ATOM     13  C   UNL     1      -4.352  -0.773  25.455  0.00  0.00    +0.138 C 
BRANCH  13   6
ATOM      4  O   UNL     1      -3.519   0.854  23.239  0.00  0.00    -0.270 OA
ATOM      6  N   UNL     1      -3.899   0.586  25.513  0.00  0.00    -0.309 N 
ATOM     16  C   UNL     1      -3.513   1.302  24.383  0.00  0.00    +0.244 C 
ATOM     28  H   UNL     1      -3.803   0.995  26.437  0.00  0.00    +0.149 HD
BRANCH  16  18
ATOM      1  F   UNL     1      -1.733   6.554  25.256  0.00  0.00    -0.205 F 
ATOM     18  C   UNL     1      -3.043   2.692  24.615  0.00  0.00    +0.037 A 
ATOM     21  C   UNL     1      -1.956   2.929  25.456  0.00  0.00    +0.016 A 
ATOM     22  C   UNL     1      -3.686   3.760  23.990  0.00  0.00    +0.016 A 
ATOM     23  C   UNL     1      -1.513   4.233  25.673  0.00  0.00    +0.039 A 
ATOM     24  C   UNL     1      -3.245   5.064  24.207  0.00  0.00    +0.039 A 
ATOM     25  C   UNL     1      -2.158   5.301  25.049  0.00  0.00    +0.123 A 
ENDBRANCH  16  18
ENDBRANCH  13   6
ENDBRANCH  11  13
TORSDOF 7
ENDMDL
MODEL 10
REMARK VINA RESULT:      -1.6      3.591      5.044
REMARK  Name = 75536647
REMARK  8 active torsions:
REMARK  status: ('A' for Active; 'I' for Inactive)
REMARK    1  A    between atoms: O_3  and  C_10
REMARK    2  A    between atoms: N_5  and  C_9
REMARK    3  A    between atoms: N_5  and  C_14
REMARK    4  A    between atoms: N_6  and  C_13
REMARK    5  A    between atoms: N_7  and  C_19
REMARK    6  A    between atoms: C_11  and  C_13
REMARK    7  A    between atoms: C_14  and  C_15
REMARK    8  A    between atoms: C_16  and  C_18
REMARK                            x       y       z     vdW  Elec       q    Type
REMARK                         _______ _______ _______ _____ _____    ______ ____
ROOT
ATOM      2  O   UNL     1      -0.643   4.181  23.876  0.00  0.00    -0.371 OA
ATOM      9  C   UNL     1      -1.727   4.201  25.989  0.00  0.00    +0.111 C 
ATOM     10  C   UNL     1      -1.262   2.790  25.685  0.00  0.00    +0.164 C 
ATOM     11  C   UNL     1      -0.186   3.054  24.641  0.00  0.00    +0.165 C 
ATOM     12  C   UNL     1      -1.698   4.832  24.606  0.00  0.00    +0.181 C 
ENDROOT
BRANCH  10   3
ATOM      3  O   UNL     1      -0.743   2.129  26.823  0.00  0.00    -0.388 OA
ATOM     27  H   UNL     1       0.087   1.690  26.570  0.00  0.00    +0.210 HD
ENDBRANCH  10   3
BRANCH   9   5
ATOM      5  N   UNL     1      -3.041   4.262  26.610  0.00  0.00    -0.302 NA
ATOM     26  H   UNL     1      -3.090   5.087  27.208  0.00  0.00    +0.123 HD
BRANCH   5  14
ATOM     14  C   UNL     1      -4.094   4.346  25.605  0.00  0.00    +0.156 C 
BRANCH  14  15
ATOM      7  N   UNL     1      -4.705   2.151  24.537  0.00  0.00    -0.336 N 
ATOM      8  N   UNL     1      -5.845   2.707  26.361  0.00  0.00    -0.239 NA
ATOM     15  C   UNL     1      -4.898   3.076  25.527  0.00  0.00    +0.123 A 
ATOM     17  C   UNL     1      -5.585   1.129  24.755  0.00  0.00    +0.106 A 
ATOM     19  C   UNL     1      -3.752   2.225  23.455  0.00  0.00    +0.150 C 
ATOM     20  C   UNL     1      -6.277   1.494  25.886  0.00  0.00    +0.130 A 
ENDBRANCH  14  15
ENDBRANCH   5  14
ENDBRANCH   9   5
BRANCH  11  13
ATOM     13  C   UNL     1       0.058   1.873  23.719  0.00  0.00    +0.138 C 
BRANCH  13   6
ATOM      4  O   UNL     1       1.217  -0.347  22.311  0.00  0.00    -0.270 OA
ATOM      6  N   UNL     1       1.428   1.449  23.766  0.00  0.00    -0.309 N 
ATOM     16  C   UNL     1       1.905   0.357  23.047  0.00  0.00    +0.244 C 
ATOM     28  H   UNL     1       2.035   1.945  24.410  0.00  0.00    +0.149 HD
BRANCH  16  18
ATOM      1  F   UNL     1       7.342  -0.874  23.714  0.00  0.00    -0.205 F 
ATOM     18  C   UNL     1       3.343   0.031  23.225  0.00  0.00    +0.037 A 
ATOM     21  C   UNL     1       3.722  -1.238  23.662  0.00  0.00    +0.016 A 
ATOM     22  C   UNL     1       4.315   0.994  22.952  0.00  0.00    +0.016 A 
ATOM     23  C   UNL     1       5.073  -1.544  23.827  0.00  0.00    +0.039 A 
ATOM     24  C   UNL     1       5.665   0.689  23.119  0.00  0.00    +0.039 A 
ATOM     25  C   UNL     1       6.045  -0.580  23.556  0.00  0.00    +0.123 A 
ENDBRANCH  16  18
ENDBRANCH  13   6
ENDBRANCH  11  13
TORSDOF 7
ENDMDL
