MODEL 1
REMARK VINA RESULT:      -3.8      0.000      0.000
REMARK  Name = 45783998
REMARK  12 active torsions:
REMARK  status: ('A' for Active; 'I' for Inactive)
REMARK    1  A    between atoms: O_1  and  C_21
REMARK    2  A    between atoms: N_3  and  C_11
REMARK    3  A    between atoms: C_6  and  C_10
REMARK    4  A    between atoms: C_7  and  C_11
REMARK    5  A    between atoms: C_9  and  C_14
REMARK    6  A    between atoms: C_10  and  C_17
REMARK    7  A    between atoms: C_10  and  C_18
REMARK    8  A    between atoms: C_13  and  C_22
REMARK    9  A    between atoms: C_14  and  C_23
REMARK   10  A    between atoms: C_24  and  C_25
REMARK   11  A    between atoms: C_25  and  C_26
REMARK   12  A    between atoms: C_26  and  C_27
REMARK                            x       y       z     vdW  Elec       q    Type
REMARK                         _______ _______ _______ _____ _____    ______ ____
ROOT
ATOM      6  C   UNL     1      -1.714   2.281  25.687  0.00  0.00    +0.000 C 
ATOM      7  C   UNL     1      -3.105   2.390  25.019  0.00  0.00    +0.029 C 
ATOM      8  C   UNL     1      -0.902   1.141  25.054  0.00  0.00    +0.012 C 
ATOM      9  C   UNL     1      -0.729   1.288  23.528  0.00  0.00    +0.024 C 
ATOM     12  C   UNL     1      -3.037   2.277  23.517  0.00  0.00    -0.023 C 
ATOM     13  C   UNL     1      -1.981   1.800  22.832  0.00  0.00    -0.073 C 
ATOM     22  C   UNL     1      -1.985   1.813  21.328  0.00  0.00    +0.039 C 
ENDROOT
BRANCH   6  10
ATOM     10  C   UNL     1      -0.953   3.611  25.614  0.00  0.00    -0.013 C 
ATOM     17  C   UNL     1      -1.900   4.746  25.241  0.00  0.00    +0.007 C 
ATOM     18  C   UNL     1       0.194   3.514  24.612  0.00  0.00    +0.007 C 
ENDBRANCH   6  10
BRANCH   7  11
ATOM     11  C   UNL     1      -4.077   1.335  25.559  0.00  0.00    +0.092 C 
BRANCH  11   3
ATOM      3  N   UNL     1      -3.713   0.003  25.077  0.00  0.00    -0.302 NA
ATOM     15  C   UNL     1      -3.541  -0.923  26.206  0.00  0.00    +0.087 C 
ATOM     16  C   UNL     1      -4.721  -0.494  24.130  0.00  0.00    +0.087 C 
ATOM     19  C   UNL     1      -3.112  -2.307  25.721  0.00  0.00    +0.046 C 
ATOM     20  C   UNL     1      -4.329  -1.864  23.579  0.00  0.00    +0.046 C 
ATOM     21  C   UNL     1      -4.101  -2.870  24.704  0.00  0.00    +0.117 C 
BRANCH  21   1
ATOM      1  O   UNL     1      -3.594  -4.077  24.150  0.00  0.00    -0.392 OA
ATOM     28  H   UNL     1      -3.775  -4.790  24.787  0.00  0.00    +0.210 HD
ENDBRANCH  21   1
ENDBRANCH  11   3
ENDBRANCH   7  11
BRANCH   9  14
ATOM     14  C   UNL     1      -0.236  -0.049  22.960  0.00  0.00    +0.105 C 
BRANCH  14  23
ATOM      2  O   UNL     1       2.081   0.628  23.316  0.00  0.00    -0.425 OA
ATOM      4  N   UNL     1       1.705  -0.340  21.335  0.00  0.00    -0.112 NA
ATOM      5  N   UNL     1       3.045  -0.011  21.402  0.00  0.00    -0.112 NA
ATOM     23  C   UNL     1       1.181   0.051  22.474  0.00  0.00    +0.218 A 
ATOM     24  C   UNL     1       3.220   0.552  22.574  0.00  0.00    +0.217 A 
BRANCH  24  25
ATOM     25  C   UNL     1       4.444   1.092  23.180  0.00  0.00    +0.097 C 
BRANCH  25  26
ATOM     26  C   UNL     1       5.474  -0.000  23.538  0.00  0.00    +0.006 C 
ATOM     27  C   UNL     1       4.823  -1.320  23.923  0.00  0.00    +0.004 C 
ENDBRANCH  25  26
ENDBRANCH  24  25
ENDBRANCH  14  23
ENDBRANCH   9  14
TORSDOF 8
ENDMDL
MODEL 2
REMARK VINA RESULT:      -3.3      2.029      4.542
REMARK  Name = 45783998
REMARK  12 active torsions:
REMARK  status: ('A' for Active; 'I' for Inactive)
REMARK    1  A    between atoms: O_1  and  C_21
REMARK    2  A    between atoms: N_3  and  C_11
REMARK    3  A    between atoms: C_6  and  C_10
REMARK    4  A    between atoms: C_7  and  C_11
REMARK    5  A    between atoms: C_9  and  C_14
REMARK    6  A    between atoms: C_10  and  C_17
REMARK    7  A    between atoms: C_10  and  C_18
REMARK    8  A    between atoms: C_13  and  C_22
REMARK    9  A    between atoms: C_14  and  C_23
REMARK   10  A    between atoms: C_24  and  C_25
REMARK   11  A    between atoms: C_25  and  C_26
REMARK   12  A    between atoms: C_26  and  C_27
REMARK                            x       y       z     vdW  Elec       q    Type
REMARK                         _______ _______ _______ _____ _____    ______ ____
ROOT
ATOM      6  C   UNL     1      -3.593  -0.614  23.617  0.00  0.00    +0.000 C 
ATOM      7  C   UNL     1      -4.204  -0.321  25.007  0.00  0.00    +0.029 C 
ATOM      8  C   UNL     1      -2.241   0.100  23.463  0.00  0.00    +0.012 C 
ATOM      9  C   UNL     1      -1.224  -0.276  24.561  0.00  0.00    +0.024 C 
ATOM     12  C   UNL     1      -3.188  -0.417  26.118  0.00  0.00    -0.023 C 
ATOM     13  C   UNL     1      -1.855  -0.411  25.939  0.00  0.00    -0.073 C 
ATOM     22  C   UNL     1      -0.931  -0.599  27.111  0.00  0.00    +0.039 C 
ENDROOT
BRANCH   6  10
ATOM     10  C   UNL     1      -3.455  -2.122  23.372  0.00  0.00    -0.013 C 
ATOM     17  C   UNL     1      -4.722  -2.850  23.808  0.00  0.00    +0.007 C 
ATOM     18  C   UNL     1      -2.236  -2.671  24.108  0.00  0.00    +0.007 C 
ENDBRANCH   6  10
BRANCH   7  11
ATOM     11  C   UNL     1      -4.873   1.056  25.054  0.00  0.00    +0.092 C 
BRANCH  11   3
ATOM      3  N   UNL     1      -3.873   2.110  25.225  0.00  0.00    -0.302 NA
ATOM     15  C   UNL     1      -3.478   2.659  23.920  0.00  0.00    +0.087 C 
ATOM     16  C   UNL     1      -4.384   3.164  26.114  0.00  0.00    +0.087 C 
ATOM     19  C   UNL     1      -2.396   3.729  24.079  0.00  0.00    +0.046 C 
ATOM     20  C   UNL     1      -3.331   4.248  26.343  0.00  0.00    +0.046 C 
ATOM     21  C   UNL     1      -2.849   4.840  25.021  0.00  0.00    +0.117 C 
BRANCH  21   1
ATOM      1  O   UNL     1      -1.770   5.729  25.279  0.00  0.00    -0.392 OA
ATOM     28  H   UNL     1      -1.746   5.891  26.237  0.00  0.00    +0.210 HD
ENDBRANCH  21   1
ENDBRANCH  11   3
ENDBRANCH   7  11
BRANCH   9  14
ATOM     14  C   UNL     1      -0.073   0.737  24.529  0.00  0.00    +0.105 C 
BRANCH  14  23
ATOM      2  O   UNL     1       2.176   0.943  23.604  0.00  0.00    -0.425 OA
ATOM      4  N   UNL     1       0.830  -0.412  22.441  0.00  0.00    -0.112 NA
ATOM      5  N   UNL     1       2.060  -0.390  21.812  0.00  0.00    -0.112 NA
ATOM     23  C   UNL     1       0.944   0.379  23.482  0.00  0.00    +0.218 A 
ATOM     24  C   UNL     1       2.814   0.413  22.524  0.00  0.00    +0.217 A 
BRANCH  24  25
ATOM     25  C   UNL     1       4.215   0.805  22.323  0.00  0.00    +0.097 C 
BRANCH  25  26
ATOM     26  C   UNL     1       5.101   0.534  23.557  0.00  0.00    +0.006 C 
ATOM     27  C   UNL     1       5.132  -0.936  23.947  0.00  0.00    +0.004 C 
ENDBRANCH  25  26
ENDBRANCH  24  25
ENDBRANCH  14  23
ENDBRANCH   9  14
TORSDOF 8
ENDMDL
MODEL 3
REMARK VINA RESULT:      -3.2     16.010     18.240
REMARK  Name = 45783998
REMARK  12 active torsions:
REMARK  status: ('A' for Active; 'I' for Inactive)
REMARK    1  A    between atoms: O_1  and  C_21
REMARK    2  A    between atoms: N_3  and  C_11
REMARK    3  A    between atoms: C_6  and  C_10
REMARK    4  A    between atoms: C_7  and  C_11
REMARK    5  A    between atoms: C_9  and  C_14
REMARK    6  A    between atoms: C_10  and  C_17
REMARK    7  A    between atoms: C_10  and  C_18
REMARK    8  A    between atoms: C_13  and  C_22
REMARK    9  A    between atoms: C_14  and  C_23
REMARK   10  A    between atoms: C_24  and  C_25
REMARK   11  A    between atoms: C_25  and  C_26
REMARK   12  A    between atoms: C_26  and  C_27
REMARK                            x       y       z     vdW  Elec       q    Type
REMARK                         _______ _______ _______ _____ _____    ______ ____
ROOT
ATOM      6  C   UNL     1      13.329  -6.728  32.752  0.00  0.00    +0.000 C 
ATOM      7  C   UNL     1      12.462  -7.350  31.632  0.00  0.00    +0.029 C 
ATOM      8  C   UNL     1      14.815  -7.034  32.514  0.00  0.00    +0.012 C 
ATOM      9  C   UNL     1      15.327  -6.551  31.141  0.00  0.00    +0.024 C 
ATOM     12  C   UNL     1      13.050  -7.137  30.259  0.00  0.00    -0.023 C 
ATOM     13  C   UNL     1      14.322  -6.768  30.020  0.00  0.00    -0.073 C 
ATOM     22  C   UNL     1      14.780  -6.499  28.613  0.00  0.00    +0.039 C 
ENDROOT
BRANCH   6  10
ATOM     10  C   UNL     1      13.086  -5.218  32.873  0.00  0.00    -0.013 C 
ATOM     17  C   UNL     1      11.867  -4.807  32.055  0.00  0.00    +0.007 C 
ATOM     18  C   UNL     1      14.323  -4.442  32.427  0.00  0.00    +0.007 C 
ENDBRANCH   6  10
BRANCH   7  11
ATOM     11  C   UNL     1      12.237  -8.848  31.856  0.00  0.00    +0.092 C 
BRANCH  11   3
ATOM      3  N   UNL     1      10.887  -9.097  32.362  0.00  0.00    -0.302 NA
ATOM     15  C   UNL     1      10.026  -7.929  32.123  0.00  0.00    +0.087 C 
ATOM     16  C   UNL     1      10.323 -10.308  31.749  0.00  0.00    +0.087 C 
ATOM     19  C   UNL     1       8.624  -8.155  32.691  0.00  0.00    +0.046 C 
ATOM     20  C   UNL     1       8.932 -10.609  32.304  0.00  0.00    +0.046 C 
ATOM     21  C   UNL     1       7.992  -9.421  32.120  0.00  0.00    +0.117 C 
BRANCH  21   1
ATOM      1  O   UNL     1       6.766  -9.694  32.785  0.00  0.00    -0.392 OA
ATOM     28  H   UNL     1       6.945 -10.364  33.467  0.00  0.00    +0.210 HD
ENDBRANCH  21   1
ENDBRANCH  11   3
ENDBRANCH   7  11
BRANCH   9  14
ATOM     14  C   UNL     1      16.682  -7.212  30.864  0.00  0.00    +0.105 C 
BRANCH  14  23
ATOM      2  O   UNL     1      16.957  -8.795  29.026  0.00  0.00    -0.425 OA
ATOM      4  N   UNL     1      15.990  -9.665  30.845  0.00  0.00    -0.112 NA
ATOM      5  N   UNL     1      16.084 -10.662  29.893  0.00  0.00    -0.112 NA
ATOM     23  C   UNL     1      16.513  -8.593  30.296  0.00  0.00    +0.218 A 
ATOM     24  C   UNL     1      16.654 -10.109  28.848  0.00  0.00    +0.217 A 
BRANCH  24  25
ATOM     25  C   UNL     1      17.002 -10.701  27.550  0.00  0.00    +0.097 C 
BRANCH  25  26
ATOM     26  C   UNL     1      16.949  -9.685  26.390  0.00  0.00    +0.006 C 
ATOM     27  C   UNL     1      15.531  -9.395  25.926  0.00  0.00    +0.004 C 
ENDBRANCH  25  26
ENDBRANCH  24  25
ENDBRANCH  14  23
ENDBRANCH   9  14
TORSDOF 8
ENDMDL
MODEL 4
REMARK VINA RESULT:      -2.5      1.626      2.496
REMARK  Name = 45783998
REMARK  12 active torsions:
REMARK  status: ('A' for Active; 'I' for Inactive)
REMARK    1  A    between atoms: O_1  and  C_21
REMARK    2  A    between atoms: N_3  and  C_11
REMARK    3  A    between atoms: C_6  and  C_10
REMARK    4  A    between atoms: C_7  and  C_11
REMARK    5  A    between atoms: C_9  and  C_14
REMARK    6  A    between atoms: C_10  and  C_17
REMARK    7  A    between atoms: C_10  and  C_18
REMARK    8  A    between atoms: C_13  and  C_22
REMARK    9  A    between atoms: C_14  and  C_23
REMARK   10  A    between atoms: C_24  and  C_25
REMARK   11  A    between atoms: C_25  and  C_26
REMARK   12  A    between atoms: C_26  and  C_27
REMARK                            x       y       z     vdW  Elec       q    Type
REMARK                         _______ _______ _______ _____ _____    ______ ____
ROOT
ATOM      6  C   UNL     1      -4.196   3.318  25.895  0.00  0.00    +0.000 C 
ATOM      7  C   UNL     1      -4.585   2.117  25.002  0.00  0.00    +0.029 C 
ATOM      8  C   UNL     1      -2.679   3.340  26.136  0.00  0.00    +0.012 C 
ATOM      9  C   UNL     1      -1.854   3.379  24.833  0.00  0.00    +0.024 C 
ATOM     12  C   UNL     1      -3.649   1.937  23.834  0.00  0.00    -0.023 C 
ATOM     13  C   UNL     1      -2.432   2.501  23.733  0.00  0.00    -0.073 C 
ATOM     22  C   UNL     1      -1.615   2.324  22.483  0.00  0.00    +0.039 C 
ENDROOT
BRANCH   6  10
ATOM     10  C   UNL     1      -4.680   4.644  25.292  0.00  0.00    -0.013 C 
ATOM     17  C   UNL     1      -6.181   4.808  25.506  0.00  0.00    +0.007 C 
ATOM     18  C   UNL     1      -4.335   4.711  23.807  0.00  0.00    +0.007 C 
ENDBRANCH   6  10
BRANCH   7  11
ATOM     11  C   UNL     1      -4.648   0.812  25.803  0.00  0.00    +0.092 C 
BRANCH  11   3
ATOM      3  N   UNL     1      -3.938  -0.258  25.102  0.00  0.00    -0.302 NA
ATOM     15  C   UNL     1      -3.292  -1.162  26.065  0.00  0.00    +0.087 C 
ATOM     16  C   UNL     1      -4.855  -0.989  24.217  0.00  0.00    +0.087 C 
ATOM     19  C   UNL     1      -2.505  -2.258  25.347  0.00  0.00    +0.046 C 
ATOM     20  C   UNL     1      -4.117  -2.079  23.440  0.00  0.00    +0.046 C 
ATOM     21  C   UNL     1      -3.393  -3.037  24.381  0.00  0.00    +0.117 C 
BRANCH  21   1
ATOM      1  O   UNL     1      -2.603  -3.934  23.611  0.00  0.00    -0.392 OA
ATOM     28  H   UNL     1      -1.793  -3.464  23.354  0.00  0.00    +0.210 HD
ENDBRANCH  21   1
ENDBRANCH  11   3
ENDBRANCH   7  11
BRANCH   9  14
ATOM     14  C   UNL     1      -0.397   3.036  25.167  0.00  0.00    +0.105 C 
BRANCH  14  23
ATOM      2  O   UNL     1       1.090   1.676  23.790  0.00  0.00    -0.425 OA
ATOM      4  N   UNL     1      -0.563   0.525  24.763  0.00  0.00    -0.112 NA
ATOM      5  N   UNL     1       0.196  -0.361  24.023  0.00  0.00    -0.112 NA
ATOM     23  C   UNL     1      -0.004   1.702  24.599  0.00  0.00    +0.218 A 
ATOM     24  C   UNL     1       1.149   0.354  23.471  0.00  0.00    +0.217 A 
BRANCH  24  25
ATOM     25  C   UNL     1       2.241  -0.067  22.585  0.00  0.00    +0.097 C 
BRANCH  25  26
ATOM     26  C   UNL     1       3.454   0.886  22.626  0.00  0.00    +0.006 C 
ATOM     27  C   UNL     1       4.722   0.205  23.114  0.00  0.00    +0.004 C 
ENDBRANCH  25  26
ENDBRANCH  24  25
ENDBRANCH  14  23
ENDBRANCH   9  14
TORSDOF 8
ENDMDL
MODEL 5
REMARK VINA RESULT:      -2.4      2.259      7.265
REMARK  Name = 45783998
REMARK  12 active torsions:
REMARK  status: ('A' for Active; 'I' for Inactive)
REMARK    1  A    between atoms: O_1  and  C_21
REMARK    2  A    between atoms: N_3  and  C_11
REMARK    3  A    between atoms: C_6  and  C_10
REMARK    4  A    between atoms: C_7  and  C_11
REMARK    5  A    between atoms: C_9  and  C_14
REMARK    6  A    between atoms: C_10  and  C_17
REMARK    7  A    between atoms: C_10  and  C_18
REMARK    8  A    between atoms: C_13  and  C_22
REMARK    9  A    between atoms: C_14  and  C_23
REMARK   10  A    between atoms: C_24  and  C_25
REMARK   11  A    between atoms: C_25  and  C_26
REMARK   12  A    between atoms: C_26  and  C_27
REMARK                            x       y       z     vdW  Elec       q    Type
REMARK                         _______ _______ _______ _____ _____    ______ ____
ROOT
ATOM      6  C   UNL     1      -0.038   1.765  23.840  0.00  0.00    +0.000 C 
ATOM      7  C   UNL     1       0.679   0.420  24.101  0.00  0.00    +0.029 C 
ATOM      8  C   UNL     1      -1.510   1.526  23.470  0.00  0.00    +0.012 C 
ATOM      9  C   UNL     1      -2.286   0.727  24.538  0.00  0.00    +0.024 C 
ATOM     12  C   UNL     1      -0.147  -0.525  24.935  0.00  0.00    -0.023 C 
ATOM     13  C   UNL     1      -1.469  -0.399  25.152  0.00  0.00    -0.073 C 
ATOM     22  C   UNL     1      -2.180  -1.352  26.073  0.00  0.00    +0.039 C 
ENDROOT
BRANCH   6  10
ATOM     10  C   UNL     1       0.084   2.707  25.045  0.00  0.00    -0.013 C 
ATOM     17  C   UNL     1      -0.450   2.034  26.304  0.00  0.00    +0.007 C 
ATOM     18  C   UNL     1      -0.657   4.014  24.776  0.00  0.00    +0.007 C 
ENDBRANCH   6  10
BRANCH   7  11
ATOM     11  C   UNL     1       1.074  -0.274  22.793  0.00  0.00    +0.092 C 
BRANCH  11   3
ATOM      3  N   UNL     1       2.529  -0.367  22.676  0.00  0.00    -0.302 NA
ATOM     15  C   UNL     1       3.136   0.969  22.752  0.00  0.00    +0.087 C 
ATOM     16  C   UNL     1       3.072  -1.258  23.712  0.00  0.00    +0.087 C 
ATOM     19  C   UNL     1       4.654   0.894  22.582  0.00  0.00    +0.046 C 
ATOM     20  C   UNL     1       4.586  -1.405  23.572  0.00  0.00    +0.046 C 
ATOM     21  C   UNL     1       5.281  -0.046  23.608  0.00  0.00    +0.117 C 
BRANCH  21   1
ATOM      1  O   UNL     1       6.662  -0.225  23.323  0.00  0.00    -0.392 OA
ATOM     28  H   UNL     1       7.060  -0.684  24.082  0.00  0.00    +0.210 HD
ENDBRANCH  21   1
ENDBRANCH  11   3
ENDBRANCH   7  11
BRANCH   9  14
ATOM     14  C   UNL     1      -3.604   0.241  23.922  0.00  0.00    +0.105 C 
BRANCH  14  23
ATOM      2  O   UNL     1      -4.538   2.320  24.794  0.00  0.00    -0.425 OA
ATOM      4  N   UNL     1      -6.023   0.658  24.607  0.00  0.00    -0.112 NA
ATOM      5  N   UNL     1      -6.682   1.765  25.106  0.00  0.00    -0.112 NA
ATOM     23  C   UNL     1      -4.774   1.028  24.439  0.00  0.00    +0.218 A 
ATOM     24  C   UNL     1      -5.777   2.711  25.200  0.00  0.00    +0.217 A 
BRANCH  24  25
ATOM     25  C   UNL     1      -5.915   4.096  25.666  0.00  0.00    +0.097 C 
BRANCH  25  26
ATOM     26  C   UNL     1      -4.581   4.871  25.666  0.00  0.00    +0.006 C 
ATOM     27  C   UNL     1      -3.534   4.239  26.570  0.00  0.00    +0.004 C 
ENDBRANCH  25  26
ENDBRANCH  24  25
ENDBRANCH  14  23
ENDBRANCH   9  14
TORSDOF 8
ENDMDL
MODEL 6
REMARK VINA RESULT:      -2.1     15.744     17.485
REMARK  Name = 45783998
REMARK  12 active torsions:
REMARK  status: ('A' for Active; 'I' for Inactive)
REMARK    1  A    between atoms: O_1  and  C_21
REMARK    2  A    between atoms: N_3  and  C_11
REMARK    3  A    between atoms: C_6  and  C_10
REMARK    4  A    between atoms: C_7  and  C_11
REMARK    5  A    between atoms: C_9  and  C_14
REMARK    6  A    between atoms: C_10  and  C_17
REMARK    7  A    between atoms: C_10  and  C_18
REMARK    8  A    between atoms: C_13  and  C_22
REMARK    9  A    between atoms: C_14  and  C_23
REMARK   10  A    between atoms: C_24  and  C_25
REMARK   11  A    between atoms: C_25  and  C_26
REMARK   12  A    between atoms: C_26  and  C_27
REMARK                            x       y       z     vdW  Elec       q    Type
REMARK                         _______ _______ _______ _____ _____    ______ ____
ROOT
ATOM      6  C   UNL     1      13.056  -6.372  32.873  0.00  0.00    +0.000 C 
ATOM      7  C   UNL     1      12.030  -7.187  32.051  0.00  0.00    +0.029 C 
ATOM      8  C   UNL     1      14.486  -6.686  32.410  0.00  0.00    +0.012 C 
ATOM      9  C   UNL     1      14.712  -6.428  30.905  0.00  0.00    +0.024 C 
ATOM     12  C   UNL     1      12.344  -7.194  30.576  0.00  0.00    -0.023 C 
ATOM     13  C   UNL     1      13.531  -6.847  30.044  0.00  0.00    -0.073 C 
ATOM     22  C   UNL     1      13.709  -6.807  28.551  0.00  0.00    +0.039 C 
ENDROOT
BRANCH   6  10
ATOM     10  C   UNL     1      12.766  -4.868  32.796  0.00  0.00    -0.013 C 
ATOM     17  C   UNL     1      11.587  -4.600  31.866  0.00  0.00    +0.007 C 
ATOM     18  C   UNL     1      14.005  -4.110  32.329  0.00  0.00    +0.007 C 
ENDBRANCH   6  10
BRANCH   7  11
ATOM     11  C   UNL     1      11.924  -8.632  32.550  0.00  0.00    +0.092 C 
BRANCH  11   3
ATOM      3  N   UNL     1      10.524  -9.010  32.741  0.00  0.00    -0.302 NA
ATOM     15  C   UNL     1       9.648  -7.843  32.564  0.00  0.00    +0.087 C 
ATOM     16  C   UNL     1      10.155 -10.097  31.822  0.00  0.00    +0.087 C 
ATOM     19  C   UNL     1       8.184  -8.212  32.809  0.00  0.00    +0.046 C 
ATOM     20  C   UNL     1       8.708 -10.537  32.044  0.00  0.00    +0.046 C 
ATOM     21  C   UNL     1       7.744  -9.362  31.909  0.00  0.00    +0.117 C 
BRANCH  21   1
ATOM      1  O   UNL     1       6.438  -9.791  32.272  0.00  0.00    -0.392 OA
ATOM     28  H   UNL     1       6.418  -9.881  33.240  0.00  0.00    +0.210 HD
ENDBRANCH  21   1
ENDBRANCH  11   3
ENDBRANCH   7  11
BRANCH   9  14
ATOM     14  C   UNL     1      16.025  -7.101  30.486  0.00  0.00    +0.105 C 
BRANCH  14  23
ATOM      2  O   UNL     1      16.646  -7.298  28.134  0.00  0.00    -0.425 OA
ATOM      4  N   UNL     1      17.013  -5.273  29.011  0.00  0.00    -0.112 NA
ATOM      5  N   UNL     1      17.405  -5.242  27.686  0.00  0.00    -0.112 NA
ATOM     23  C   UNL     1      16.576  -6.492  29.228  0.00  0.00    +0.218 A 
ATOM     24  C   UNL     1      17.173  -6.445  27.214  0.00  0.00    +0.217 A 
BRANCH  24  25
ATOM     25  C   UNL     1      17.396  -6.979  25.865  0.00  0.00    +0.097 C 
BRANCH  25  26
ATOM     26  C   UNL     1      16.990  -5.993  24.749  0.00  0.00    +0.006 C 
ATOM     27  C   UNL     1      17.147  -6.582  23.357  0.00  0.00    +0.004 C 
ENDBRANCH  25  26
ENDBRANCH  24  25
ENDBRANCH  14  23
ENDBRANCH   9  14
TORSDOF 8
ENDMDL
MODEL 7
REMARK VINA RESULT:      -1.9      2.245      4.773
REMARK  Name = 45783998
REMARK  12 active torsions:
REMARK  status: ('A' for Active; 'I' for Inactive)
REMARK    1  A    between atoms: O_1  and  C_21
REMARK    2  A    between atoms: N_3  and  C_11
REMARK    3  A    between atoms: C_6  and  C_10
REMARK    4  A    between atoms: C_7  and  C_11
REMARK    5  A    between atoms: C_9  and  C_14
REMARK    6  A    between atoms: C_10  and  C_17
REMARK    7  A    between atoms: C_10  and  C_18
REMARK    8  A    between atoms: C_13  and  C_22
REMARK    9  A    between atoms: C_14  and  C_23
REMARK   10  A    between atoms: C_24  and  C_25
REMARK   11  A    between atoms: C_25  and  C_26
REMARK   12  A    between atoms: C_26  and  C_27
REMARK                            x       y       z     vdW  Elec       q    Type
REMARK                         _______ _______ _______ _____ _____    ______ ____
ROOT
ATOM      6  C   UNL     1      -2.589   0.667  24.953  0.00  0.00    +0.000 C 
ATOM      7  C   UNL     1      -1.763   0.539  26.254  0.00  0.00    +0.029 C 
ATOM      8  C   UNL     1      -1.728   0.309  23.732  0.00  0.00    +0.012 C 
ATOM      9  C   UNL     1      -1.111  -1.103  23.813  0.00  0.00    +0.024 C 
ATOM     12  C   UNL     1      -0.922  -0.712  26.285  0.00  0.00    -0.023 C 
ATOM     13  C   UNL     1      -0.630  -1.466  25.209  0.00  0.00    -0.073 C 
ATOM     22  C   UNL     1       0.147  -2.743  25.368  0.00  0.00    +0.039 C 
ENDROOT
BRANCH   6  10
ATOM     10  C   UNL     1      -3.858  -0.195  25.008  0.00  0.00    -0.013 C 
ATOM     17  C   UNL     1      -4.017  -0.991  23.717  0.00  0.00    +0.007 C 
ATOM     18  C   UNL     1      -5.084   0.679  25.259  0.00  0.00    +0.007 C 
ENDBRANCH   6  10
BRANCH   7  11
ATOM     11  C   UNL     1      -0.862   1.758  26.475  0.00  0.00    +0.092 C 
BRANCH  11   3
ATOM      3  N   UNL     1      -1.306   2.884  25.653  0.00  0.00    -0.302 NA
ATOM     15  C   UNL     1      -2.385   3.618  26.330  0.00  0.00    +0.087 C 
ATOM     16  C   UNL     1      -0.175   3.769  25.339  0.00  0.00    +0.087 C 
ATOM     19  C   UNL     1      -2.894   4.769  25.462  0.00  0.00    +0.046 C 
ATOM     20  C   UNL     1      -0.614   4.924  24.440  0.00  0.00    +0.046 C 
ATOM     21  C   UNL     1      -1.761   5.712  25.069  0.00  0.00    +0.117 C 
BRANCH  21   1
ATOM      1  O   UNL     1      -2.230   6.673  24.132  0.00  0.00    -0.392 OA
ATOM     28  H   UNL     1      -2.198   6.263  23.251  0.00  0.00    +0.210 HD
ENDBRANCH  21   1
ENDBRANCH  11   3
ENDBRANCH   7  11
BRANCH   9  14
ATOM     14  C   UNL     1      -0.008  -1.216  22.753  0.00  0.00    +0.105 C 
BRANCH  14  23
ATOM      2  O   UNL     1       2.301  -0.470  22.494  0.00  0.00    -0.425 OA
ATOM      4  N   UNL     1       0.973   1.006  23.524  0.00  0.00    -0.112 NA
ATOM      5  N   UNL     1       2.239   1.554  23.444  0.00  0.00    -0.112 NA
ATOM     23  C   UNL     1       1.055  -0.175  22.956  0.00  0.00    +0.218 A 
ATOM     24  C   UNL     1       2.981   0.659  22.837  0.00  0.00    +0.217 A 
BRANCH  24  25
ATOM     25  C   UNL     1       4.405   0.708  22.482  0.00  0.00    +0.097 C 
BRANCH  25  26
ATOM     26  C   UNL     1       5.337   0.492  23.693  0.00  0.00    +0.006 C 
ATOM     27  C   UNL     1       5.349  -0.950  24.177  0.00  0.00    +0.004 C 
ENDBRANCH  25  26
ENDBRANCH  24  25
ENDBRANCH  14  23
ENDBRANCH   9  14
TORSDOF 8
ENDMDL
MODEL 8
REMARK VINA RESULT:      -1.8      2.790      5.200
REMARK  Name = 45783998
REMARK  12 active torsions:
REMARK  status: ('A' for Active; 'I' for Inactive)
REMARK    1  A    between atoms: O_1  and  C_21
REMARK    2  A    between atoms: N_3  and  C_11
REMARK    3  A    between atoms: C_6  and  C_10
REMARK    4  A    between atoms: C_7  and  C_11
REMARK    5  A    between atoms: C_9  and  C_14
REMARK    6  A    between atoms: C_10  and  C_17
REMARK    7  A    between atoms: C_10  and  C_18
REMARK    8  A    between atoms: C_13  and  C_22
REMARK    9  A    between atoms: C_14  and  C_23
REMARK   10  A    between atoms: C_24  and  C_25
REMARK   11  A    between atoms: C_25  and  C_26
REMARK   12  A    between atoms: C_26  and  C_27
REMARK                            x       y       z     vdW  Elec       q    Type
REMARK                         _______ _______ _______ _____ _____    ______ ____
ROOT
ATOM      6  C   UNL     1      -1.339   2.558  24.861  0.00  0.00    +0.000 C 
ATOM      7  C   UNL     1      -1.654   2.441  23.352  0.00  0.00    +0.029 C 
ATOM      8  C   UNL     1      -1.033   1.175  25.456  0.00  0.00    +0.012 C 
ATOM      9  C   UNL     1       0.126   0.447  24.744  0.00  0.00    +0.024 C 
ATOM     12  C   UNL     1      -0.700   1.522  22.631  0.00  0.00    -0.023 C 
ATOM     13  C   UNL     1       0.112   0.634  23.234  0.00  0.00    -0.073 C 
ATOM     22  C   UNL     1       1.087  -0.173  22.424  0.00  0.00    +0.039 C 
ENDROOT
BRANCH   6  10
ATOM     10  C   UNL     1      -0.187   3.539  25.118  0.00  0.00    -0.013 C 
ATOM     17  C   UNL     1       0.442   3.275  26.482  0.00  0.00    +0.007 C 
ATOM     18  C   UNL     1      -0.683   4.979  25.021  0.00  0.00    +0.007 C 
ENDBRANCH   6  10
BRANCH   7  11
ATOM     11  C   UNL     1      -3.091   1.967  23.108  0.00  0.00    +0.092 C 
BRANCH  11   3
ATOM      3  N   UNL     1      -3.867   2.015  24.347  0.00  0.00    -0.302 NA
ATOM     15  C   UNL     1      -4.682   3.238  24.395  0.00  0.00    +0.087 C 
ATOM     16  C   UNL     1      -4.702   0.812  24.477  0.00  0.00    +0.087 C 
ATOM     19  C   UNL     1      -5.463   3.326  25.706  0.00  0.00    +0.046 C 
ATOM     20  C   UNL     1      -5.482   0.824  25.791  0.00  0.00    +0.046 C 
ATOM     21  C   UNL     1      -6.328   2.088  25.922  0.00  0.00    +0.117 C 
BRANCH  21   1
ATOM      1  O   UNL     1      -6.910   2.122  27.219  0.00  0.00    -0.392 OA
ATOM     28  H   UNL     1      -6.193   2.010  27.865  0.00  0.00    +0.210 HD
ENDBRANCH  21   1
ENDBRANCH  11   3
ENDBRANCH   7  11
BRANCH   9  14
ATOM     14  C   UNL     1       0.107  -1.028  25.162  0.00  0.00    +0.105 C 
BRANCH  14  23
ATOM      2  O   UNL     1      -1.843  -2.391  24.618  0.00  0.00    -0.425 OA
ATOM      4  N   UNL     1      -2.076  -1.159  26.470  0.00  0.00    -0.112 NA
ATOM      5  N   UNL     1      -3.243  -1.875  26.284  0.00  0.00    -0.112 NA
ATOM     23  C   UNL     1      -1.287  -1.492  25.475  0.00  0.00    +0.218 A 
ATOM     24  C   UNL     1      -3.063  -2.579  25.191  0.00  0.00    +0.217 A 
BRANCH  24  25
ATOM     25  C   UNL     1      -3.971  -3.519  24.524  0.00  0.00    +0.097 C 
BRANCH  25  26
ATOM     26  C   UNL     1      -4.739  -2.885  23.345  0.00  0.00    +0.006 C 
ATOM     27  C   UNL     1      -4.302  -1.457  23.059  0.00  0.00    +0.004 C 
ENDBRANCH  25  26
ENDBRANCH  24  25
ENDBRANCH  14  23
ENDBRANCH   9  14
TORSDOF 8
ENDMDL
MODEL 9
REMARK VINA RESULT:      -1.5      2.501      6.296
REMARK  Name = 45783998
REMARK  12 active torsions:
REMARK  status: ('A' for Active; 'I' for Inactive)
REMARK    1  A    between atoms: O_1  and  C_21
REMARK    2  A    between atoms: N_3  and  C_11
REMARK    3  A    between atoms: C_6  and  C_10
REMARK    4  A    between atoms: C_7  and  C_11
REMARK    5  A    between atoms: C_9  and  C_14
REMARK    6  A    between atoms: C_10  and  C_17
REMARK    7  A    between atoms: C_10  and  C_18
REMARK    8  A    between atoms: C_13  and  C_22
REMARK    9  A    between atoms: C_14  and  C_23
REMARK   10  A    between atoms: C_24  and  C_25
REMARK   11  A    between atoms: C_25  and  C_26
REMARK   12  A    between atoms: C_26  and  C_27
REMARK                            x       y       z     vdW  Elec       q    Type
REMARK                         _______ _______ _______ _____ _____    ______ ____
ROOT
ATOM      6  C   UNL     1      -2.946  -0.712  24.866  0.00  0.00    +0.000 C 
ATOM      7  C   UNL     1      -1.806   0.022  24.123  0.00  0.00    +0.029 C 
ATOM      8  C   UNL     1      -3.981   0.294  25.390  0.00  0.00    +0.012 C 
ATOM      9  C   UNL     1      -4.581   1.186  24.282  0.00  0.00    +0.024 C 
ATOM     12  C   UNL     1      -2.316   1.102  23.203  0.00  0.00    -0.023 C 
ATOM     13  C   UNL     1      -3.554   1.626  23.249  0.00  0.00    -0.073 C 
ATOM     22  C   UNL     1      -3.988   2.640  22.227  0.00  0.00    +0.039 C 
ENDROOT
BRANCH   6  10
ATOM     10  C   UNL     1      -3.604  -1.772  23.974  0.00  0.00    -0.013 C 
ATOM     17  C   UNL     1      -5.113  -1.557  23.917  0.00  0.00    +0.007 C 
ATOM     18  C   UNL     1      -3.277  -3.173  24.482  0.00  0.00    +0.007 C 
ENDBRANCH   6  10
BRANCH   7  11
ATOM     11  C   UNL     1      -0.791   0.629  25.098  0.00  0.00    +0.092 C 
BRANCH  11   3
ATOM      3  N   UNL     1       0.567   0.511  24.568  0.00  0.00    -0.302 NA
ATOM     15  C   UNL     1       0.683  -0.676  23.709  0.00  0.00    +0.087 C 
ATOM     16  C   UNL     1       0.944   1.733  23.843  0.00  0.00    +0.087 C 
ATOM     19  C   UNL     1       2.110  -0.840  23.187  0.00  0.00    +0.046 C 
ATOM     20  C   UNL     1       2.379   1.645  23.326  0.00  0.00    +0.046 C 
ATOM     21  C   UNL     1       2.579   0.412  22.451  0.00  0.00    +0.117 C 
BRANCH  21   1
ATOM      1  O   UNL     1       3.958   0.295  22.123  0.00  0.00    -0.392 OA
ATOM     28  H   UNL     1       4.334  -0.403  22.685  0.00  0.00    +0.210 HD
ENDBRANCH  21   1
ENDBRANCH  11   3
ENDBRANCH   7  11
BRANCH   9  14
ATOM     14  C   UNL     1      -5.306   2.365  24.943  0.00  0.00    +0.105 C 
BRANCH  14  23
ATOM      2  O   UNL     1      -3.525   4.021  24.747  0.00  0.00    -0.425 OA
ATOM      4  N   UNL     1      -4.141   3.585  26.852  0.00  0.00    -0.112 NA
ATOM      5  N   UNL     1      -3.135   4.532  26.889  0.00  0.00    -0.112 NA
ATOM     23  C   UNL     1      -4.336   3.317  25.582  0.00  0.00    +0.218 A 
ATOM     24  C   UNL     1      -2.806   4.756  25.638  0.00  0.00    +0.217 A 
BRANCH  24  25
ATOM     25  C   UNL     1      -1.798   5.669  25.085  0.00  0.00    +0.097 C 
BRANCH  25  26
ATOM     26  C   UNL     1      -0.450   4.977  24.793  0.00  0.00    +0.006 C 
ATOM     27  C   UNL     1      -0.268   3.689  25.580  0.00  0.00    +0.004 C 
ENDBRANCH  25  26
ENDBRANCH  24  25
ENDBRANCH  14  23
ENDBRANCH   9  14
TORSDOF 8
ENDMDL
MODEL 10
REMARK VINA RESULT:      -1.2      2.496      5.936
REMARK  Name = 45783998
REMARK  12 active torsions:
REMARK  status: ('A' for Active; 'I' for Inactive)
REMARK    1  A    between atoms: O_1  and  C_21
REMARK    2  A    between atoms: N_3  and  C_11
REMARK    3  A    between atoms: C_6  and  C_10
REMARK    4  A    between atoms: C_7  and  C_11
REMARK    5  A    between atoms: C_9  and  C_14
REMARK    6  A    between atoms: C_10  and  C_17
REMARK    7  A    between atoms: C_10  and  C_18
REMARK    8  A    between atoms: C_13  and  C_22
REMARK    9  A    between atoms: C_14  and  C_23
REMARK   10  A    between atoms: C_24  and  C_25
REMARK   11  A    between atoms: C_25  and  C_26
REMARK   12  A    between atoms: C_26  and  C_27
REMARK                            x       y       z     vdW  Elec       q    Type
REMARK                         _______ _______ _______ _____ _____    ______ ____
ROOT
ATOM      6  C   UNL     1      -0.085   0.453  23.511  0.00  0.00    +0.000 C 
ATOM      7  C   UNL     1       0.073   0.794  25.011  0.00  0.00    +0.029 C 
ATOM      8  C   UNL     1      -1.258   1.236  22.903  0.00  0.00    +0.012 C 
ATOM      9  C   UNL     1      -1.125   2.765  23.071  0.00  0.00    +0.024 C 
ATOM     12  C   UNL     1      -0.049   2.272  25.285  0.00  0.00    -0.023 C 
ATOM     13  C   UNL     1      -0.569   3.170  24.428  0.00  0.00    -0.073 C 
ATOM     22  C   UNL     1      -0.563   4.634  24.768  0.00  0.00    +0.039 C 
ENDROOT
BRANCH   6  10
ATOM     10  C   UNL     1       1.215   0.712  22.738  0.00  0.00    -0.013 C 
ATOM     17  C   UNL     1       1.402  -0.335  21.646  0.00  0.00    +0.007 C 
ATOM     18  C   UNL     1       2.408   0.719  23.690  0.00  0.00    +0.007 C 
ENDBRANCH   6  10
BRANCH   7  11
ATOM     11  C   UNL     1      -0.940   0.037  25.875  0.00  0.00    +0.092 C 
BRANCH  11   3
ATOM      3  N   UNL     1      -1.845  -0.751  25.037  0.00  0.00    -0.302 NA
ATOM     15  C   UNL     1      -1.501  -2.178  25.109  0.00  0.00    +0.087 C 
ATOM     16  C   UNL     1      -3.242  -0.519  25.431  0.00  0.00    +0.087 C 
ATOM     19  C   UNL     1      -2.407  -3.008  24.200  0.00  0.00    +0.046 C 
ATOM     20  C   UNL     1      -4.203  -1.297  24.533  0.00  0.00    +0.046 C 
ATOM     21  C   UNL     1      -3.879  -2.788  24.534  0.00  0.00    +0.117 C 
BRANCH  21   1
ATOM      1  O   UNL     1      -4.698  -3.440  23.572  0.00  0.00    -0.392 OA
ATOM     28  H   UNL     1      -5.624  -3.303  23.834  0.00  0.00    +0.210 HD
ENDBRANCH  21   1
ENDBRANCH  11   3
ENDBRANCH   7  11
BRANCH   9  14
ATOM     14  C   UNL     1      -2.482   3.410  22.766  0.00  0.00    +0.105 C 
BRANCH  14  23
ATOM      2  O   UNL     1      -4.405   2.385  23.865  0.00  0.00    -0.425 OA
ATOM      4  N   UNL     1      -3.421   3.999  25.061  0.00  0.00    -0.112 NA
ATOM      5  N   UNL     1      -4.483   3.509  25.797  0.00  0.00    -0.112 NA
ATOM     23  C   UNL     1      -3.412   3.313  23.941  0.00  0.00    +0.218 A 
ATOM     24  C   UNL     1      -5.029   2.570  25.060  0.00  0.00    +0.217 A 
BRANCH  24  25
ATOM     25  C   UNL     1      -6.187   1.713  25.344  0.00  0.00    +0.097 C 
BRANCH  25  26
ATOM     26  C   UNL     1      -6.907   2.085  26.657  0.00  0.00    +0.006 C 
ATOM     27  C   UNL     1      -6.814   0.990  27.709  0.00  0.00    +0.004 C 
ENDBRANCH  25  26
ENDBRANCH  24  25
ENDBRANCH  14  23
ENDBRANCH   9  14
TORSDOF 8
ENDMDL
