MODEL 1
REMARK VINA RESULT:       2.1      0.000      0.000
REMARK  Name = 28959952
REMARK  8 active torsions:
REMARK  status: ('A' for Active; 'I' for Inactive)
REMARK    1  A    between atoms: O_2  and  C_22
REMARK    2  A    between atoms: N_7  and  C_15
REMARK    3  A    between atoms: N_8  and  C_24
REMARK    4  A    between atoms: C_9  and  C_12
REMARK    5  A    between atoms: C_10  and  C_16
REMARK    6  A    between atoms: C_12  and  C_15
REMARK    7  A    between atoms: C_16  and  C_22
REMARK    8  A    between atoms: C_21  and  C_23
REMARK                            x       y       z     vdW  Elec       q    Type
REMARK                         _______ _______ _______ _____ _____    ______ ____
ROOT
ATOM      3  O   UNL     1      -5.665   4.237  25.387  0.00  0.00    -0.267 OA
ATOM      6  N   UNL     1      -4.492   2.225  25.615  0.00  0.00    -0.295 N 
ATOM      9  C   UNL     1      -3.292   0.308  24.587  0.00  0.00    +0.011 C 
ATOM     10  C   UNL     1      -4.543  -0.568  24.853  0.00  0.00    +0.006 C 
ATOM     11  C   UNL     1      -3.235   1.464  25.603  0.00  0.00    +0.112 C 
ATOM     13  C   UNL     1      -5.825   0.279  24.905  0.00  0.00    +0.023 C 
ATOM     14  C   UNL     1      -5.687   1.431  25.896  0.00  0.00    +0.108 C 
ATOM     21  C   UNL     1      -4.614   3.597  25.382  0.00  0.00    +0.282 C 
ENDROOT
BRANCH  21  23
ATOM      5  O   UNL     1      -3.343   5.084  23.954  0.00  0.00    -0.458 OA
ATOM     23  C   UNL     1      -3.393   4.361  25.104  0.00  0.00    +0.189 A 
ATOM     25  C   UNL     1      -2.223   4.502  25.814  0.00  0.00    +0.054 A 
ATOM     28  C   UNL     1      -1.403   5.367  25.052  0.00  0.00    +0.042 A 
ATOM     31  C   UNL     1      -2.129   5.693  23.930  0.00  0.00    +0.196 A 
ENDBRANCH  21  23
BRANCH   9  12
ATOM     12  C   UNL     1      -3.205   0.852  23.155  0.00  0.00    +0.020 C 
BRANCH  12  15
ATOM     15  C   UNL     1      -2.083   1.871  23.029  0.00  0.00    +0.085 C 
BRANCH  15   7
ATOM      7  N   UNL     1      -0.823   1.281  23.484  0.00  0.00    -0.299 NA
ATOM      8  N   UNL     1       1.956   0.637  23.341  0.00  0.00    -0.327 N 
ATOM     17  C   UNL     1       0.192   2.323  23.680  0.00  0.00    +0.103 C 
ATOM     18  C   UNL     1      -0.341   0.288  22.516  0.00  0.00    +0.103 C 
ATOM     19  C   UNL     1       1.499   1.726  24.209  0.00  0.00    +0.120 C 
ATOM     20  C   UNL     1       0.947  -0.377  23.009  0.00  0.00    +0.120 C 
BRANCH   8  24
ATOM      1  F   UNL     1       7.261  -0.916  23.454  0.00  0.00    -0.205 F 
ATOM     24  C   UNL     1       3.298   0.244  23.370  0.00  0.00    +0.030 A 
ATOM     26  C   UNL     1       3.635  -1.064  23.720  0.00  0.00    +0.026 A 
ATOM     27  C   UNL     1       4.300   1.159  23.048  0.00  0.00    +0.026 A 
ATOM     29  C   UNL     1       4.973  -1.456  23.748  0.00  0.00    +0.040 A 
ATOM     30  C   UNL     1       5.639   0.768  23.077  0.00  0.00    +0.040 A 
ATOM     32  C   UNL     1       5.975  -0.540  23.427  0.00  0.00    +0.124 A 
ENDBRANCH   8  24
ENDBRANCH  15   7
ENDBRANCH  12  15
ENDBRANCH   9  12
BRANCH  10  16
ATOM     16  C   UNL     1      -4.695  -1.717  23.857  0.00  0.00    +0.124 C 
BRANCH  16  22
ATOM      4  O   UNL     1      -3.266  -3.630  23.370  0.00  0.00    -0.251 OA
ATOM     22  C   UNL     1      -3.759  -2.850  24.171  0.00  0.00    +0.305 C 
BRANCH  22   2
ATOM      2  O   UNL     1      -3.525  -2.894  25.508  0.00  0.00    -0.481 OA
ATOM     33  H   UNL     1      -3.284  -3.797  25.807  0.00  0.00    +0.295 HD
ENDBRANCH  22   2
ENDBRANCH  16  22
ENDBRANCH  10  16
TORSDOF 8
ENDMDL
MODEL 2
REMARK VINA RESULT:       2.9      1.374      4.584
REMARK  Name = 28959952
REMARK  8 active torsions:
REMARK  status: ('A' for Active; 'I' for Inactive)
REMARK    1  A    between atoms: O_2  and  C_22
REMARK    2  A    between atoms: N_7  and  C_15
REMARK    3  A    between atoms: N_8  and  C_24
REMARK    4  A    between atoms: C_9  and  C_12
REMARK    5  A    between atoms: C_10  and  C_16
REMARK    6  A    between atoms: C_12  and  C_15
REMARK    7  A    between atoms: C_16  and  C_22
REMARK    8  A    between atoms: C_21  and  C_23
REMARK                            x       y       z     vdW  Elec       q    Type
REMARK                         _______ _______ _______ _____ _____    ______ ____
ROOT
ATOM      3  O   UNL     1      -5.758   0.445  26.732  0.00  0.00    -0.267 OA
ATOM      6  N   UNL     1      -5.123   1.733  24.885  0.00  0.00    -0.295 N 
ATOM      9  C   UNL     1      -3.370   2.957  23.618  0.00  0.00    +0.011 C 
ATOM     10  C   UNL     1      -3.973   4.285  24.145  0.00  0.00    +0.006 C 
ATOM     11  C   UNL     1      -4.457   1.867  23.582  0.00  0.00    +0.112 C 
ATOM     13  C   UNL     1      -4.699   4.084  25.485  0.00  0.00    +0.023 C 
ATOM     14  C   UNL     1      -5.729   2.962  25.393  0.00  0.00    +0.108 C 
ATOM     21  C   UNL     1      -5.206   0.560  25.639  0.00  0.00    +0.282 C 
ENDROOT
BRANCH  21  23
ATOM      5  O   UNL     1      -3.706  -1.325  25.886  0.00  0.00    -0.458 OA
ATOM     23  C   UNL     1      -4.586  -0.654  25.097  0.00  0.00    +0.189 A 
ATOM     25  C   UNL     1      -4.726  -1.286  23.883  0.00  0.00    +0.054 A 
ATOM     28  C   UNL     1      -3.878  -2.418  23.930  0.00  0.00    +0.042 A 
ATOM     31  C   UNL     1      -3.280  -2.397  25.169  0.00  0.00    +0.196 A 
ENDBRANCH  21  23
BRANCH   9  12
ATOM     12  C   UNL     1      -2.151   2.468  24.412  0.00  0.00    +0.020 C 
BRANCH  12  15
ATOM     15  C   UNL     1      -1.885   0.995  24.143  0.00  0.00    +0.085 C 
BRANCH  15   7
ATOM      7  N   UNL     1      -0.558   0.830  23.549  0.00  0.00    -0.299 NA
ATOM      8  N   UNL     1       2.229   0.206  23.525  0.00  0.00    -0.327 N 
ATOM     17  C   UNL     1      -0.107  -0.561  23.673  0.00  0.00    +0.103 C 
ATOM     18  C   UNL     1       0.409   1.729  24.192  0.00  0.00    +0.103 C 
ATOM     19  C   UNL     1       1.256  -0.760  23.005  0.00  0.00    +0.120 C 
ATOM     20  C   UNL     1       1.788   1.607  23.540  0.00  0.00    +0.120 C 
BRANCH   8  24
ATOM      1  F   UNL     1       7.640  -0.811  23.017  0.00  0.00    -0.205 F 
ATOM     24  C   UNL     1       3.598  -0.051  23.396  0.00  0.00    +0.030 A 
ATOM     26  C   UNL     1       4.436   0.902  22.816  0.00  0.00    +0.026 A 
ATOM     27  C   UNL     1       4.127  -1.261  23.848  0.00  0.00    +0.026 A 
ATOM     29  C   UNL     1       5.801   0.646  22.689  0.00  0.00    +0.040 A 
ATOM     30  C   UNL     1       5.491  -1.518  23.720  0.00  0.00    +0.040 A 
ATOM     32  C   UNL     1       6.328  -0.564  23.140  0.00  0.00    +0.124 A 
ENDBRANCH   8  24
ENDBRANCH  15   7
ENDBRANCH  12  15
ENDBRANCH   9  12
BRANCH  10  16
ATOM     16  C   UNL     1      -2.944   5.410  24.252  0.00  0.00    +0.124 C 
BRANCH  16  22
ATOM      4  O   UNL     1      -2.062   4.619  26.382  0.00  0.00    -0.251 OA
ATOM     22  C   UNL     1      -1.885   5.099  25.273  0.00  0.00    +0.305 C 
BRANCH  22   2
ATOM      2  O   UNL     1      -0.663   5.433  24.781  0.00  0.00    -0.481 OA
ATOM     33  H   UNL     1      -0.002   4.725  24.935  0.00  0.00    +0.295 HD
ENDBRANCH  22   2
ENDBRANCH  16  22
ENDBRANCH  10  16
TORSDOF 8
ENDMDL
MODEL 3
REMARK VINA RESULT:       4.3      1.337      1.695
REMARK  Name = 28959952
REMARK  8 active torsions:
REMARK  status: ('A' for Active; 'I' for Inactive)
REMARK    1  A    between atoms: O_2  and  C_22
REMARK    2  A    between atoms: N_7  and  C_15
REMARK    3  A    between atoms: N_8  and  C_24
REMARK    4  A    between atoms: C_9  and  C_12
REMARK    5  A    between atoms: C_10  and  C_16
REMARK    6  A    between atoms: C_12  and  C_15
REMARK    7  A    between atoms: C_16  and  C_22
REMARK    8  A    between atoms: C_21  and  C_23
REMARK                            x       y       z     vdW  Elec       q    Type
REMARK                         _______ _______ _______ _____ _____    ______ ____
ROOT
ATOM      3  O   UNL     1      -4.030   3.206  22.525  0.00  0.00    -0.267 OA
ATOM      6  N   UNL     1      -4.183   1.970  24.505  0.00  0.00    -0.295 N 
ATOM      9  C   UNL     1      -3.209   0.327  26.095  0.00  0.00    +0.011 C 
ATOM     10  C   UNL     1      -4.189  -0.737  25.535  0.00  0.00    +0.006 C 
ATOM     11  C   UNL     1      -3.801   1.736  25.905  0.00  0.00    +0.112 C 
ATOM     13  C   UNL     1      -4.596  -0.422  24.086  0.00  0.00    +0.023 C 
ATOM     14  C   UNL     1      -5.131   1.001  23.958  0.00  0.00    +0.108 C 
ATOM     21  C   UNL     1      -3.716   3.010  23.698  0.00  0.00    +0.282 C 
ENDROOT
BRANCH  21  23
ATOM      5  O   UNL     1      -1.443   3.773  24.033  0.00  0.00    -0.458 OA
ATOM     23  C   UNL     1      -2.766   3.963  24.281  0.00  0.00    +0.189 A 
ATOM     25  C   UNL     1      -2.956   5.073  25.070  0.00  0.00    +0.054 A 
ATOM     28  C   UNL     1      -1.666   5.599  25.325  0.00  0.00    +0.042 A 
ATOM     31  C   UNL     1      -0.781   4.773  24.671  0.00  0.00    +0.196 A 
ENDBRANCH  21  23
BRANCH   9  12
ATOM     12  C   UNL     1      -1.800   0.255  25.493  0.00  0.00    +0.020 C 
BRANCH  12  15
ATOM     15  C   UNL     1      -1.838   0.507  23.993  0.00  0.00    +0.085 C 
BRANCH  15   7
ATOM      7  N   UNL     1      -0.475   0.567  23.465  0.00  0.00    -0.299 NA
ATOM      8  N   UNL     1       2.340   0.082  23.451  0.00  0.00    -0.327 N 
ATOM     17  C   UNL     1       0.045  -0.784  23.224  0.00  0.00    +0.103 C 
ATOM     18  C   UNL     1       0.406   1.284  24.396  0.00  0.00    +0.103 C 
ATOM     19  C   UNL     1       1.450  -0.734  22.619  0.00  0.00    +0.120 C 
ATOM     20  C   UNL     1       1.822   1.403  23.828  0.00  0.00    +0.120 C 
BRANCH   8  24
ATOM      1  F   UNL     1       7.817  -0.544  23.030  0.00  0.00    -0.205 F 
ATOM     24  C   UNL     1       3.726  -0.077  23.345  0.00  0.00    +0.030 A 
ATOM     26  C   UNL     1       4.334  -1.239  23.818  0.00  0.00    +0.026 A 
ATOM     27  C   UNL     1       4.501   0.928  22.764  0.00  0.00    +0.026 A 
ATOM     29  C   UNL     1       5.715  -1.398  23.712  0.00  0.00    +0.040 A 
ATOM     30  C   UNL     1       5.883   0.771  22.659  0.00  0.00    +0.040 A 
ATOM     32  C   UNL     1       6.489  -0.393  23.132  0.00  0.00    +0.124 A 
ENDBRANCH   8  24
ENDBRANCH  15   7
ENDBRANCH  12  15
ENDBRANCH   9  12
BRANCH  10  16
ATOM     16  C   UNL     1      -3.654  -2.164  25.648  0.00  0.00    +0.124 C 
BRANCH  16  22
ATOM      4  O   UNL     1      -4.434  -3.156  23.562  0.00  0.00    -0.251 OA
ATOM     22  C   UNL     1      -3.521  -2.815  24.299  0.00  0.00    +0.305 C 
BRANCH  22   2
ATOM      2  O   UNL     1      -2.207  -2.980  23.998  0.00  0.00    -0.481 OA
ATOM     33  H   UNL     1      -1.663  -2.229  24.318  0.00  0.00    +0.295 HD
ENDBRANCH  22   2
ENDBRANCH  16  22
ENDBRANCH  10  16
TORSDOF 8
ENDMDL
MODEL 4
REMARK VINA RESULT:       4.5      1.389      4.786
REMARK  Name = 28959952
REMARK  8 active torsions:
REMARK  status: ('A' for Active; 'I' for Inactive)
REMARK    1  A    between atoms: O_2  and  C_22
REMARK    2  A    between atoms: N_7  and  C_15
REMARK    3  A    between atoms: N_8  and  C_24
REMARK    4  A    between atoms: C_9  and  C_12
REMARK    5  A    between atoms: C_10  and  C_16
REMARK    6  A    between atoms: C_12  and  C_15
REMARK    7  A    between atoms: C_16  and  C_22
REMARK    8  A    between atoms: C_21  and  C_23
REMARK                            x       y       z     vdW  Elec       q    Type
REMARK                         _______ _______ _______ _____ _____    ______ ____
ROOT
ATOM      3  O   UNL     1      -1.709  -0.638  26.415  0.00  0.00    -0.267 OA
ATOM      6  N   UNL     1      -3.173   1.025  25.664  0.00  0.00    -0.295 N 
ATOM      9  C   UNL     1      -3.875   2.640  23.911  0.00  0.00    +0.011 C 
ATOM     10  C   UNL     1      -3.266   3.778  24.771  0.00  0.00    +0.006 C 
ATOM     11  C   UNL     1      -4.289   1.465  24.814  0.00  0.00    +0.112 C 
ATOM     13  C   UNL     1      -2.137   3.260  25.677  0.00  0.00    +0.023 C 
ATOM     14  C   UNL     1      -2.599   2.069  26.511  0.00  0.00    +0.108 C 
ATOM     21  C   UNL     1      -2.646  -0.268  25.709  0.00  0.00    +0.282 C 
ENDROOT
BRANCH  21  23
ATOM      5  O   UNL     1      -2.567  -2.451  24.665  0.00  0.00    -0.458 OA
ATOM     23  C   UNL     1      -3.248  -1.289  24.845  0.00  0.00    +0.189 A 
ATOM     25  C   UNL     1      -4.430  -1.308  24.143  0.00  0.00    +0.054 A 
ATOM     28  C   UNL     1      -4.479  -2.563  23.489  0.00  0.00    +0.042 A 
ATOM     31  C   UNL     1      -3.323  -3.221  23.839  0.00  0.00    +0.196 A 
ENDBRANCH  21  23
BRANCH   9  12
ATOM     12  C   UNL     1      -2.954   2.149  22.786  0.00  0.00    +0.020 C 
BRANCH  12  15
ATOM     15  C   UNL     1      -2.302   0.826  23.158  0.00  0.00    +0.085 C 
BRANCH  15   7
ATOM      7  N   UNL     1      -0.871   0.876  22.859  0.00  0.00    -0.299 NA
ATOM      8  N   UNL     1       1.893   0.252  23.223  0.00  0.00    -0.327 N 
ATOM     17  C   UNL     1      -0.363  -0.464  22.540  0.00  0.00    +0.103 C 
ATOM     18  C   UNL     1      -0.127   1.436  23.995  0.00  0.00    +0.103 C 
ATOM     19  C   UNL     1       1.122  -0.417  22.171  0.00  0.00    +0.120 C 
ATOM     20  C   UNL     1       1.365   1.547  23.672  0.00  0.00    +0.120 C 
BRANCH   8  24
ATOM      1  F   UNL     1       7.343  -0.602  23.585  0.00  0.00    -0.205 F 
ATOM     24  C   UNL     1       3.272   0.036  23.315  0.00  0.00    +0.030 A 
ATOM     26  C   UNL     1       3.758  -1.204  23.731  0.00  0.00    +0.026 A 
ATOM     27  C   UNL     1       4.162   1.060  22.990  0.00  0.00    +0.026 A 
ATOM     29  C   UNL     1       5.133  -1.420  23.822  0.00  0.00    +0.040 A 
ATOM     30  C   UNL     1       5.537   0.845  23.082  0.00  0.00    +0.040 A 
ATOM     32  C   UNL     1       6.022  -0.395  23.497  0.00  0.00    +0.124 A 
ENDBRANCH   8  24
ENDBRANCH  15   7
ENDBRANCH  12  15
ENDBRANCH   9  12
BRANCH  10  16
ATOM     16  C   UNL     1      -2.789   4.969  23.941  0.00  0.00    +0.124 C 
BRANCH  16  22
ATOM      4  O   UNL     1      -0.359   4.883  23.765  0.00  0.00    -0.251 OA
ATOM     22  C   UNL     1      -1.371   5.343  24.272  0.00  0.00    +0.305 C 
BRANCH  22   2
ATOM      2  O   UNL     1      -1.364   6.294  25.242  0.00  0.00    -0.481 OA
ATOM     33  H   UNL     1      -2.212   6.785  25.278  0.00  0.00    +0.295 HD
ENDBRANCH  22   2
ENDBRANCH  16  22
ENDBRANCH  10  16
TORSDOF 8
ENDMDL
MODEL 5
REMARK VINA RESULT:       5.2      1.645      4.525
REMARK  Name = 28959952
REMARK  8 active torsions:
REMARK  status: ('A' for Active; 'I' for Inactive)
REMARK    1  A    between atoms: O_2  and  C_22
REMARK    2  A    between atoms: N_7  and  C_15
REMARK    3  A    between atoms: N_8  and  C_24
REMARK    4  A    between atoms: C_9  and  C_12
REMARK    5  A    between atoms: C_10  and  C_16
REMARK    6  A    between atoms: C_12  and  C_15
REMARK    7  A    between atoms: C_16  and  C_22
REMARK    8  A    between atoms: C_21  and  C_23
REMARK                            x       y       z     vdW  Elec       q    Type
REMARK                         _______ _______ _______ _____ _____    ______ ____
ROOT
ATOM      3  O   UNL     1      -3.977  -1.685  26.894  0.00  0.00    -0.267 OA
ATOM      6  N   UNL     1      -4.299  -0.323  25.020  0.00  0.00    -0.295 N 
ATOM      9  C   UNL     1      -3.768   1.744  23.747  0.00  0.00    +0.011 C 
ATOM     10  C   UNL     1      -5.120   2.336  24.220  0.00  0.00    +0.006 C 
ATOM     11  C   UNL     1      -3.847   0.207  23.725  0.00  0.00    +0.112 C 
ATOM     13  C   UNL     1      -5.574   1.716  25.552  0.00  0.00    +0.023 C 
ATOM     14  C   UNL     1      -5.588   0.193  25.477  0.00  0.00    +0.108 C 
ATOM     21  C   UNL     1      -3.605  -1.243  25.808  0.00  0.00    +0.282 C 
ENDROOT
BRANCH  21  23
ATOM      5  O   UNL     1      -1.187  -1.298  25.936  0.00  0.00    -0.458 OA
ATOM     23  C   UNL     1      -2.314  -1.739  25.317  0.00  0.00    +0.189 A 
ATOM     25  C   UNL     1      -1.999  -2.609  24.300  0.00  0.00    +0.054 A 
ATOM     28  C   UNL     1      -0.587  -2.710  24.293  0.00  0.00    +0.042 A 
ATOM     31  C   UNL     1      -0.141  -1.895  25.307  0.00  0.00    +0.196 A 
ENDBRANCH  21  23
BRANCH   9  12
ATOM     12  C   UNL     1      -2.562   2.203  24.578  0.00  0.00    +0.020 C 
BRANCH  12  15
ATOM     15  C   UNL     1      -1.709   3.191  23.797  0.00  0.00    +0.085 C 
BRANCH  15   7
ATOM      7  N   UNL     1      -0.503   2.526  23.305  0.00  0.00    -0.299 NA
ATOM      8  N   UNL     1       1.905   1.003  23.516  0.00  0.00    -0.327 N 
ATOM     17  C   UNL     1      -0.556   1.087  23.590  0.00  0.00    +0.103 C 
ATOM     18  C   UNL     1       0.695   3.113  23.919  0.00  0.00    +0.103 C 
ATOM     19  C   UNL     1       0.675   0.369  23.031  0.00  0.00    +0.120 C 
ATOM     20  C   UNL     1       1.967   2.463  23.369  0.00  0.00    +0.120 C 
BRANCH   8  24
ATOM      1  F   UNL     1       6.656  -1.823  23.448  0.00  0.00    -0.205 F 
ATOM     24  C   UNL     1       3.107   0.288  23.498  0.00  0.00    +0.030 A 
ATOM     26  C   UNL     1       4.307   0.947  23.230  0.00  0.00    +0.026 A 
ATOM     27  C   UNL     1       3.107  -1.084  23.750  0.00  0.00    +0.026 A 
ATOM     29  C   UNL     1       5.506   0.234  23.213  0.00  0.00    +0.040 A 
ATOM     30  C   UNL     1       4.305  -1.797  23.732  0.00  0.00    +0.040 A 
ATOM     32  C   UNL     1       5.504  -1.138  23.464  0.00  0.00    +0.124 A 
ENDBRANCH   8  24
ENDBRANCH  15   7
ENDBRANCH  12  15
ENDBRANCH   9  12
BRANCH  10  16
ATOM     16  C   UNL     1      -5.110   3.861  24.310  0.00  0.00    +0.124 C 
BRANCH  16  22
ATOM      4  O   UNL     1      -4.357   4.302  26.587  0.00  0.00    -0.251 OA
ATOM     22  C   UNL     1      -5.230   4.334  25.733  0.00  0.00    +0.305 C 
BRANCH  22   2
ATOM      2  O   UNL     1      -6.481   4.818  25.950  0.00  0.00    -0.481 OA
ATOM     33  H   UNL     1      -6.743   5.471  25.267  0.00  0.00    +0.295 HD
ENDBRANCH  22   2
ENDBRANCH  16  22
ENDBRANCH  10  16
TORSDOF 8
ENDMDL
MODEL 6
REMARK VINA RESULT:       5.5      1.555      4.870
REMARK  Name = 28959952
REMARK  8 active torsions:
REMARK  status: ('A' for Active; 'I' for Inactive)
REMARK    1  A    between atoms: O_2  and  C_22
REMARK    2  A    between atoms: N_7  and  C_15
REMARK    3  A    between atoms: N_8  and  C_24
REMARK    4  A    between atoms: C_9  and  C_12
REMARK    5  A    between atoms: C_10  and  C_16
REMARK    6  A    between atoms: C_12  and  C_15
REMARK    7  A    between atoms: C_16  and  C_22
REMARK    8  A    between atoms: C_21  and  C_23
REMARK                            x       y       z     vdW  Elec       q    Type
REMARK                         _______ _______ _______ _____ _____    ______ ____
ROOT
ATOM      3  O   UNL     1      -0.495  -1.212  25.595  0.00  0.00    -0.267 OA
ATOM      6  N   UNL     1      -2.572  -0.153  25.800  0.00  0.00    -0.295 N 
ATOM      9  C   UNL     1      -4.410   1.186  24.800  0.00  0.00    +0.011 C 
ATOM     10  C   UNL     1      -3.876   2.422  25.569  0.00  0.00    +0.006 C 
ATOM     11  C   UNL     1      -4.018  -0.104  25.543  0.00  0.00    +0.112 C 
ATOM     13  C   UNL     1      -2.370   2.301  25.856  0.00  0.00    +0.023 C 
ATOM     14  C   UNL     1      -2.043   0.983  26.552  0.00  0.00    +0.108 C 
ATOM     21  C   UNL     1      -1.707  -1.169  25.387  0.00  0.00    +0.282 C 
ENDROOT
BRANCH  21  23
ATOM      5  O   UNL     1      -1.444  -2.989  23.810  0.00  0.00    -0.458 OA
ATOM     23  C   UNL     1      -2.273  -2.294  24.634  0.00  0.00    +0.189 A 
ATOM     25  C   UNL     1      -3.545  -2.817  24.594  0.00  0.00    +0.054 A 
ATOM     28  C   UNL     1      -3.494  -3.903  23.688  0.00  0.00    +0.042 A 
ATOM     31  C   UNL     1      -2.195  -3.966  23.239  0.00  0.00    +0.196 A 
ENDBRANCH  21  23
BRANCH   9  12
ATOM     12  C   UNL     1      -3.954   1.117  23.337  0.00  0.00    +0.020 C 
BRANCH  12  15
ATOM     15  C   UNL     1      -2.810   2.087  23.079  0.00  0.00    +0.085 C 
BRANCH  15   7
ATOM      7  N   UNL     1      -1.540   1.469  23.463  0.00  0.00    -0.299 NA
ATOM      8  N   UNL     1       1.246   0.881  23.240  0.00  0.00    -0.327 N 
ATOM     17  C   UNL     1      -0.537   2.498  23.764  0.00  0.00    +0.103 C 
ATOM     18  C   UNL     1      -1.051   0.591  22.393  0.00  0.00    +0.103 C 
ATOM     19  C   UNL     1       0.780   1.866  24.221  0.00  0.00    +0.120 C 
ATOM     20  C   UNL     1       0.248  -0.105  22.807  0.00  0.00    +0.120 C 
BRANCH   8  24
ATOM      1  F   UNL     1       6.572  -0.602  23.169  0.00  0.00    -0.205 F 
ATOM     24  C   UNL     1       2.594   0.506  23.222  0.00  0.00    +0.030 A 
ATOM     26  C   UNL     1       3.573   1.437  22.872  0.00  0.00    +0.026 A 
ATOM     27  C   UNL     1       2.960  -0.799  23.554  0.00  0.00    +0.026 A 
ATOM     29  C   UNL     1       4.916   1.063  22.855  0.00  0.00    +0.040 A 
ATOM     30  C   UNL     1       4.303  -1.173  23.535  0.00  0.00    +0.040 A 
ATOM     32  C   UNL     1       5.281  -0.242  23.186  0.00  0.00    +0.124 A 
ENDBRANCH   8  24
ENDBRANCH  15   7
ENDBRANCH  12  15
ENDBRANCH   9  12
BRANCH  10  16
ATOM     16  C   UNL     1      -4.188   3.745  24.871  0.00  0.00    +0.124 C 
BRANCH  16  22
ATOM      4  O   UNL     1      -5.895   5.462  25.155  0.00  0.00    -0.251 OA
ATOM     22  C   UNL     1      -5.497   4.321  25.334  0.00  0.00    +0.305 C 
BRANCH  22   2
ATOM      2  O   UNL     1      -6.204   3.371  26.001  0.00  0.00    -0.481 OA
ATOM     33  H   UNL     1      -5.637   2.619  26.274  0.00  0.00    +0.295 HD
ENDBRANCH  22   2
ENDBRANCH  16  22
ENDBRANCH  10  16
TORSDOF 8
ENDMDL
