MODEL 1
REMARK VINA RESULT:      -3.8      0.000      0.000
REMARK  Name = 75536644
REMARK  9 active torsions:
REMARK  status: ('A' for Active; 'I' for Inactive)
REMARK    1  A    between atoms: S_1  and  C_20
REMARK    2  A    between atoms: S_1  and  C_26
REMARK    3  A    between atoms: O_4  and  C_11
REMARK    4  A    between atoms: N_8  and  C_10
REMARK    5  A    between atoms: N_8  and  C_15
REMARK    6  A    between atoms: N_9  and  C_14
REMARK    7  A    between atoms: C_12  and  C_14
REMARK    8  A    between atoms: C_15  and  C_16
REMARK    9  A    between atoms: C_17  and  C_23
REMARK                            x       y       z     vdW  Elec       q    Type
REMARK                         _______ _______ _______ _____ _____    ______ ____
ROOT
ATOM      3  O   UNL     1      -0.248   4.405  24.702  0.00  0.00    -0.371 OA
ATOM     10  C   UNL     1      -2.556   4.543  25.205  0.00  0.00    +0.111 C 
ATOM     11  C   UNL     1      -2.013   3.281  25.852  0.00  0.00    +0.164 C 
ATOM     12  C   UNL     1      -0.592   3.144  25.306  0.00  0.00    +0.165 C 
ATOM     13  C   UNL     1      -1.288   5.350  24.979  0.00  0.00    +0.181 C 
ENDROOT
BRANCH  11   4
ATOM      4  O   UNL     1      -1.951   3.506  27.262  0.00  0.00    -0.388 OA
ATOM     31  H   UNL     1      -1.087   3.183  27.569  0.00  0.00    +0.210 HD
ENDBRANCH  11   4
BRANCH  10   8
ATOM      8  N   UNL     1      -3.219   4.256  23.936  0.00  0.00    -0.305 NA
ATOM     30  H   UNL     1      -3.453   5.134  23.472  0.00  0.00    +0.123 HD
BRANCH   8  15
ATOM     15  C   UNL     1      -4.450   3.501  24.145  0.00  0.00    +0.116 C 
BRANCH  15  16
ATOM     16  C   UNL     1      -4.190   2.022  24.250  0.00  0.00    -0.033 A 
ATOM     18  C   UNL     1      -3.452   1.371  23.261  0.00  0.00    +0.007 A 
ATOM     19  C   UNL     1      -4.687   1.302  25.336  0.00  0.00    +0.007 A 
ATOM     20  C   UNL     1      -3.708  -0.719  24.444  0.00  0.00    +0.088 A 
ATOM     21  C   UNL     1      -3.210   0.001  23.358  0.00  0.00    +0.027 A 
ATOM     22  C   UNL     1      -4.445  -0.069  25.434  0.00  0.00    +0.027 A 
BRANCH  20   1
ATOM      1  S   UNL     1      -3.403  -2.434  24.567  0.00  0.00    -0.006 S 
ATOM      6  O   UNL     1      -3.487  -2.830  25.966  0.00  0.00    -0.170 OA
ATOM      7  O   UNL     1      -4.229  -3.107  23.574  0.00  0.00    -0.170 OA
ATOM     26  C   UNL     1      -1.703  -2.618  24.079  0.00  0.00    +0.200 C 
ENDBRANCH  20   1
ENDBRANCH  15  16
ENDBRANCH   8  15
ENDBRANCH  10   8
BRANCH  12  14
ATOM     14  C   UNL     1      -0.446   2.054  24.255  0.00  0.00    +0.138 C 
BRANCH  14   9
ATOM      5  O   UNL     1       0.527  -0.217  22.794  0.00  0.00    -0.270 OA
ATOM      9  N   UNL     1       0.924   1.659  24.099  0.00  0.00    -0.309 N 
ATOM     17  C   UNL     1       1.306   0.537  23.369  0.00  0.00    +0.244 C 
ATOM     32  H   UNL     1       1.613   2.192  24.619  0.00  0.00    +0.149 HD
BRANCH  17  23
ATOM      2  F   UNL     1       6.812  -0.551  23.203  0.00  0.00    -0.205 F 
ATOM     23  C   UNL     1       2.763   0.249  23.325  0.00  0.00    +0.037 A 
ATOM     24  C   UNL     1       3.656   1.236  22.908  0.00  0.00    +0.016 A 
ATOM     25  C   UNL     1       3.237  -1.007  23.700  0.00  0.00    +0.016 A 
ATOM     27  C   UNL     1       5.024   0.966  22.867  0.00  0.00    +0.039 A 
ATOM     28  C   UNL     1       4.605  -1.277  23.659  0.00  0.00    +0.039 A 
ATOM     29  C   UNL     1       5.499  -0.290  23.242  0.00  0.00    +0.123 A 
ENDBRANCH  17  23
ENDBRANCH  14   9
ENDBRANCH  12  14
TORSDOF 8
ENDMDL
MODEL 2
REMARK VINA RESULT:      -3.3      2.723      5.320
REMARK  Name = 75536644
REMARK  9 active torsions:
REMARK  status: ('A' for Active; 'I' for Inactive)
REMARK    1  A    between atoms: S_1  and  C_20
REMARK    2  A    between atoms: S_1  and  C_26
REMARK    3  A    between atoms: O_4  and  C_11
REMARK    4  A    between atoms: N_8  and  C_10
REMARK    5  A    between atoms: N_8  and  C_15
REMARK    6  A    between atoms: N_9  and  C_14
REMARK    7  A    between atoms: C_12  and  C_14
REMARK    8  A    between atoms: C_15  and  C_16
REMARK    9  A    between atoms: C_17  and  C_23
REMARK                            x       y       z     vdW  Elec       q    Type
REMARK                         _______ _______ _______ _____ _____    ______ ____
ROOT
ATOM      3  O   UNL     1      -5.010   2.702  26.921  0.00  0.00    -0.371 OA
ATOM     10  C   UNL     1      -4.323   4.495  25.537  0.00  0.00    +0.111 C 
ATOM     11  C   UNL     1      -5.717   4.077  25.102  0.00  0.00    +0.164 C 
ATOM     12  C   UNL     1      -6.000   2.792  25.879  0.00  0.00    +0.165 C 
ATOM     13  C   UNL     1      -4.247   3.914  26.939  0.00  0.00    +0.181 C 
ENDROOT
BRANCH  11   4
ATOM      4  O   UNL     1      -6.629   5.091  25.530  0.00  0.00    -0.388 OA
ATOM     31  H   UNL     1      -6.183   5.948  25.418  0.00  0.00    +0.210 HD
ENDBRANCH  11   4
BRANCH  10   8
ATOM      8  N   UNL     1      -3.294   3.913  24.679  0.00  0.00    -0.305 NA
ATOM     30  H   UNL     1      -3.586   2.979  24.390  0.00  0.00    +0.123 HD
BRANCH   8  15
ATOM     15  C   UNL     1      -2.023   3.803  25.384  0.00  0.00    +0.116 C 
BRANCH  15  16
ATOM     16  C   UNL     1      -1.093   2.827  24.714  0.00  0.00    -0.033 A 
ATOM     18  C   UNL     1      -1.511   2.131  23.579  0.00  0.00    +0.007 A 
ATOM     19  C   UNL     1       0.187   2.616  25.228  0.00  0.00    +0.007 A 
ATOM     20  C   UNL     1       0.631   1.017  23.473  0.00  0.00    +0.088 A 
ATOM     21  C   UNL     1      -0.649   1.227  22.958  0.00  0.00    +0.027 A 
ATOM     22  C   UNL     1       1.048   1.712  24.608  0.00  0.00    +0.027 A 
BRANCH  20   1
ATOM      1  S   UNL     1       1.709  -0.113  22.694  0.00  0.00    -0.006 S 
ATOM      6  O   UNL     1       1.974  -1.218  23.605  0.00  0.00    -0.170 OA
ATOM      7  O   UNL     1       1.187  -0.384  21.361  0.00  0.00    -0.170 OA
ATOM     26  C   UNL     1       3.234   0.783  22.511  0.00  0.00    +0.200 C 
ENDBRANCH  20   1
ENDBRANCH  15  16
ENDBRANCH   8  15
ENDBRANCH  10   8
BRANCH  12  14
ATOM     14  C   UNL     1      -5.913   1.535  25.028  0.00  0.00    +0.138 C 
BRANCH  14   9
ATOM      5  O   UNL     1      -5.141  -0.995  23.913  0.00  0.00    -0.270 OA
ATOM      9  N   UNL     1      -4.660   0.862  25.216  0.00  0.00    -0.309 N 
ATOM     17  C   UNL     1      -4.370  -0.368  24.634  0.00  0.00    +0.244 C 
ATOM     32  H   UNL     1      -4.009   1.288  25.868  0.00  0.00    +0.149 HD
BRANCH  17  23
ATOM      2  F   UNL     1       0.667  -2.544  25.822  0.00  0.00    -0.205 F 
ATOM     23  C   UNL     1      -3.037  -0.944  24.947  0.00  0.00    +0.037 A 
ATOM     24  C   UNL     1      -2.233  -0.349  25.920  0.00  0.00    +0.016 A 
ATOM     25  C   UNL     1      -2.590  -2.078  24.271  0.00  0.00    +0.016 A 
ATOM     27  C   UNL     1      -0.981  -0.890  26.216  0.00  0.00    +0.039 A 
ATOM     28  C   UNL     1      -1.339  -2.619  24.567  0.00  0.00    +0.039 A 
ATOM     29  C   UNL     1      -0.534  -2.024  25.540  0.00  0.00    +0.123 A 
ENDBRANCH  17  23
ENDBRANCH  14   9
ENDBRANCH  12  14
TORSDOF 8
ENDMDL
MODEL 3
REMARK VINA RESULT:      -2.5      2.247      4.784
REMARK  Name = 75536644
REMARK  9 active torsions:
REMARK  status: ('A' for Active; 'I' for Inactive)
REMARK    1  A    between atoms: S_1  and  C_20
REMARK    2  A    between atoms: S_1  and  C_26
REMARK    3  A    between atoms: O_4  and  C_11
REMARK    4  A    between atoms: N_8  and  C_10
REMARK    5  A    between atoms: N_8  and  C_15
REMARK    6  A    between atoms: N_9  and  C_14
REMARK    7  A    between atoms: C_12  and  C_14
REMARK    8  A    between atoms: C_15  and  C_16
REMARK    9  A    between atoms: C_17  and  C_23
REMARK                            x       y       z     vdW  Elec       q    Type
REMARK                         _______ _______ _______ _____ _____    ______ ____
ROOT
ATOM      3  O   UNL     1      -2.223  -0.685  25.933  0.00  0.00    -0.371 OA
ATOM     10  C   UNL     1      -3.579  -2.138  24.647  0.00  0.00    +0.111 C 
ATOM     11  C   UNL     1      -2.128  -2.430  24.306  0.00  0.00    +0.164 C 
ATOM     12  C   UNL     1      -1.333  -1.321  24.995  0.00  0.00    +0.165 C 
ATOM     13  C   UNL     1      -3.448  -1.426  25.983  0.00  0.00    +0.181 C 
ENDROOT
BRANCH  11   4
ATOM      4  O   UNL     1      -1.785  -3.686  24.897  0.00  0.00    -0.388 OA
ATOM     31  H   UNL     1      -0.825  -3.682  25.048  0.00  0.00    +0.210 HD
ENDBRANCH  11   4
BRANCH  10   8
ATOM      8  N   UNL     1      -4.200  -1.266  23.654  0.00  0.00    -0.305 NA
ATOM     30  H   UNL     1      -3.472  -0.758  23.149  0.00  0.00    +0.123 HD
BRANCH   8  15
ATOM     15  C   UNL     1      -5.086  -0.296  24.287  0.00  0.00    +0.116 C 
BRANCH  15  16
ATOM     16  C   UNL     1      -4.420   1.043  24.461  0.00  0.00    -0.033 A 
ATOM     18  C   UNL     1      -4.828   1.898  25.484  0.00  0.00    +0.007 A 
ATOM     19  C   UNL     1      -3.393   1.428  23.598  0.00  0.00    +0.007 A 
ATOM     20  C   UNL     1      -3.184   3.524  24.783  0.00  0.00    +0.088 A 
ATOM     21  C   UNL     1      -4.211   3.138  25.645  0.00  0.00    +0.027 A 
ATOM     22  C   UNL     1      -2.776   2.669  23.759  0.00  0.00    +0.027 A 
BRANCH  20   1
ATOM      1  S   UNL     1      -2.410   5.075  24.987  0.00  0.00    -0.006 S 
ATOM      6  O   UNL     1      -2.712   5.909  23.832  0.00  0.00    -0.170 OA
ATOM      7  O   UNL     1      -2.719   5.556  26.326  0.00  0.00    -0.170 OA
ATOM     26  C   UNL     1      -0.670   4.714  24.923  0.00  0.00    +0.200 C 
ENDBRANCH  20   1
ENDBRANCH  15  16
ENDBRANCH   8  15
ENDBRANCH  10   8
BRANCH  12  14
ATOM     14  C   UNL     1      -0.811  -0.261  24.038  0.00  0.00    +0.138 C 
BRANCH  14   9
ATOM      5  O   UNL     1       0.945  -0.329  21.768  0.00  0.00    -0.270 OA
ATOM      9  N   UNL     1       0.621  -0.196  24.061  0.00  0.00    -0.309 N 
ATOM     17  C   UNL     1       1.397  -0.236  22.906  0.00  0.00    +0.244 C 
ATOM     32  H   UNL     1       1.062  -0.202  24.975  0.00  0.00    +0.149 HD
BRANCH  17  23
ATOM      2  F   UNL     1       6.959  -0.045  23.645  0.00  0.00    -0.205 F 
ATOM     23  C   UNL     1       2.868  -0.184  23.102  0.00  0.00    +0.037 A 
ATOM     24  C   UNL     1       3.534  -1.273  23.667  0.00  0.00    +0.016 A 
ATOM     25  C   UNL     1       3.584   0.950  22.721  0.00  0.00    +0.016 A 
ATOM     27  C   UNL     1       4.916  -1.225  23.850  0.00  0.00    +0.039 A 
ATOM     28  C   UNL     1       4.966   0.997  22.905  0.00  0.00    +0.039 A 
ATOM     29  C   UNL     1       5.632  -0.091  23.469  0.00  0.00    +0.123 A 
ENDBRANCH  17  23
ENDBRANCH  14   9
ENDBRANCH  12  14
TORSDOF 8
ENDMDL
MODEL 4
REMARK VINA RESULT:      -2.3      2.874      5.872
REMARK  Name = 75536644
REMARK  9 active torsions:
REMARK  status: ('A' for Active; 'I' for Inactive)
REMARK    1  A    between atoms: S_1  and  C_20
REMARK    2  A    between atoms: S_1  and  C_26
REMARK    3  A    between atoms: O_4  and  C_11
REMARK    4  A    between atoms: N_8  and  C_10
REMARK    5  A    between atoms: N_8  and  C_15
REMARK    6  A    between atoms: N_9  and  C_14
REMARK    7  A    between atoms: C_12  and  C_14
REMARK    8  A    between atoms: C_15  and  C_16
REMARK    9  A    between atoms: C_17  and  C_23
REMARK                            x       y       z     vdW  Elec       q    Type
REMARK                         _______ _______ _______ _____ _____    ______ ____
ROOT
ATOM      3  O   UNL     1      -4.484   3.619  26.397  0.00  0.00    -0.371 OA
ATOM     10  C   UNL     1      -2.747   3.725  24.793  0.00  0.00    +0.111 C 
ATOM     11  C   UNL     1      -4.050   3.478  24.053  0.00  0.00    +0.164 C 
ATOM     12  C   UNL     1      -5.077   3.203  25.152  0.00  0.00    +0.165 C 
ATOM     13  C   UNL     1      -3.241   4.275  26.120  0.00  0.00    +0.181 C 
ENDROOT
BRANCH  11   4
ATOM      4  O   UNL     1      -4.404   4.687  23.377  0.00  0.00    -0.388 OA
ATOM     31  H   UNL     1      -4.425   4.491  22.425  0.00  0.00    +0.210 HD
ENDBRANCH  11   4
BRANCH  10   8
ATOM      8  N   UNL     1      -1.997   2.487  24.991  0.00  0.00    -0.305 NA
ATOM     30  H   UNL     1      -1.089   2.706  25.403  0.00  0.00    +0.123 HD
BRANCH   8  15
ATOM     15  C   UNL     1      -1.777   1.797  23.725  0.00  0.00    +0.116 C 
BRANCH  15  16
ATOM     16  C   UNL     1      -0.335   1.406  23.543  0.00  0.00    -0.033 A 
ATOM     18  C   UNL     1       0.679   2.244  24.007  0.00  0.00    +0.007 A 
ATOM     19  C   UNL     1      -0.012   0.205  22.911  0.00  0.00    +0.007 A 
ATOM     20  C   UNL     1       2.338   0.680  23.207  0.00  0.00    +0.088 A 
ATOM     21  C   UNL     1       2.016   1.881  23.839  0.00  0.00    +0.027 A 
ATOM     22  C   UNL     1       1.324  -0.158  22.743  0.00  0.00    +0.027 A 
BRANCH  20   1
ATOM      1  S   UNL     1       4.011   0.225  22.999  0.00  0.00    -0.006 S 
ATOM      6  O   UNL     1       4.296   0.112  21.575  0.00  0.00    -0.170 OA
ATOM      7  O   UNL     1       4.820   1.105  23.831  0.00  0.00    -0.170 OA
ATOM     26  C   UNL     1       4.112  -1.415  23.678  0.00  0.00    +0.200 C 
ENDBRANCH  20   1
ENDBRANCH  15  16
ENDBRANCH   8  15
ENDBRANCH  10   8
BRANCH  12  14
ATOM     14  C   UNL     1      -5.461   1.736  25.273  0.00  0.00    +0.138 C 
BRANCH  14   9
ATOM      5  O   UNL     1      -5.079  -0.838  24.062  0.00  0.00    -0.270 OA
ATOM      9  N   UNL     1      -4.301   0.900  25.386  0.00  0.00    -0.309 N 
ATOM     17  C   UNL     1      -4.202  -0.339  24.761  0.00  0.00    +0.244 C 
ATOM     32  H   UNL     1      -3.572   1.217  26.017  0.00  0.00    +0.149 HD
BRANCH  17  23
ATOM      2  F   UNL     1       0.550  -3.194  25.656  0.00  0.00    -0.205 F 
ATOM     23  C   UNL     1      -2.945  -1.094  24.998  0.00  0.00    +0.037 A 
ATOM     24  C   UNL     1      -2.687  -2.262  24.279  0.00  0.00    +0.016 A 
ATOM     25  C   UNL     1      -2.022  -0.637  25.939  0.00  0.00    +0.016 A 
ATOM     27  C   UNL     1      -1.506  -2.971  24.501  0.00  0.00    +0.039 A 
ATOM     28  C   UNL     1      -0.842  -1.346  26.161  0.00  0.00    +0.039 A 
ATOM     29  C   UNL     1      -0.584  -2.514  25.442  0.00  0.00    +0.123 A 
ENDBRANCH  17  23
ENDBRANCH  14   9
ENDBRANCH  12  14
TORSDOF 8
ENDMDL
MODEL 5
REMARK VINA RESULT:      -2.0      3.243      6.579
REMARK  Name = 75536644
REMARK  9 active torsions:
REMARK  status: ('A' for Active; 'I' for Inactive)
REMARK    1  A    between atoms: S_1  and  C_20
REMARK    2  A    between atoms: S_1  and  C_26
REMARK    3  A    between atoms: O_4  and  C_11
REMARK    4  A    between atoms: N_8  and  C_10
REMARK    5  A    between atoms: N_8  and  C_15
REMARK    6  A    between atoms: N_9  and  C_14
REMARK    7  A    between atoms: C_12  and  C_14
REMARK    8  A    between atoms: C_15  and  C_16
REMARK    9  A    between atoms: C_17  and  C_23
REMARK                            x       y       z     vdW  Elec       q    Type
REMARK                         _______ _______ _______ _____ _____    ______ ____
ROOT
ATOM      3  O   UNL     1      -3.475   3.980  26.440  0.00  0.00    -0.371 OA
ATOM     10  C   UNL     1      -1.350   3.274  25.672  0.00  0.00    +0.111 C 
ATOM     11  C   UNL     1      -1.935   4.212  24.630  0.00  0.00    +0.164 C 
ATOM     12  C   UNL     1      -3.377   4.446  25.081  0.00  0.00    +0.165 C 
ATOM     13  C   UNL     1      -2.166   3.630  26.904  0.00  0.00    +0.181 C 
ENDROOT
BRANCH  11   4
ATOM      4  O   UNL     1      -1.218   5.446  24.702  0.00  0.00    -0.388 OA
ATOM     31  H   UNL     1      -0.652   5.498  23.913  0.00  0.00    +0.210 HD
ENDBRANCH  11   4
BRANCH  10   8
ATOM      8  N   UNL     1      -1.546   1.874  25.308  0.00  0.00    -0.305 NA
ATOM     30  H   UNL     1      -0.927   1.290  25.872  0.00  0.00    +0.123 HD
BRANCH   8  15
ATOM     15  C   UNL     1      -1.237   1.649  23.900  0.00  0.00    +0.116 C 
BRANCH  15  16
ATOM     16  C   UNL     1       0.171   1.153  23.707  0.00  0.00    -0.033 A 
ATOM     18  C   UNL     1       0.419  -0.214  23.581  0.00  0.00    +0.007 A 
ATOM     19  C   UNL     1       1.230   2.061  23.656  0.00  0.00    +0.007 A 
ATOM     20  C   UNL     1       2.782   0.235  23.350  0.00  0.00    +0.088 A 
ATOM     21  C   UNL     1       1.724  -0.673  23.402  0.00  0.00    +0.027 A 
ATOM     22  C   UNL     1       2.534   1.602  23.476  0.00  0.00    +0.027 A 
BRANCH  20   1
ATOM      1  S   UNL     1       4.414  -0.340  23.123  0.00  0.00    -0.006 S 
ATOM      6  O   UNL     1       4.485  -1.736  23.534  0.00  0.00    -0.170 OA
ATOM      7  O   UNL     1       4.841   0.041  21.784  0.00  0.00    -0.170 OA
ATOM     26  C   UNL     1       5.379   0.591  24.291  0.00  0.00    +0.200 C 
ENDBRANCH  20   1
ENDBRANCH  15  16
ENDBRANCH   8  15
ENDBRANCH  10   8
BRANCH  12  14
ATOM     14  C   UNL     1      -4.405   3.700  24.245  0.00  0.00    +0.138 C 
BRANCH  14   9
ATOM      5  O   UNL     1      -5.695   1.658  25.797  0.00  0.00    -0.270 OA
ATOM      9  N   UNL     1      -4.127   2.293  24.209  0.00  0.00    -0.309 N 
ATOM     17  C   UNL     1      -4.806   1.371  25.000  0.00  0.00    +0.244 C 
ATOM     32  H   UNL     1      -3.346   1.999  23.632  0.00  0.00    +0.149 HD
BRANCH  17  23
ATOM      2  F   UNL     1      -3.205  -3.987  24.491  0.00  0.00    -0.205 F 
ATOM     23  C   UNL     1      -4.382  -0.046  24.865  0.00  0.00    +0.037 A 
ATOM     24  C   UNL     1      -3.719  -0.679  25.917  0.00  0.00    +0.016 A 
ATOM     25  C   UNL     1      -4.647  -0.745  23.687  0.00  0.00    +0.016 A 
ATOM     27  C   UNL     1      -3.322  -2.010  25.790  0.00  0.00    +0.039 A 
ATOM     28  C   UNL     1      -4.249  -2.076  23.561  0.00  0.00    +0.039 A 
ATOM     29  C   UNL     1      -3.586  -2.708  24.613  0.00  0.00    +0.123 A 
ENDBRANCH  17  23
ENDBRANCH  14   9
ENDBRANCH  12  14
TORSDOF 8
ENDMDL
MODEL 6
REMARK VINA RESULT:      -1.0      1.563      2.130
REMARK  Name = 75536644
REMARK  9 active torsions:
REMARK  status: ('A' for Active; 'I' for Inactive)
REMARK    1  A    between atoms: S_1  and  C_20
REMARK    2  A    between atoms: S_1  and  C_26
REMARK    3  A    between atoms: O_4  and  C_11
REMARK    4  A    between atoms: N_8  and  C_10
REMARK    5  A    between atoms: N_8  and  C_15
REMARK    6  A    between atoms: N_9  and  C_14
REMARK    7  A    between atoms: C_12  and  C_14
REMARK    8  A    between atoms: C_15  and  C_16
REMARK    9  A    between atoms: C_17  and  C_23
REMARK                            x       y       z     vdW  Elec       q    Type
REMARK                         _______ _______ _______ _____ _____    ______ ____
ROOT
ATOM      3  O   UNL     1      -0.741   4.223  25.425  0.00  0.00    -0.371 OA
ATOM     10  C   UNL     1      -2.960   4.904  24.962  0.00  0.00    +0.111 C 
ATOM     11  C   UNL     1      -2.988   4.042  26.213  0.00  0.00    +0.164 C 
ATOM     12  C   UNL     1      -1.576   3.465  26.320  0.00  0.00    +0.165 C 
ATOM     13  C   UNL     1      -1.500   5.320  24.902  0.00  0.00    +0.181 C 
ENDROOT
BRANCH  11   4
ATOM      4  O   UNL     1      -3.226   4.902  27.330  0.00  0.00    -0.388 OA
ATOM     31  H   UNL     1      -4.059   4.616  27.742  0.00  0.00    +0.210 HD
ENDBRANCH  11   4
BRANCH  10   8
ATOM      8  N   UNL     1      -3.331   4.141  23.774  0.00  0.00    -0.305 NA
ATOM     30  H   UNL     1      -3.519   4.786  23.005  0.00  0.00    +0.123 HD
BRANCH   8  15
ATOM     15  C   UNL     1      -4.529   3.345  24.013  0.00  0.00    +0.116 C 
BRANCH  15  16
ATOM     16  C   UNL     1      -4.214   1.877  24.128  0.00  0.00    -0.033 A 
ATOM     18  C   UNL     1      -4.726   1.135  25.192  0.00  0.00    +0.007 A 
ATOM     19  C   UNL     1      -3.408   1.260  23.172  0.00  0.00    +0.007 A 
ATOM     20  C   UNL     1      -3.628  -0.843  24.342  0.00  0.00    +0.088 A 
ATOM     21  C   UNL     1      -4.434  -0.225  25.299  0.00  0.00    +0.027 A 
ATOM     22  C   UNL     1      -3.116  -0.100  23.278  0.00  0.00    +0.027 A 
BRANCH  20   1
ATOM      1  S   UNL     1      -3.265  -2.545  24.474  0.00  0.00    -0.006 S 
ATOM      6  O   UNL     1      -1.985  -2.806  23.831  0.00  0.00    -0.170 OA
ATOM      7  O   UNL     1      -3.472  -2.940  25.861  0.00  0.00    -0.170 OA
ATOM     26  C   UNL     1      -4.512  -3.342  23.488  0.00  0.00    +0.200 C 
ENDBRANCH  20   1
ENDBRANCH  15  16
ENDBRANCH   8  15
ENDBRANCH  10   8
BRANCH  12  14
ATOM     14  C   UNL     1      -1.488   1.998  25.930  0.00  0.00    +0.138 C 
BRANCH  14   9
ATOM      5  O   UNL     1      -0.428  -0.538  25.101  0.00  0.00    -0.270 OA
ATOM      9  N   UNL     1      -0.454   1.777  24.960  0.00  0.00    -0.309 N 
ATOM     17  C   UNL     1      -0.001   0.507  24.618  0.00  0.00    +0.244 C 
ATOM     32  H   UNL     1      -0.001   2.603  24.583  0.00  0.00    +0.149 HD
BRANCH  17  23
ATOM      2  F   UNL     1       4.133   0.289  20.824  0.00  0.00    -0.205 F 
ATOM     23  C   UNL     1       1.093   0.449  23.615  0.00  0.00    +0.037 A 
ATOM     24  C   UNL     1       0.970  -0.374  22.495  0.00  0.00    +0.016 A 
ATOM     25  C   UNL     1       2.243   1.218  23.791  0.00  0.00    +0.016 A 
ATOM     27  C   UNL     1       1.996  -0.429  21.553  0.00  0.00    +0.039 A 
ATOM     28  C   UNL     1       3.270   1.164  22.848  0.00  0.00    +0.039 A 
ATOM     29  C   UNL     1       3.146   0.340  21.729  0.00  0.00    +0.123 A 
ENDBRANCH  17  23
ENDBRANCH  14   9
ENDBRANCH  12  14
TORSDOF 8
ENDMDL
MODEL 7
REMARK VINA RESULT:       0.1      3.195      7.099
REMARK  Name = 75536644
REMARK  9 active torsions:
REMARK  status: ('A' for Active; 'I' for Inactive)
REMARK    1  A    between atoms: S_1  and  C_20
REMARK    2  A    between atoms: S_1  and  C_26
REMARK    3  A    between atoms: O_4  and  C_11
REMARK    4  A    between atoms: N_8  and  C_10
REMARK    5  A    between atoms: N_8  and  C_15
REMARK    6  A    between atoms: N_9  and  C_14
REMARK    7  A    between atoms: C_12  and  C_14
REMARK    8  A    between atoms: C_15  and  C_16
REMARK    9  A    between atoms: C_17  and  C_23
REMARK                            x       y       z     vdW  Elec       q    Type
REMARK                         _______ _______ _______ _____ _____    ______ ____
ROOT
ATOM      3  O   UNL     1      -4.659  -2.160  24.018  0.00  0.00    -0.371 OA
ATOM     10  C   UNL     1      -2.373  -1.836  24.536  0.00  0.00    +0.111 C 
ATOM     11  C   UNL     1      -3.194  -1.017  25.516  0.00  0.00    +0.164 C 
ATOM     12  C   UNL     1      -4.626  -1.097  24.989  0.00  0.00    +0.165 C 
ATOM     13  C   UNL     1      -3.398  -2.839  24.032  0.00  0.00    +0.181 C 
ENDROOT
BRANCH  11   4
ATOM      4  O   UNL     1      -3.129  -1.665  26.789  0.00  0.00    -0.388 OA
ATOM     31  H   UNL     1      -2.688  -1.054  27.403  0.00  0.00    +0.210 HD
ENDBRANCH  11   4
BRANCH  10   8
ATOM      8  N   UNL     1      -1.868  -1.016  23.439  0.00  0.00    -0.305 NA
ATOM     30  H   UNL     1      -1.156  -1.540  22.927  0.00  0.00    +0.123 HD
BRANCH   8  15
ATOM     15  C   UNL     1      -1.267   0.216  23.937  0.00  0.00    +0.116 C 
BRANCH  15  16
ATOM     16  C   UNL     1       0.226   0.231  23.739  0.00  0.00    -0.033 A 
ATOM     18  C   UNL     1       0.927  -0.969  23.623  0.00  0.00    +0.007 A 
ATOM     19  C   UNL     1       0.908   1.446  23.674  0.00  0.00    +0.007 A 
ATOM     20  C   UNL     1       2.992   0.260  23.374  0.00  0.00    +0.088 A 
ATOM     21  C   UNL     1       2.309  -0.955  23.439  0.00  0.00    +0.027 A 
ATOM     22  C   UNL     1       2.291   1.460  23.490  0.00  0.00    +0.027 A 
BRANCH  20   1
ATOM      1  S   UNL     1       4.722   0.277  23.141  0.00  0.00    -0.006 S 
ATOM      6  O   UNL     1       5.008   0.238  21.714  0.00  0.00    -0.170 OA
ATOM      7  O   UNL     1       5.272   1.349  23.960  0.00  0.00    -0.170 OA
ATOM     26  C   UNL     1       5.276  -1.270  23.822  0.00  0.00    +0.200 C 
ENDBRANCH  20   1
ENDBRANCH  15  16
ENDBRANCH   8  15
ENDBRANCH  10   8
BRANCH  12  14
ATOM     14  C   UNL     1      -5.099   0.181  24.314  0.00  0.00    +0.138 C 
BRANCH  14   9
ATOM      5  O   UNL     1      -5.253   2.611  25.834  0.00  0.00    -0.270 OA
ATOM      9  N   UNL     1      -4.102   1.210  24.388  0.00  0.00    -0.309 N 
ATOM     17  C   UNL     1      -4.261   2.360  25.155  0.00  0.00    +0.244 C 
ATOM     32  H   UNL     1      -3.293   1.103  23.785  0.00  0.00    +0.149 HD
BRANCH  17  23
ATOM      2  F   UNL     1      -0.053   6.072  24.965  0.00  0.00    -0.205 F 
ATOM     23  C   UNL     1      -3.148   3.341  25.104  0.00  0.00    +0.037 A 
ATOM     24  C   UNL     1      -3.392   4.652  24.693  0.00  0.00    +0.016 A 
ATOM     25  C   UNL     1      -1.859   2.954  25.468  0.00  0.00    +0.016 A 
ATOM     27  C   UNL     1      -2.347   5.574  24.646  0.00  0.00    +0.039 A 
ATOM     28  C   UNL     1      -0.813   3.876  25.421  0.00  0.00    +0.039 A 
ATOM     29  C   UNL     1      -1.058   5.187  25.010  0.00  0.00    +0.123 A 
ENDBRANCH  17  23
ENDBRANCH  14   9
ENDBRANCH  12  14
TORSDOF 8
ENDMDL
