MODEL 1
REMARK VINA RESULT:      -4.3      0.000      0.000
REMARK  Name = 40777878
REMARK  11 active torsions:
REMARK  status: ('A' for Active; 'I' for Inactive)
REMARK    1  A    between atoms: O_3  and  C_10
REMARK    2  A    between atoms: O_4  and  C_11
REMARK    3  A    between atoms: O_7  and  C_29
REMARK    4  A    between atoms: O_7  and  C_31
REMARK    5  A    between atoms: N_8  and  C_15
REMARK    6  A    between atoms: N_9  and  C_18
REMARK    7  A    between atoms: C_12  and  C_14
REMARK    8  A    between atoms: C_13  and  C_15
REMARK    9  A    between atoms: C_14  and  C_16
REMARK   10  A    between atoms: C_17  and  C_19
REMARK   11  A    between atoms: C_18  and  C_20
REMARK                            x       y       z     vdW  Elec       q    Type
REMARK                         _______ _______ _______ _____ _____    ______ ____
ROOT
ATOM      2  O   UNL     1      -2.165   3.038  26.462  0.00  0.00    -0.366 OA
ATOM     10  C   UNL     1      -1.348   3.689  24.349  0.00  0.00    +0.175 C 
ATOM     11  C   UNL     1      -2.343   4.735  24.805  0.00  0.00    +0.176 C 
ATOM     12  C   UNL     1      -0.967   3.036  25.666  0.00  0.00    +0.158 C 
ATOM     13  C   UNL     1      -3.094   3.999  25.909  0.00  0.00    +0.167 C 
ENDROOT
BRANCH  10   3
ATOM      3  O   UNL     1      -0.228   4.234  23.684  0.00  0.00    -0.387 OA
ATOM     32  H   UNL     1      -0.555   4.702  22.897  0.00  0.00    +0.210 HD
ENDBRANCH  10   3
BRANCH  11   4
ATOM      4  O   UNL     1      -1.662   5.844  25.394  0.00  0.00    -0.387 OA
ATOM     33  H   UNL     1      -2.319   6.353  25.898  0.00  0.00    +0.210 HD
ENDBRANCH  11   4
BRANCH  12  14
ATOM     14  C   UNL     1      -0.460   1.614  25.510  0.00  0.00    +0.130 C 
BRANCH  14  16
ATOM      5  O   UNL     1       1.375   2.329  24.106  0.00  0.00    -0.276 OA
ATOM      9  N   UNL     1       0.378   0.268  23.705  0.00  0.00    -0.311 N 
ATOM     16  C   UNL     1       0.539   1.471  24.377  0.00  0.00    +0.216 C 
ATOM     35  H   UNL     1      -0.343  -0.375  24.022  0.00  0.00    +0.149 HD
BRANCH   9  18
ATOM     18  C   UNL     1       1.196  -0.124  22.581  0.00  0.00    +0.139 C 
BRANCH  18  20
ATOM     20  C   UNL     1       2.656  -0.154  22.932  0.00  0.00    -0.030 A 
ATOM     23  C   UNL     1       3.200  -1.276  23.557  0.00  0.00    +0.009 A 
ATOM     24  C   UNL     1       3.468   0.939  22.630  0.00  0.00    +0.009 A 
ATOM     27  C   UNL     1       4.556  -1.305  23.882  0.00  0.00    +0.046 A 
ATOM     28  C   UNL     1       4.824   0.910  22.955  0.00  0.00    +0.046 A 
ATOM     29  C   UNL     1       5.368  -0.211  23.581  0.00  0.00    +0.120 A 
BRANCH  29   7
ATOM      7  O   UNL     1       6.692  -0.240  23.898  0.00  0.00    -0.495 OA
ATOM     31  C   UNL     1       7.599  -0.614  22.862  0.00  0.00    +0.277 C 
ENDBRANCH  29   7
ENDBRANCH  18  20
ENDBRANCH   9  18
ENDBRANCH  14  16
ENDBRANCH  12  14
BRANCH  13  15
ATOM     15  C   UNL     1      -4.306   3.234  25.398  0.00  0.00    +0.138 C 
BRANCH  15   8
ATOM      6  O   UNL     1      -3.621   1.702  23.069  0.00  0.00    -0.270 OA
ATOM      8  N   UNL     1      -4.039   1.804  25.346  0.00  0.00    -0.309 N 
ATOM     17  C   UNL     1      -3.716   1.161  24.168  0.00  0.00    +0.244 C 
ATOM     34  H   UNL     1      -4.162   1.289  26.211  0.00  0.00    +0.149 HD
BRANCH  17  19
ATOM      1  F   UNL     1      -0.922  -2.643  25.336  0.00  0.00    -0.205 F 
ATOM     19  C   UNL     1      -3.499  -0.304  24.278  0.00  0.00    +0.039 A 
ATOM     21  C   UNL     1      -2.288  -0.795  24.765  0.00  0.00    +0.051 A 
ATOM     22  C   UNL     1      -4.507  -1.189  23.893  0.00  0.00    +0.013 A 
ATOM     25  C   UNL     1      -2.084  -2.171  24.868  0.00  0.00    +0.124 A 
ATOM     26  C   UNL     1      -4.303  -2.565  23.995  0.00  0.00    +0.004 A 
ATOM     30  C   UNL     1      -3.092  -3.057  24.482  0.00  0.00    +0.038 A 
ENDBRANCH  17  19
ENDBRANCH  15   8
ENDBRANCH  13  15
TORSDOF 10
ENDMDL
MODEL 2
REMARK VINA RESULT:      -3.7      2.230      7.145
REMARK  Name = 40777878
REMARK  11 active torsions:
REMARK  status: ('A' for Active; 'I' for Inactive)
REMARK    1  A    between atoms: O_3  and  C_10
REMARK    2  A    between atoms: O_4  and  C_11
REMARK    3  A    between atoms: O_7  and  C_29
REMARK    4  A    between atoms: O_7  and  C_31
REMARK    5  A    between atoms: N_8  and  C_15
REMARK    6  A    between atoms: N_9  and  C_18
REMARK    7  A    between atoms: C_12  and  C_14
REMARK    8  A    between atoms: C_13  and  C_15
REMARK    9  A    between atoms: C_14  and  C_16
REMARK   10  A    between atoms: C_17  and  C_19
REMARK   11  A    between atoms: C_18  and  C_20
REMARK                            x       y       z     vdW  Elec       q    Type
REMARK                         _______ _______ _______ _____ _____    ______ ____
ROOT
ATOM      2  O   UNL     1      -2.773  -0.311  25.701  0.00  0.00    -0.366 OA
ATOM     10  C   UNL     1      -2.948  -1.981  24.045  0.00  0.00    +0.175 C 
ATOM     11  C   UNL     1      -1.528  -1.994  24.571  0.00  0.00    +0.176 C 
ATOM     12  C   UNL     1      -3.687  -1.293  25.180  0.00  0.00    +0.158 C 
ATOM     13  C   UNL     1      -1.433  -0.640  25.265  0.00  0.00    +0.167 C 
ENDROOT
BRANCH  10   3
ATOM      3  O   UNL     1      -3.460  -3.271  23.785  0.00  0.00    -0.387 OA
ATOM     32  H   UNL     1      -3.060  -3.879  24.429  0.00  0.00    +0.210 HD
ENDBRANCH  10   3
BRANCH  11   4
ATOM      4  O   UNL     1      -1.375  -3.012  25.561  0.00  0.00    -0.387 OA
ATOM     33  H   UNL     1      -1.726  -2.659  26.396  0.00  0.00    +0.210 HD
ENDBRANCH  11   4
BRANCH  12  14
ATOM     14  C   UNL     1      -4.971  -0.613  24.740  0.00  0.00    +0.130 C 
BRANCH  14  16
ATOM      5  O   UNL     1      -4.222   1.452  23.728  0.00  0.00    -0.276 OA
ATOM      9  N   UNL     1      -5.460   1.536  25.693  0.00  0.00    -0.311 N 
ATOM     16  C   UNL     1      -4.828   0.894  24.639  0.00  0.00    +0.216 C 
ATOM     35  H   UNL     1      -5.942   0.974  26.390  0.00  0.00    +0.149 HD
BRANCH   9  18
ATOM     18  C   UNL     1      -5.478   2.972  25.845  0.00  0.00    +0.139 C 
BRANCH  18  20
ATOM     20  C   UNL     1      -4.136   3.585  25.562  0.00  0.00    -0.030 A 
ATOM     23  C   UNL     1      -3.085   3.410  26.462  0.00  0.00    +0.009 A 
ATOM     24  C   UNL     1      -3.941   4.328  24.398  0.00  0.00    +0.009 A 
ATOM     27  C   UNL     1      -1.839   3.978  26.199  0.00  0.00    +0.046 A 
ATOM     28  C   UNL     1      -2.695   4.896  24.135  0.00  0.00    +0.046 A 
ATOM     29  C   UNL     1      -1.644   4.722  25.035  0.00  0.00    +0.120 A 
BRANCH  29   7
ATOM      7  O   UNL     1      -0.428   5.276  24.778  0.00  0.00    -0.495 OA
ATOM     31  C   UNL     1       0.212   4.901  23.558  0.00  0.00    +0.277 C 
ENDBRANCH  29   7
ENDBRANCH  18  20
ENDBRANCH   9  18
ENDBRANCH  14  16
ENDBRANCH  12  14
BRANCH  13  15
ATOM     15  C   UNL     1      -0.959   0.472  24.340  0.00  0.00    +0.138 C 
BRANCH  15   8
ATOM      6  O   UNL     1       0.575  -0.518  22.124  0.00  0.00    -0.270 OA
ATOM      8  N   UNL     1       0.492   0.469  24.219  0.00  0.00    -0.309 N 
ATOM     17  C   UNL     1       1.133  -0.033  23.105  0.00  0.00    +0.244 C 
ATOM     34  H   UNL     1       1.014   0.800  25.024  0.00  0.00    +0.149 HD
BRANCH  17  19
ATOM      1  F   UNL     1       5.418  -2.083  24.149  0.00  0.00    -0.205 F 
ATOM     19  C   UNL     1       2.617   0.012  23.148  0.00  0.00    +0.039 A 
ATOM     21  C   UNL     1       3.335  -1.079  23.638  0.00  0.00    +0.051 A 
ATOM     22  C   UNL     1       3.294   1.147  22.698  0.00  0.00    +0.013 A 
ATOM     25  C   UNL     1       4.729  -1.035  23.678  0.00  0.00    +0.124 A 
ATOM     26  C   UNL     1       4.687   1.190  22.738  0.00  0.00    +0.004 A 
ATOM     30  C   UNL     1       5.405   0.099  23.229  0.00  0.00    +0.038 A 
ENDBRANCH  17  19
ENDBRANCH  15   8
ENDBRANCH  13  15
TORSDOF 10
ENDMDL
MODEL 3
REMARK VINA RESULT:      -3.7      2.071      6.039
REMARK  Name = 40777878
REMARK  11 active torsions:
REMARK  status: ('A' for Active; 'I' for Inactive)
REMARK    1  A    between atoms: O_3  and  C_10
REMARK    2  A    between atoms: O_4  and  C_11
REMARK    3  A    between atoms: O_7  and  C_29
REMARK    4  A    between atoms: O_7  and  C_31
REMARK    5  A    between atoms: N_8  and  C_15
REMARK    6  A    between atoms: N_9  and  C_18
REMARK    7  A    between atoms: C_12  and  C_14
REMARK    8  A    between atoms: C_13  and  C_15
REMARK    9  A    between atoms: C_14  and  C_16
REMARK   10  A    between atoms: C_17  and  C_19
REMARK   11  A    between atoms: C_18  and  C_20
REMARK                            x       y       z     vdW  Elec       q    Type
REMARK                         _______ _______ _______ _____ _____    ______ ____
ROOT
ATOM      2  O   UNL     1      -2.387   3.676  23.317  0.00  0.00    -0.366 OA
ATOM     10  C   UNL     1      -2.717   3.848  25.645  0.00  0.00    +0.175 C 
ATOM     11  C   UNL     1      -1.229   3.941  25.377  0.00  0.00    +0.176 C 
ATOM     12  C   UNL     1      -3.293   4.223  24.291  0.00  0.00    +0.158 C 
ATOM     13  C   UNL     1      -1.125   3.385  23.962  0.00  0.00    +0.167 C 
ENDROOT
BRANCH  10   3
ATOM      3  O   UNL     1      -3.156   4.717  26.667  0.00  0.00    -0.387 OA
ATOM     32  H   UNL     1      -2.440   5.352  26.838  0.00  0.00    +0.210 HD
ENDBRANCH  10   3
BRANCH  11   4
ATOM      4  O   UNL     1      -0.814   5.306  25.350  0.00  0.00    -0.387 OA
ATOM     33  H   UNL     1       0.127   5.319  25.105  0.00  0.00    +0.210 HD
ENDBRANCH  11   4
BRANCH  12  14
ATOM     14  C   UNL     1      -4.688   3.674  24.056  0.00  0.00    +0.130 C 
BRANCH  14  16
ATOM      5  O   UNL     1      -5.361   2.646  26.140  0.00  0.00    -0.276 OA
ATOM      9  N   UNL     1      -4.877   1.293  24.313  0.00  0.00    -0.311 N 
ATOM     16  C   UNL     1      -5.017   2.507  24.969  0.00  0.00    +0.216 C 
ATOM     35  H   UNL     1      -4.596   1.295  23.336  0.00  0.00    +0.149 HD
BRANCH   9  18
ATOM     18  C   UNL     1      -5.125   0.020  24.949  0.00  0.00    +0.139 C 
BRANCH  18  20
ATOM     20  C   UNL     1      -3.897  -0.844  24.977  0.00  0.00    -0.030 A 
ATOM     23  C   UNL     1      -3.877  -2.051  24.278  0.00  0.00    +0.009 A 
ATOM     24  C   UNL     1      -2.776  -0.438  25.700  0.00  0.00    +0.009 A 
ATOM     27  C   UNL     1      -2.736  -2.853  24.303  0.00  0.00    +0.046 A 
ATOM     28  C   UNL     1      -1.635  -1.240  25.725  0.00  0.00    +0.046 A 
ATOM     29  C   UNL     1      -1.615  -2.447  25.027  0.00  0.00    +0.120 A 
BRANCH  29   7
ATOM      7  O   UNL     1      -0.501  -3.230  25.051  0.00  0.00    -0.495 OA
ATOM     31  C   UNL     1       0.716  -2.614  25.470  0.00  0.00    +0.277 C 
ENDBRANCH  29   7
ENDBRANCH  18  20
ENDBRANCH   9  18
ENDBRANCH  14  16
ENDBRANCH  12  14
BRANCH  13  15
ATOM     15  C   UNL     1      -0.922   1.877  23.926  0.00  0.00    +0.138 C 
BRANCH  15   8
ATOM      6  O   UNL     1       0.225  -0.409  22.621  0.00  0.00    -0.270 OA
ATOM      8  N   UNL     1       0.493   1.541  23.844  0.00  0.00    -0.309 N 
ATOM     17  C   UNL     1       0.941   0.412  23.189  0.00  0.00    +0.244 C 
ATOM     34  H   UNL     1       1.132   2.147  24.347  0.00  0.00    +0.149 HD
BRANCH  17  19
ATOM      1  F   UNL     1       4.805  -2.413  24.047  0.00  0.00    -0.205 F 
ATOM     19  C   UNL     1       2.410   0.197  23.218  0.00  0.00    +0.039 A 
ATOM     21  C   UNL     1       2.928  -1.032  23.627  0.00  0.00    +0.051 A 
ATOM     22  C   UNL     1       3.273   1.226  22.838  0.00  0.00    +0.013 A 
ATOM     25  C   UNL     1       4.308  -1.233  23.655  0.00  0.00    +0.124 A 
ATOM     26  C   UNL     1       4.653   1.025  22.866  0.00  0.00    +0.004 A 
ATOM     30  C   UNL     1       5.171  -0.204  23.275  0.00  0.00    +0.038 A 
ENDBRANCH  17  19
ENDBRANCH  15   8
ENDBRANCH  13  15
TORSDOF 10
ENDMDL
MODEL 4
REMARK VINA RESULT:      -3.2      2.300      4.508
REMARK  Name = 40777878
REMARK  11 active torsions:
REMARK  status: ('A' for Active; 'I' for Inactive)
REMARK    1  A    between atoms: O_3  and  C_10
REMARK    2  A    between atoms: O_4  and  C_11
REMARK    3  A    between atoms: O_7  and  C_29
REMARK    4  A    between atoms: O_7  and  C_31
REMARK    5  A    between atoms: N_8  and  C_15
REMARK    6  A    between atoms: N_9  and  C_18
REMARK    7  A    between atoms: C_12  and  C_14
REMARK    8  A    between atoms: C_13  and  C_15
REMARK    9  A    between atoms: C_14  and  C_16
REMARK   10  A    between atoms: C_17  and  C_19
REMARK   11  A    between atoms: C_18  and  C_20
REMARK                            x       y       z     vdW  Elec       q    Type
REMARK                         _______ _______ _______ _____ _____    ______ ____
ROOT
ATOM      2  O   UNL     1      -1.939  -1.189  23.996  0.00  0.00    -0.366 OA
ATOM     10  C   UNL     1      -3.036  -1.220  26.082  0.00  0.00    +0.175 C 
ATOM     11  C   UNL     1      -3.810  -2.114  25.136  0.00  0.00    +0.176 C 
ATOM     12  C   UNL     1      -1.675  -1.170  25.410  0.00  0.00    +0.158 C 
ATOM     13  C   UNL     1      -3.286  -1.666  23.776  0.00  0.00    +0.167 C 
ENDROOT
BRANCH  10   3
ATOM      3  O   UNL     1      -2.960  -1.729  27.397  0.00  0.00    -0.387 OA
ATOM     32  H   UNL     1      -3.869  -1.827  27.725  0.00  0.00    +0.210 HD
ENDBRANCH  10   3
BRANCH  11   4
ATOM      4  O   UNL     1      -3.437  -3.479  25.328  0.00  0.00    -0.387 OA
ATOM     33  H   UNL     1      -4.256  -4.001  25.369  0.00  0.00    +0.210 HD
ENDBRANCH  11   4
BRANCH  12  14
ATOM     14  C   UNL     1      -0.872   0.068  25.764  0.00  0.00    +0.130 C 
BRANCH  14  16
ATOM      5  O   UNL     1       0.190   1.768  24.410  0.00  0.00    -0.276 OA
ATOM      9  N   UNL     1       0.407  -0.464  23.802  0.00  0.00    -0.311 N 
ATOM     16  C   UNL     1      -0.041   0.577  24.601  0.00  0.00    +0.216 C 
ATOM     35  H   UNL     1       0.163  -1.417  24.060  0.00  0.00    +0.149 HD
BRANCH   9  18
ATOM     18  C   UNL     1       1.218  -0.263  22.624  0.00  0.00    +0.139 C 
BRANCH  18  20
ATOM     20  C   UNL     1       2.683  -0.206  22.952  0.00  0.00    -0.030 A 
ATOM     23  C   UNL     1       3.305  -1.298  23.556  0.00  0.00    +0.009 A 
ATOM     24  C   UNL     1       3.420   0.939  22.652  0.00  0.00    +0.009 A 
ATOM     27  C   UNL     1       4.666  -1.245  23.860  0.00  0.00    +0.046 A 
ATOM     28  C   UNL     1       4.780   0.992  22.956  0.00  0.00    +0.046 A 
ATOM     29  C   UNL     1       5.403  -0.099  23.560  0.00  0.00    +0.120 A 
BRANCH  29   7
ATOM      7  O   UNL     1       6.731  -0.048  23.856  0.00  0.00    -0.495 OA
ATOM     31  C   UNL     1       7.634  -0.559  22.877  0.00  0.00    +0.277 C 
ENDBRANCH  29   7
ENDBRANCH  18  20
ENDBRANCH   9  18
ENDBRANCH  14  16
ENDBRANCH  12  14
BRANCH  13  15
ATOM     15  C   UNL     1      -4.092  -0.525  23.173  0.00  0.00    +0.138 C 
BRANCH  15   8
ATOM      6  O   UNL     1      -2.667   1.847  22.407  0.00  0.00    -0.270 OA
ATOM      8  N   UNL     1      -3.945   0.692  23.958  0.00  0.00    -0.309 N 
ATOM     17  C   UNL     1      -3.235   1.781  23.495  0.00  0.00    +0.244 C 
ATOM     34  H   UNL     1      -4.339   0.679  24.892  0.00  0.00    +0.149 HD
BRANCH  17  19
ATOM      1  F   UNL     1      -0.951   5.729  25.181  0.00  0.00    -0.205 F 
ATOM     19  C   UNL     1      -3.155   2.935  24.426  0.00  0.00    +0.039 A 
ATOM     21  C   UNL     1      -2.068   3.808  24.365  0.00  0.00    +0.051 A 
ATOM     22  C   UNL     1      -4.167   3.146  25.364  0.00  0.00    +0.013 A 
ATOM     25  C   UNL     1      -1.994   4.891  25.240  0.00  0.00    +0.124 A 
ATOM     26  C   UNL     1      -4.092   4.230  26.239  0.00  0.00    +0.004 A 
ATOM     30  C   UNL     1      -3.005   5.102  26.178  0.00  0.00    +0.038 A 
ENDBRANCH  17  19
ENDBRANCH  15   8
ENDBRANCH  13  15
TORSDOF 10
ENDMDL
MODEL 5
REMARK VINA RESULT:      -2.5      2.450      6.606
REMARK  Name = 40777878
REMARK  11 active torsions:
REMARK  status: ('A' for Active; 'I' for Inactive)
REMARK    1  A    between atoms: O_3  and  C_10
REMARK    2  A    between atoms: O_4  and  C_11
REMARK    3  A    between atoms: O_7  and  C_29
REMARK    4  A    between atoms: O_7  and  C_31
REMARK    5  A    between atoms: N_8  and  C_15
REMARK    6  A    between atoms: N_9  and  C_18
REMARK    7  A    between atoms: C_12  and  C_14
REMARK    8  A    between atoms: C_13  and  C_15
REMARK    9  A    between atoms: C_14  and  C_16
REMARK   10  A    between atoms: C_17  and  C_19
REMARK   11  A    between atoms: C_18  and  C_20
REMARK                            x       y       z     vdW  Elec       q    Type
REMARK                         _______ _______ _______ _____ _____    ______ ____
ROOT
ATOM      2  O   UNL     1      -2.861  -0.293  25.292  0.00  0.00    -0.366 OA
ATOM     10  C   UNL     1      -3.712  -1.797  23.688  0.00  0.00    +0.175 C 
ATOM     11  C   UNL     1      -2.290  -2.209  24.004  0.00  0.00    +0.176 C 
ATOM     12  C   UNL     1      -4.070  -0.975  24.913  0.00  0.00    +0.158 C 
ATOM     13  C   UNL     1      -1.735  -0.954  24.669  0.00  0.00    +0.167 C 
ENDROOT
BRANCH  10   3
ATOM      3  O   UNL     1      -4.586  -2.892  23.511  0.00  0.00    -0.387 OA
ATOM     32  H   UNL     1      -4.939  -3.127  24.385  0.00  0.00    +0.210 HD
ENDBRANCH  10   3
BRANCH  11   4
ATOM      4  O   UNL     1      -2.281  -3.263  24.967  0.00  0.00    -0.387 OA
ATOM     33  H   UNL     1      -1.363  -3.569  25.054  0.00  0.00    +0.210 HD
ENDBRANCH  11   4
BRANCH  12  14
ATOM     14  C   UNL     1      -5.171   0.040  24.659  0.00  0.00    +0.130 C 
BRANCH  14  16
ATOM      5  O   UNL     1      -5.298   2.105  25.912  0.00  0.00    -0.276 OA
ATOM      9  N   UNL     1      -3.710   1.897  24.228  0.00  0.00    -0.311 N 
ATOM     16  C   UNL     1      -4.757   1.453  25.022  0.00  0.00    +0.216 C 
ATOM     35  H   UNL     1      -3.329   1.268  23.525  0.00  0.00    +0.149 HD
BRANCH   9  18
ATOM     18  C   UNL     1      -3.120   3.209  24.359  0.00  0.00    +0.139 C 
BRANCH  18  20
ATOM     20  C   UNL     1      -1.847   3.177  25.154  0.00  0.00    -0.030 A 
ATOM     23  C   UNL     1      -0.653   3.610  24.577  0.00  0.00    +0.009 A 
ATOM     24  C   UNL     1      -1.858   2.715  26.470  0.00  0.00    +0.009 A 
ATOM     27  C   UNL     1       0.530   3.581  25.316  0.00  0.00    +0.046 A 
ATOM     28  C   UNL     1      -0.675   2.686  27.208  0.00  0.00    +0.046 A 
ATOM     29  C   UNL     1       0.518   3.118  26.631  0.00  0.00    +0.120 A 
BRANCH  29   7
ATOM      7  O   UNL     1       1.673   3.090  27.352  0.00  0.00    -0.495 OA
ATOM     31  C   UNL     1       1.579   2.669  28.712  0.00  0.00    +0.277 C 
ENDBRANCH  29   7
ENDBRANCH  18  20
ENDBRANCH   9  18
ENDBRANCH  14  16
ENDBRANCH  12  14
BRANCH  13  15
ATOM     15  C   UNL     1      -1.112   0.020  23.680  0.00  0.00    +0.138 C 
BRANCH  15   8
ATOM      6  O   UNL     1       0.796  -0.368  21.569  0.00  0.00    -0.270 OA
ATOM      8  N   UNL     1       0.338   0.037  23.805  0.00  0.00    -0.309 N 
ATOM     17  C   UNL     1       1.170  -0.162  22.721  0.00  0.00    +0.244 C 
ATOM     34  H   UNL     1       0.711   0.141  24.743  0.00  0.00    +0.149 HD
BRANCH  17  19
ATOM      1  F   UNL     1       5.219  -2.362  24.273  0.00  0.00    -0.205 F 
ATOM     19  C   UNL     1       2.625  -0.142  23.020  0.00  0.00    +0.039 A 
ATOM     21  C   UNL     1       3.251  -1.284  23.516  0.00  0.00    +0.051 A 
ATOM     22  C   UNL     1       3.364   1.022  22.804  0.00  0.00    +0.013 A 
ATOM     25  C   UNL     1       4.618  -1.265  23.797  0.00  0.00    +0.124 A 
ATOM     26  C   UNL     1       4.731   1.042  23.085  0.00  0.00    +0.004 A 
ATOM     30  C   UNL     1       5.357  -0.101  23.582  0.00  0.00    +0.038 A 
ENDBRANCH  17  19
ENDBRANCH  15   8
ENDBRANCH  13  15
TORSDOF 10
ENDMDL
MODEL 6
REMARK VINA RESULT:      -1.2      3.250      6.223
REMARK  Name = 40777878
REMARK  11 active torsions:
REMARK  status: ('A' for Active; 'I' for Inactive)
REMARK    1  A    between atoms: O_3  and  C_10
REMARK    2  A    between atoms: O_4  and  C_11
REMARK    3  A    between atoms: O_7  and  C_29
REMARK    4  A    between atoms: O_7  and  C_31
REMARK    5  A    between atoms: N_8  and  C_15
REMARK    6  A    between atoms: N_9  and  C_18
REMARK    7  A    between atoms: C_12  and  C_14
REMARK    8  A    between atoms: C_13  and  C_15
REMARK    9  A    between atoms: C_14  and  C_16
REMARK   10  A    between atoms: C_17  and  C_19
REMARK   11  A    between atoms: C_18  and  C_20
REMARK                            x       y       z     vdW  Elec       q    Type
REMARK                         _______ _______ _______ _____ _____    ______ ____
ROOT
ATOM      2  O   UNL     1      -2.071  -2.867  24.367  0.00  0.00    -0.366 OA
ATOM     10  C   UNL     1      -1.617  -0.991  25.720  0.00  0.00    +0.175 C 
ATOM     11  C   UNL     1      -3.057  -1.397  25.955  0.00  0.00    +0.176 C 
ATOM     12  C   UNL     1      -1.027  -2.273  25.159  0.00  0.00    +0.158 C 
ATOM     13  C   UNL     1      -3.338  -2.283  24.746  0.00  0.00    +0.167 C 
ENDROOT
BRANCH  10   3
ATOM      3  O   UNL     1      -0.956  -0.573  26.895  0.00  0.00    -0.387 OA
ATOM     32  H   UNL     1      -0.057  -0.943  26.872  0.00  0.00    +0.210 HD
ENDBRANCH  10   3
BRANCH  11   4
ATOM      4  O   UNL     1      -3.161  -2.201  27.129  0.00  0.00    -0.387 OA
ATOM     33  H   UNL     1      -4.107  -2.306  27.326  0.00  0.00    +0.210 HD
ENDBRANCH  11   4
BRANCH  12  14
ATOM     14  C   UNL     1       0.201  -2.045  24.297  0.00  0.00    +0.130 C 
BRANCH  14  16
ATOM      5  O   UNL     1      -0.426  -0.483  22.560  0.00  0.00    -0.276 OA
ATOM      9  N   UNL     1       0.940   0.241  24.295  0.00  0.00    -0.311 N 
ATOM     16  C   UNL     1       0.186  -0.695  23.604  0.00  0.00    +0.216 C 
ATOM     35  H   UNL     1       1.398  -0.042  25.158  0.00  0.00    +0.149 HD
BRANCH   9  18
ATOM     18  C   UNL     1       1.098   1.607  23.856  0.00  0.00    +0.139 C 
BRANCH  18  20
ATOM     20  C   UNL     1       0.120   2.530  24.524  0.00  0.00    -0.030 A 
ATOM     23  C   UNL     1      -0.071   3.821  24.031  0.00  0.00    +0.009 A 
ATOM     24  C   UNL     1      -0.599   2.096  25.638  0.00  0.00    +0.009 A 
ATOM     27  C   UNL     1      -0.980   4.678  24.652  0.00  0.00    +0.046 A 
ATOM     28  C   UNL     1      -1.508   2.952  26.258  0.00  0.00    +0.046 A 
ATOM     29  C   UNL     1      -1.698   4.243  25.766  0.00  0.00    +0.120 A 
BRANCH  29   7
ATOM      7  O   UNL     1      -2.586   5.079  26.371  0.00  0.00    -0.495 OA
ATOM     31  C   UNL     1      -3.336   4.549  27.463  0.00  0.00    +0.277 C 
ENDBRANCH  29   7
ENDBRANCH  18  20
ENDBRANCH   9  18
ENDBRANCH  14  16
ENDBRANCH  12  14
BRANCH  13  15
ATOM     15  C   UNL     1      -3.871  -1.509  23.549  0.00  0.00    +0.138 C 
BRANCH  15   8
ATOM      6  O   UNL     1      -2.668   1.053  23.069  0.00  0.00    -0.270 OA
ATOM      8  N   UNL     1      -4.395  -0.213  23.955  0.00  0.00    -0.309 N 
ATOM     17  C   UNL     1      -3.734   0.966  23.673  0.00  0.00    +0.244 C 
ATOM     34  H   UNL     1      -5.243  -0.221  24.512  0.00  0.00    +0.149 HD
BRANCH  17  19
ATOM      1  F   UNL     1      -4.410   5.779  23.523  0.00  0.00    -0.205 F 
ATOM     19  C   UNL     1      -4.386   2.201  24.178  0.00  0.00    +0.039 A 
ATOM     21  C   UNL     1      -4.086   3.435  23.601  0.00  0.00    +0.051 A 
ATOM     22  C   UNL     1      -5.299   2.127  25.231  0.00  0.00    +0.013 A 
ATOM     25  C   UNL     1      -4.698   4.594  24.077  0.00  0.00    +0.124 A 
ATOM     26  C   UNL     1      -5.911   3.287  25.707  0.00  0.00    +0.004 A 
ATOM     30  C   UNL     1      -5.610   4.521  25.130  0.00  0.00    +0.038 A 
ENDBRANCH  17  19
ENDBRANCH  15   8
ENDBRANCH  13  15
TORSDOF 10
ENDMDL
MODEL 7
REMARK VINA RESULT:      -1.1      2.485      5.586
REMARK  Name = 40777878
REMARK  11 active torsions:
REMARK  status: ('A' for Active; 'I' for Inactive)
REMARK    1  A    between atoms: O_3  and  C_10
REMARK    2  A    between atoms: O_4  and  C_11
REMARK    3  A    between atoms: O_7  and  C_29
REMARK    4  A    between atoms: O_7  and  C_31
REMARK    5  A    between atoms: N_8  and  C_15
REMARK    6  A    between atoms: N_9  and  C_18
REMARK    7  A    between atoms: C_12  and  C_14
REMARK    8  A    between atoms: C_13  and  C_15
REMARK    9  A    between atoms: C_14  and  C_16
REMARK   10  A    between atoms: C_17  and  C_19
REMARK   11  A    between atoms: C_18  and  C_20
REMARK                            x       y       z     vdW  Elec       q    Type
REMARK                         _______ _______ _______ _____ _____    ______ ____
ROOT
ATOM      2  O   UNL     1      -2.309   4.048  24.660  0.00  0.00    -0.366 OA
ATOM     10  C   UNL     1      -4.492   3.750  25.500  0.00  0.00    +0.175 C 
ATOM     11  C   UNL     1      -3.645   4.349  26.604  0.00  0.00    +0.176 C 
ATOM     12  C   UNL     1      -3.691   4.124  24.265  0.00  0.00    +0.158 C 
ATOM     13  C   UNL     1      -2.231   4.077  26.104  0.00  0.00    +0.167 C 
ENDROOT
BRANCH  10   3
ATOM      3  O   UNL     1      -5.804   4.268  25.458  0.00  0.00    -0.387 OA
ATOM     32  H   UNL     1      -6.411   3.543  25.686  0.00  0.00    +0.210 HD
ENDBRANCH  10   3
BRANCH  11   4
ATOM      4  O   UNL     1      -3.833   5.763  26.660  0.00  0.00    -0.387 OA
ATOM     33  H   UNL     1      -4.269   6.031  25.834  0.00  0.00    +0.210 HD
ENDBRANCH  11   4
BRANCH  12  14
ATOM     14  C   UNL     1      -3.936   3.202  23.085  0.00  0.00    +0.130 C 
BRANCH  14  16
ATOM      5  O   UNL     1      -3.309   0.867  23.033  0.00  0.00    -0.276 OA
ATOM      9  N   UNL     1      -5.035   1.546  24.434  0.00  0.00    -0.311 N 
ATOM     16  C   UNL     1      -4.035   1.744  23.493  0.00  0.00    +0.216 C 
ATOM     35  H   UNL     1      -5.570   2.349  24.754  0.00  0.00    +0.149 HD
BRANCH   9  18
ATOM     18  C   UNL     1      -5.345   0.252  24.994  0.00  0.00    +0.139 C 
BRANCH  18  20
ATOM     20  C   UNL     1      -4.142  -0.646  25.039  0.00  0.00    -0.030 A 
ATOM     23  C   UNL     1      -4.039  -1.721  24.156  0.00  0.00    +0.009 A 
ATOM     24  C   UNL     1      -3.125  -0.402  25.962  0.00  0.00    +0.009 A 
ATOM     27  C   UNL     1      -2.921  -2.554  24.198  0.00  0.00    +0.046 A 
ATOM     28  C   UNL     1      -2.007  -1.235  26.003  0.00  0.00    +0.046 A 
ATOM     29  C   UNL     1      -1.905  -2.310  25.122  0.00  0.00    +0.120 A 
BRANCH  29   7
ATOM      7  O   UNL     1      -0.813  -3.123  25.162  0.00  0.00    -0.495 OA
ATOM     31  C   UNL     1       0.442  -2.509  25.451  0.00  0.00    +0.277 C 
ENDBRANCH  29   7
ENDBRANCH  18  20
ENDBRANCH   9  18
ENDBRANCH  14  16
ENDBRANCH  12  14
BRANCH  13  15
ATOM     15  C   UNL     1      -1.682   2.736  26.568  0.00  0.00    +0.138 C 
BRANCH  15   8
ATOM      6  O   UNL     1       1.132   2.422  26.092  0.00  0.00    -0.270 OA
ATOM      8  N   UNL     1      -1.061   2.015  25.466  0.00  0.00    -0.309 N 
ATOM     17  C   UNL     1       0.309   1.924  25.329  0.00  0.00    +0.244 C 
ATOM     34  H   UNL     1      -1.687   1.632  24.765  0.00  0.00    +0.149 HD
BRANCH  17  19
ATOM      1  F   UNL     1       3.784   0.828  22.108  0.00  0.00    -0.205 F 
ATOM     19  C   UNL     1       0.784   1.176  24.137  0.00  0.00    +0.039 A 
ATOM     21  C   UNL     1       2.087   1.357  23.673  0.00  0.00    +0.051 A 
ATOM     22  C   UNL     1      -0.074   0.294  23.479  0.00  0.00    +0.013 A 
ATOM     25  C   UNL     1       2.532   0.655  22.553  0.00  0.00    +0.124 A 
ATOM     26  C   UNL     1       0.371  -0.408  22.359  0.00  0.00    +0.004 A 
ATOM     30  C   UNL     1       1.674  -0.227  21.895  0.00  0.00    +0.038 A 
ENDBRANCH  17  19
ENDBRANCH  15   8
ENDBRANCH  13  15
TORSDOF 10
ENDMDL
MODEL 8
REMARK VINA RESULT:      -1.1      1.870      3.021
REMARK  Name = 40777878
REMARK  11 active torsions:
REMARK  status: ('A' for Active; 'I' for Inactive)
REMARK    1  A    between atoms: O_3  and  C_10
REMARK    2  A    between atoms: O_4  and  C_11
REMARK    3  A    between atoms: O_7  and  C_29
REMARK    4  A    between atoms: O_7  and  C_31
REMARK    5  A    between atoms: N_8  and  C_15
REMARK    6  A    between atoms: N_9  and  C_18
REMARK    7  A    between atoms: C_12  and  C_14
REMARK    8  A    between atoms: C_13  and  C_15
REMARK    9  A    between atoms: C_14  and  C_16
REMARK   10  A    between atoms: C_17  and  C_19
REMARK   11  A    between atoms: C_18  and  C_20
REMARK                            x       y       z     vdW  Elec       q    Type
REMARK                         _______ _______ _______ _____ _____    ______ ____
ROOT
ATOM      2  O   UNL     1      -1.300   3.159  24.072  0.00  0.00    -0.366 OA
ATOM     10  C   UNL     1      -3.231   3.846  25.237  0.00  0.00    +0.175 C 
ATOM     11  C   UNL     1      -2.025   4.380  25.980  0.00  0.00    +0.176 C 
ATOM     12  C   UNL     1      -2.653   3.599  23.855  0.00  0.00    +0.158 C 
ATOM     13  C   UNL     1      -0.897   3.525  25.412  0.00  0.00    +0.167 C 
ENDROOT
BRANCH  10   3
ATOM      3  O   UNL     1      -4.314   4.751  25.205  0.00  0.00    -0.387 OA
ATOM     32  H   UNL     1      -3.943   5.649  25.180  0.00  0.00    +0.210 HD
ENDBRANCH  10   3
BRANCH  11   4
ATOM      4  O   UNL     1      -1.779   5.738  25.616  0.00  0.00    -0.387 OA
ATOM     33  H   UNL     1      -0.846   5.804  25.350  0.00  0.00    +0.210 HD
ENDBRANCH  11   4
BRANCH  12  14
ATOM     14  C   UNL     1      -3.411   2.549  23.063  0.00  0.00    +0.130 C 
BRANCH  14  16
ATOM      5  O   UNL     1      -2.429   2.023  20.915  0.00  0.00    -0.276 OA
ATOM      9  N   UNL     1      -1.825   0.768  22.776  0.00  0.00    -0.311 N 
ATOM     16  C   UNL     1      -2.515   1.774  22.115  0.00  0.00    +0.216 C 
ATOM     35  H   UNL     1      -1.964   0.656  23.777  0.00  0.00    +0.149 HD
BRANCH   9  18
ATOM     18  C   UNL     1      -0.903  -0.124  22.112  0.00  0.00    +0.139 C 
BRANCH  18  20
ATOM     20  C   UNL     1       0.527   0.203  22.433  0.00  0.00    -0.030 A 
ATOM     23  C   UNL     1       0.824   1.100  23.459  0.00  0.00    +0.009 A 
ATOM     24  C   UNL     1       1.558  -0.392  21.707  0.00  0.00    +0.009 A 
ATOM     27  C   UNL     1       2.152   1.403  23.758  0.00  0.00    +0.046 A 
ATOM     28  C   UNL     1       2.886  -0.089  22.007  0.00  0.00    +0.046 A 
ATOM     29  C   UNL     1       3.183   0.808  23.031  0.00  0.00    +0.120 A 
BRANCH  29   7
ATOM      7  O   UNL     1       4.480   1.104  23.324  0.00  0.00    -0.495 OA
ATOM     31  C   UNL     1       5.373   0.005  23.498  0.00  0.00    +0.277 C 
ENDBRANCH  29   7
ENDBRANCH  18  20
ENDBRANCH   9  18
ENDBRANCH  14  16
ENDBRANCH  12  14
BRANCH  13  15
ATOM     15  C   UNL     1      -0.669   2.241  26.197  0.00  0.00    +0.138 C 
BRANCH  15   8
ATOM      6  O   UNL     1      -0.609  -0.498  27.054  0.00  0.00    -0.270 OA
ATOM      8  N   UNL     1      -1.398   1.129  25.604  0.00  0.00    -0.309 N 
ATOM     17  C   UNL     1      -1.298  -0.157  26.096  0.00  0.00    +0.244 C 
ATOM     34  H   UNL     1      -1.937   1.334  24.770  0.00  0.00    +0.149 HD
BRANCH  17  19
ATOM      1  F   UNL     1      -5.411  -1.638  23.967  0.00  0.00    -0.205 F 
ATOM     19  C   UNL     1      -2.084  -1.183  25.365  0.00  0.00    +0.039 A 
ATOM     21  C   UNL     1      -3.405  -0.923  25.002  0.00  0.00    +0.051 A 
ATOM     22  C   UNL     1      -1.500  -2.409  25.041  0.00  0.00    +0.013 A 
ATOM     25  C   UNL     1      -4.143  -1.888  24.316  0.00  0.00    +0.124 A 
ATOM     26  C   UNL     1      -2.237  -3.374  24.355  0.00  0.00    +0.004 A 
ATOM     30  C   UNL     1      -3.559  -3.114  23.992  0.00  0.00    +0.038 A 
ENDBRANCH  17  19
ENDBRANCH  15   8
ENDBRANCH  13  15
TORSDOF 10
ENDMDL
