MODEL 1
REMARK VINA RESULT:      -5.7      0.000      0.000
REMARK  Name = 75536622
REMARK  9 active torsions:
REMARK  status: ('A' for Active; 'I' for Inactive)
REMARK    1  A    between atoms: O_2  and  C_8
REMARK    2  A    between atoms: O_4  and  C_20
REMARK    3  A    between atoms: O_4  and  C_26
REMARK    4  A    between atoms: N_5  and  C_7
REMARK    5  A    between atoms: N_5  and  C_12
REMARK    6  A    between atoms: N_6  and  C_11
REMARK    7  A    between atoms: C_9  and  C_11
REMARK    8  A    between atoms: C_12  and  C_13
REMARK    9  A    between atoms: C_14  and  C_17
REMARK                            x       y       z     vdW  Elec       q    Type
REMARK                         _______ _______ _______ _____ _____    ______ ____
ROOT
ATOM      1  O   UNL     1      -1.897  -0.594  25.841  0.00  0.00    -0.371 OA
ATOM      7  C   UNL     1      -3.756  -1.545  24.727  0.00  0.00    +0.111 C 
ATOM      8  C   UNL     1      -2.496  -2.140  24.125  0.00  0.00    +0.164 C 
ATOM      9  C   UNL     1      -1.351  -1.328  24.730  0.00  0.00    +0.165 C 
ATOM     10  C   UNL     1      -3.246  -1.021  26.060  0.00  0.00    +0.181 C 
ENDROOT
BRANCH   8   2
ATOM      2  O   UNL     1      -2.396  -3.494  24.575  0.00  0.00    -0.388 OA
ATOM     28  H   UNL     1      -3.288  -3.778  24.838  0.00  0.00    +0.210 HD
ENDBRANCH   8   2
BRANCH   7   5
ATOM      5  N   UNL     1      -4.282  -0.455  23.909  0.00  0.00    -0.305 NA
ATOM     27  H   UNL     1      -3.509   0.005  23.427  0.00  0.00    +0.123 HD
BRANCH   5  12
ATOM     12  C   UNL     1      -4.968   0.534  24.732  0.00  0.00    +0.116 C 
BRANCH  12  13
ATOM     13  C   UNL     1      -4.165   1.800  24.875  0.00  0.00    -0.033 A 
ATOM     15  C   UNL     1      -4.541   2.762  25.813  0.00  0.00    +0.008 A 
ATOM     16  C   UNL     1      -3.044   2.009  24.073  0.00  0.00    +0.008 A 
ATOM     18  C   UNL     1      -3.795   3.932  25.948  0.00  0.00    +0.046 A 
ATOM     19  C   UNL     1      -2.298   3.179  24.207  0.00  0.00    +0.046 A 
ATOM     20  C   UNL     1      -2.674   4.141  25.144  0.00  0.00    +0.120 A 
BRANCH  20   4
ATOM      4  O   UNL     1      -1.945   5.283  25.276  0.00  0.00    -0.495 OA
ATOM     26  C   UNL     1      -0.617   5.270  24.755  0.00  0.00    +0.277 C 
ENDBRANCH  20   4
ENDBRANCH  12  13
ENDBRANCH   5  12
ENDBRANCH   7   5
BRANCH   9  11
ATOM     11  C   UNL     1      -0.733  -0.334  23.758  0.00  0.00    +0.138 C 
BRANCH  11   6
ATOM      3  O   UNL     1       1.200  -0.319  21.635  0.00  0.00    -0.270 OA
ATOM      6  N   UNL     1       0.694  -0.285  23.899  0.00  0.00    -0.309 N 
ATOM     14  C   UNL     1       1.559  -0.281  22.809  0.00  0.00    +0.244 C 
ATOM     29  H   UNL     1       1.059  -0.335  24.844  0.00  0.00    +0.149 HD
BRANCH  14  17
ATOM     17  C   UNL     1       3.011  -0.253  23.124  0.00  0.00    +0.037 A 
ATOM     21  C   UNL     1       3.761   0.891  22.854  0.00  0.00    +0.013 A 
ATOM     22  C   UNL     1       3.623  -1.371  23.690  0.00  0.00    +0.013 A 
ATOM     23  C   UNL     1       5.123   0.918  23.152  0.00  0.00    +0.001 A 
ATOM     24  C   UNL     1       4.985  -1.345  23.988  0.00  0.00    +0.001 A 
ATOM     25  C   UNL     1       5.736  -0.200  23.718  0.00  0.00    +0.000 A 
ENDBRANCH  14  17
ENDBRANCH  11   6
ENDBRANCH   9  11
TORSDOF 8
ENDMDL
MODEL 2
REMARK VINA RESULT:      -5.0      2.332      5.850
REMARK  Name = 75536622
REMARK  9 active torsions:
REMARK  status: ('A' for Active; 'I' for Inactive)
REMARK    1  A    between atoms: O_2  and  C_8
REMARK    2  A    between atoms: O_4  and  C_20
REMARK    3  A    between atoms: O_4  and  C_26
REMARK    4  A    between atoms: N_5  and  C_7
REMARK    5  A    between atoms: N_5  and  C_12
REMARK    6  A    between atoms: N_6  and  C_11
REMARK    7  A    between atoms: C_9  and  C_11
REMARK    8  A    between atoms: C_12  and  C_13
REMARK    9  A    between atoms: C_14  and  C_17
REMARK                            x       y       z     vdW  Elec       q    Type
REMARK                         _______ _______ _______ _____ _____    ______ ____
ROOT
ATOM      1  O   UNL     1      -4.690   2.725  26.835  0.00  0.00    -0.371 OA
ATOM      7  C   UNL     1      -4.293   4.577  25.415  0.00  0.00    +0.111 C 
ATOM      8  C   UNL     1      -5.699   4.073  25.142  0.00  0.00    +0.164 C 
ATOM      9  C   UNL     1      -5.802   2.762  25.921  0.00  0.00    +0.165 C 
ATOM     10  C   UNL     1      -4.010   3.985  26.786  0.00  0.00    +0.181 C 
ENDROOT
BRANCH   8   2
ATOM      2  O   UNL     1      -6.616   5.019  25.697  0.00  0.00    -0.388 OA
ATOM     28  H   UNL     1      -6.392   5.890  25.327  0.00  0.00    +0.210 HD
ENDBRANCH   8   2
BRANCH   7   5
ATOM      5  N   UNL     1      -3.339   4.076  24.428  0.00  0.00    -0.305 NA
ATOM     27  H   UNL     1      -3.617   3.138  24.140  0.00  0.00    +0.123 HD
BRANCH   5  12
ATOM     12  C   UNL     1      -1.994   4.009  24.986  0.00  0.00    +0.116 C 
BRANCH  12  13
ATOM     13  C   UNL     1      -1.200   2.870  24.401  0.00  0.00    -0.033 A 
ATOM     15  C   UNL     1      -1.745   2.092  23.380  0.00  0.00    +0.008 A 
ATOM     16  C   UNL     1       0.081   2.596  24.879  0.00  0.00    +0.008 A 
ATOM     18  C   UNL     1      -1.009   1.040  22.836  0.00  0.00    +0.046 A 
ATOM     19  C   UNL     1       0.818   1.544  24.336  0.00  0.00    +0.046 A 
ATOM     20  C   UNL     1       0.272   0.766  23.315  0.00  0.00    +0.120 A 
BRANCH  20   4
ATOM      4  O   UNL     1       0.992  -0.260  22.783  0.00  0.00    -0.495 OA
ATOM     26  C   UNL     1       2.354   0.007  22.449  0.00  0.00    +0.277 C 
ENDBRANCH  20   4
ENDBRANCH  12  13
ENDBRANCH   5  12
ENDBRANCH   7   5
BRANCH   9  11
ATOM     11  C   UNL     1      -5.737   1.524  25.039  0.00  0.00    +0.138 C 
BRANCH  11   6
ATOM      3  O   UNL     1      -5.094  -1.105  24.081  0.00  0.00    -0.270 OA
ATOM      6  N   UNL     1      -4.485   0.840  25.190  0.00  0.00    -0.309 N 
ATOM     14  C   UNL     1      -4.261  -0.440  24.691  0.00  0.00    +0.244 C 
ATOM     29  H   UNL     1      -3.781   1.301  25.756  0.00  0.00    +0.149 HD
BRANCH  14  17
ATOM     17  C   UNL     1      -2.918  -1.020  24.953  0.00  0.00    +0.037 A 
ATOM     21  C   UNL     1      -2.095  -0.457  25.928  0.00  0.00    +0.013 A 
ATOM     22  C   UNL     1      -2.483  -2.127  24.226  0.00  0.00    +0.013 A 
ATOM     23  C   UNL     1      -0.835  -1.003  26.177  0.00  0.00    +0.001 A 
ATOM     24  C   UNL     1      -1.224  -2.673  24.473  0.00  0.00    +0.001 A 
ATOM     25  C   UNL     1      -0.399  -2.110  25.449  0.00  0.00    +0.000 A 
ENDBRANCH  14  17
ENDBRANCH  11   6
ENDBRANCH   9  11
TORSDOF 8
ENDMDL
MODEL 3
REMARK VINA RESULT:      -4.9      2.116      6.903
REMARK  Name = 75536622
REMARK  9 active torsions:
REMARK  status: ('A' for Active; 'I' for Inactive)
REMARK    1  A    between atoms: O_2  and  C_8
REMARK    2  A    between atoms: O_4  and  C_20
REMARK    3  A    between atoms: O_4  and  C_26
REMARK    4  A    between atoms: N_5  and  C_7
REMARK    5  A    between atoms: N_5  and  C_12
REMARK    6  A    between atoms: N_6  and  C_11
REMARK    7  A    between atoms: C_9  and  C_11
REMARK    8  A    between atoms: C_12  and  C_13
REMARK    9  A    between atoms: C_14  and  C_17
REMARK                            x       y       z     vdW  Elec       q    Type
REMARK                         _______ _______ _______ _____ _____    ______ ____
ROOT
ATOM      1  O   UNL     1      -2.885   3.712  26.416  0.00  0.00    -0.371 OA
ATOM      7  C   UNL     1      -0.830   2.920  25.547  0.00  0.00    +0.111 C 
ATOM      8  C   UNL     1      -1.427   3.878  24.533  0.00  0.00    +0.164 C 
ATOM      9  C   UNL     1      -2.834   4.172  25.053  0.00  0.00    +0.165 C 
ATOM     10  C   UNL     1      -1.570   3.310  26.817  0.00  0.00    +0.181 C 
ENDROOT
BRANCH   8   2
ATOM      2  O   UNL     1      -0.657   5.083  24.565  0.00  0.00    -0.388 OA
ATOM     28  H   UNL     1       0.209   4.883  24.169  0.00  0.00    +0.210 HD
ENDBRANCH   8   2
BRANCH   7   5
ATOM      5  N   UNL     1      -1.100   1.527  25.197  0.00  0.00    -0.305 NA
ATOM     27  H   UNL     1      -0.451   0.923  25.700  0.00  0.00    +0.123 HD
BRANCH   5  12
ATOM     12  C   UNL     1      -0.928   1.303  23.767  0.00  0.00    +0.116 C 
BRANCH  12  13
ATOM     13  C   UNL     1       0.504   0.992  23.417  0.00  0.00    -0.033 A 
ATOM     15  C   UNL     1       0.844  -0.270  22.930  0.00  0.00    +0.008 A 
ATOM     16  C   UNL     1       1.488   1.967  23.576  0.00  0.00    +0.008 A 
ATOM     18  C   UNL     1       2.169  -0.556  22.602  0.00  0.00    +0.046 A 
ATOM     19  C   UNL     1       2.813   1.682  23.248  0.00  0.00    +0.046 A 
ATOM     20  C   UNL     1       3.153   0.419  22.762  0.00  0.00    +0.120 A 
BRANCH  20   4
ATOM      4  O   UNL     1       4.446   0.141  22.441  0.00  0.00    -0.495 OA
ATOM     26  C   UNL     1       5.386   0.091  23.514  0.00  0.00    +0.277 C 
ENDBRANCH  20   4
ENDBRANCH  12  13
ENDBRANCH   5  12
ENDBRANCH   7   5
BRANCH   9  11
ATOM     11  C   UNL     1      -3.931   3.466  24.269  0.00  0.00    +0.138 C 
BRANCH  11   6
ATOM      3  O   UNL     1      -5.491   1.509  25.675  0.00  0.00    -0.270 OA
ATOM      6  N   UNL     1      -3.734   2.046  24.259  0.00  0.00    -0.309 N 
ATOM     14  C   UNL     1      -4.543   1.168  24.974  0.00  0.00    +0.244 C 
ATOM     29  H   UNL     1      -2.917   1.704  23.764  0.00  0.00    +0.149 HD
BRANCH  14  17
ATOM     17  C   UNL     1      -4.191  -0.273  24.879  0.00  0.00    +0.037 A 
ATOM     21  C   UNL     1      -4.515  -0.995  23.731  0.00  0.00    +0.013 A 
ATOM     22  C   UNL     1      -3.537  -0.902  25.938  0.00  0.00    +0.013 A 
ATOM     23  C   UNL     1      -4.183  -2.347  23.640  0.00  0.00    +0.001 A 
ATOM     24  C   UNL     1      -3.205  -2.254  25.848  0.00  0.00    +0.001 A 
ATOM     25  C   UNL     1      -3.528  -2.976  24.699  0.00  0.00    +0.000 A 
ENDBRANCH  14  17
ENDBRANCH  11   6
ENDBRANCH   9  11
TORSDOF 8
ENDMDL
MODEL 4
REMARK VINA RESULT:      -4.4      1.602      4.274
REMARK  Name = 75536622
REMARK  9 active torsions:
REMARK  status: ('A' for Active; 'I' for Inactive)
REMARK    1  A    between atoms: O_2  and  C_8
REMARK    2  A    between atoms: O_4  and  C_20
REMARK    3  A    between atoms: O_4  and  C_26
REMARK    4  A    between atoms: N_5  and  C_7
REMARK    5  A    between atoms: N_5  and  C_12
REMARK    6  A    between atoms: N_6  and  C_11
REMARK    7  A    between atoms: C_9  and  C_11
REMARK    8  A    between atoms: C_12  and  C_13
REMARK    9  A    between atoms: C_14  and  C_17
REMARK                            x       y       z     vdW  Elec       q    Type
REMARK                         _______ _______ _______ _____ _____    ______ ____
ROOT
ATOM      1  O   UNL     1      -0.274   4.538  24.542  0.00  0.00    -0.371 OA
ATOM      7  C   UNL     1      -2.496   4.247  25.304  0.00  0.00    +0.111 C 
ATOM      8  C   UNL     1      -1.678   3.063  25.786  0.00  0.00    +0.164 C 
ATOM      9  C   UNL     1      -0.330   3.204  25.080  0.00  0.00    +0.165 C 
ATOM     10  C   UNL     1      -1.413   5.272  25.005  0.00  0.00    +0.181 C 
ENDROOT
BRANCH   8   2
ATOM      2  O   UNL     1      -1.485   3.212  27.196  0.00  0.00    -0.388 OA
ATOM     28  H   UNL     1      -1.082   2.389  27.521  0.00  0.00    +0.210 HD
ENDBRANCH   8   2
BRANCH   7   5
ATOM      5  N   UNL     1      -3.251   3.924  24.096  0.00  0.00    -0.305 NA
ATOM     27  H   UNL     1      -3.553   4.790  23.648  0.00  0.00    +0.123 HD
BRANCH   5  12
ATOM     12  C   UNL     1      -4.433   3.131  24.412  0.00  0.00    +0.116 C 
BRANCH  12  13
ATOM     13  C   UNL     1      -4.142   1.654  24.382  0.00  0.00    -0.033 A 
ATOM     15  C   UNL     1      -3.428   1.105  23.316  0.00  0.00    +0.008 A 
ATOM     16  C   UNL     1      -4.583   0.835  25.421  0.00  0.00    +0.008 A 
ATOM     18  C   UNL     1      -3.156  -0.262  23.290  0.00  0.00    +0.046 A 
ATOM     19  C   UNL     1      -4.311  -0.532  25.396  0.00  0.00    +0.046 A 
ATOM     20  C   UNL     1      -3.598  -1.081  24.329  0.00  0.00    +0.120 A 
BRANCH  20   4
ATOM      4  O   UNL     1      -3.331  -2.416  24.305  0.00  0.00    -0.495 OA
ATOM     26  C   UNL     1      -1.967  -2.808  24.454  0.00  0.00    +0.277 C 
ENDBRANCH  20   4
ENDBRANCH  12  13
ENDBRANCH   5  12
ENDBRANCH   7   5
BRANCH   9  11
ATOM     11  C   UNL     1      -0.136   2.219  23.937  0.00  0.00    +0.138 C 
BRANCH  11   6
ATOM      3  O   UNL     1       0.771  -0.110  22.525  0.00  0.00    -0.270 OA
ATOM      6  N   UNL     1       1.198   1.694  23.920  0.00  0.00    -0.309 N 
ATOM     14  C   UNL     1       1.550   0.554  23.204  0.00  0.00    +0.244 C 
ATOM     29  H   UNL     1       1.873   2.148  24.526  0.00  0.00    +0.149 HD
BRANCH  14  17
ATOM     17  C   UNL     1       2.969   0.125  23.310  0.00  0.00    +0.037 A 
ATOM     21  C   UNL     1       3.993   1.029  23.030  0.00  0.00    +0.013 A 
ATOM     22  C   UNL     1       3.276  -1.181  23.690  0.00  0.00    +0.013 A 
ATOM     23  C   UNL     1       5.325   0.627  23.131  0.00  0.00    +0.001 A 
ATOM     24  C   UNL     1       4.607  -1.583  23.792  0.00  0.00    +0.001 A 
ATOM     25  C   UNL     1       5.632  -0.679  23.512  0.00  0.00    +0.000 A 
ENDBRANCH  14  17
ENDBRANCH  11   6
ENDBRANCH   9  11
TORSDOF 8
ENDMDL
MODEL 5
REMARK VINA RESULT:      -4.0      1.440      4.493
REMARK  Name = 75536622
REMARK  9 active torsions:
REMARK  status: ('A' for Active; 'I' for Inactive)
REMARK    1  A    between atoms: O_2  and  C_8
REMARK    2  A    between atoms: O_4  and  C_20
REMARK    3  A    between atoms: O_4  and  C_26
REMARK    4  A    between atoms: N_5  and  C_7
REMARK    5  A    between atoms: N_5  and  C_12
REMARK    6  A    between atoms: N_6  and  C_11
REMARK    7  A    between atoms: C_9  and  C_11
REMARK    8  A    between atoms: C_12  and  C_13
REMARK    9  A    between atoms: C_14  and  C_17
REMARK                            x       y       z     vdW  Elec       q    Type
REMARK                         _______ _______ _______ _____ _____    ______ ____
ROOT
ATOM      1  O   UNL     1      -2.430   2.360  23.062  0.00  0.00    -0.371 OA
ATOM      7  C   UNL     1      -2.884   3.597  25.028  0.00  0.00    +0.111 C 
ATOM      8  C   UNL     1      -1.381   3.412  24.930  0.00  0.00    +0.164 C 
ATOM      9  C   UNL     1      -1.182   2.430  23.775  0.00  0.00    +0.165 C 
ATOM     10  C   UNL     1      -3.323   3.344  23.595  0.00  0.00    +0.181 C 
ENDROOT
BRANCH   8   2
ATOM      2  O   UNL     1      -0.809   4.673  24.574  0.00  0.00    -0.388 OA
ATOM     28  H   UNL     1       0.146   4.618  24.750  0.00  0.00    +0.210 HD
ENDBRANCH   8   2
BRANCH   7   5
ATOM      5  N   UNL     1      -3.489   2.623  25.934  0.00  0.00    -0.305 NA
ATOM     27  H   UNL     1      -2.783   1.944  26.217  0.00  0.00    +0.123 HD
BRANCH   5  12
ATOM     12  C   UNL     1      -4.582   1.910  25.283  0.00  0.00    +0.116 C 
BRANCH  12  13
ATOM     13  C   UNL     1      -4.250   0.458  25.059  0.00  0.00    -0.033 A 
ATOM     15  C   UNL     1      -4.626  -0.168  23.870  0.00  0.00    +0.008 A 
ATOM     16  C   UNL     1      -3.563  -0.259  26.038  0.00  0.00    +0.008 A 
ATOM     18  C   UNL     1      -4.315  -1.511  23.662  0.00  0.00    +0.046 A 
ATOM     19  C   UNL     1      -3.253  -1.602  25.830  0.00  0.00    +0.046 A 
ATOM     20  C   UNL     1      -3.630  -2.229  24.642  0.00  0.00    +0.120 A 
BRANCH  20   4
ATOM      4  O   UNL     1      -3.325  -3.540  24.438  0.00  0.00    -0.495 OA
ATOM     26  C   UNL     1      -2.217  -3.824  23.585  0.00  0.00    +0.277 C 
ENDBRANCH  20   4
ENDBRANCH  12  13
ENDBRANCH   5  12
ENDBRANCH   7   5
BRANCH   9  11
ATOM     11  C   UNL     1      -0.811   1.026  24.229  0.00  0.00    +0.138 C 
BRANCH  11   6
ATOM      3  O   UNL     1       0.663  -0.275  22.136  0.00  0.00    -0.270 OA
ATOM      6  N   UNL     1       0.608   0.819  24.181  0.00  0.00    -0.309 N 
ATOM     14  C   UNL     1       1.241   0.175  23.122  0.00  0.00    +0.244 C 
ATOM     29  H   UNL     1       1.135   1.094  25.003  0.00  0.00    +0.149 HD
BRANCH  14  17
ATOM     17  C   UNL     1       2.713   0.017  23.236  0.00  0.00    +0.037 A 
ATOM     21  C   UNL     1       3.253  -1.189  23.681  0.00  0.00    +0.013 A 
ATOM     22  C   UNL     1       3.557   1.076  22.897  0.00  0.00    +0.013 A 
ATOM     23  C   UNL     1       4.636  -1.339  23.787  0.00  0.00    +0.001 A 
ATOM     24  C   UNL     1       4.939   0.927  23.002  0.00  0.00    +0.001 A 
ATOM     25  C   UNL     1       5.479  -0.280  23.447  0.00  0.00    +0.000 A 
ENDBRANCH  14  17
ENDBRANCH  11   6
ENDBRANCH   9  11
TORSDOF 8
ENDMDL
MODEL 6
REMARK VINA RESULT:      -3.9      2.236      5.114
REMARK  Name = 75536622
REMARK  9 active torsions:
REMARK  status: ('A' for Active; 'I' for Inactive)
REMARK    1  A    between atoms: O_2  and  C_8
REMARK    2  A    between atoms: O_4  and  C_20
REMARK    3  A    between atoms: O_4  and  C_26
REMARK    4  A    between atoms: N_5  and  C_7
REMARK    5  A    between atoms: N_5  and  C_12
REMARK    6  A    between atoms: N_6  and  C_11
REMARK    7  A    between atoms: C_9  and  C_11
REMARK    8  A    between atoms: C_12  and  C_13
REMARK    9  A    between atoms: C_14  and  C_17
REMARK                            x       y       z     vdW  Elec       q    Type
REMARK                         _______ _______ _______ _____ _____    ______ ____
ROOT
ATOM      1  O   UNL     1      -3.668   3.252  23.831  0.00  0.00    -0.371 OA
ATOM      7  C   UNL     1      -5.529   2.677  25.177  0.00  0.00    +0.111 C 
ATOM      8  C   UNL     1      -4.789   3.811  25.863  0.00  0.00    +0.164 C 
ATOM      9  C   UNL     1      -3.497   3.976  25.063  0.00  0.00    +0.165 C 
ATOM     10  C   UNL     1      -5.023   2.795  23.748  0.00  0.00    +0.181 C 
ENDROOT
BRANCH   8   2
ATOM      2  O   UNL     1      -5.579   4.995  25.723  0.00  0.00    -0.388 OA
ATOM     28  H   UNL     1      -4.970   5.753  25.744  0.00  0.00    +0.210 HD
ENDBRANCH   8   2
BRANCH   7   5
ATOM      5  N   UNL     1      -5.175   1.379  25.746  0.00  0.00    -0.305 NA
ATOM     27  H   UNL     1      -4.224   1.423  26.114  0.00  0.00    +0.123 HD
BRANCH   5  12
ATOM     12  C   UNL     1      -5.230   0.331  24.735  0.00  0.00    +0.116 C 
BRANCH  12  13
ATOM     13  C   UNL     1      -4.045  -0.595  24.820  0.00  0.00    -0.033 A 
ATOM     15  C   UNL     1      -2.992  -0.302  25.688  0.00  0.00    +0.008 A 
ATOM     16  C   UNL     1      -4.002  -1.746  24.035  0.00  0.00    +0.008 A 
ATOM     18  C   UNL     1      -1.897  -1.161  25.769  0.00  0.00    +0.046 A 
ATOM     19  C   UNL     1      -2.906  -2.606  24.116  0.00  0.00    +0.046 A 
ATOM     20  C   UNL     1      -1.853  -2.312  24.983  0.00  0.00    +0.120 A 
BRANCH  20   4
ATOM      4  O   UNL     1      -0.785  -3.151  25.063  0.00  0.00    -0.495 OA
ATOM     26  C   UNL     1       0.454  -2.587  25.494  0.00  0.00    +0.277 C 
ENDBRANCH  20   4
ENDBRANCH  12  13
ENDBRANCH   5  12
ENDBRANCH   7   5
BRANCH   9  11
ATOM     11  C   UNL     1      -2.269   3.426  25.773  0.00  0.00    +0.138 C 
BRANCH  11   6
ATOM      3  O   UNL     1       0.470   2.644  26.133  0.00  0.00    -0.270 OA
ATOM      6  N   UNL     1      -1.498   2.581  24.907  0.00  0.00    -0.309 N 
ATOM     14  C   UNL     1      -0.170   2.254  25.161  0.00  0.00    +0.244 C 
ATOM     29  H   UNL     1      -1.943   2.291  24.043  0.00  0.00    +0.149 HD
BRANCH  14  17
ATOM     17  C   UNL     1       0.496   1.389  24.153  0.00  0.00    +0.037 A 
ATOM     21  C   UNL     1      -0.240   0.423  23.468  0.00  0.00    +0.013 A 
ATOM     22  C   UNL     1       1.857   1.545  23.890  0.00  0.00    +0.013 A 
ATOM     23  C   UNL     1       0.384  -0.388  22.519  0.00  0.00    +0.001 A 
ATOM     24  C   UNL     1       2.482   0.735  22.942  0.00  0.00    +0.001 A 
ATOM     25  C   UNL     1       1.745  -0.232  22.257  0.00  0.00    +0.000 A 
ENDBRANCH  14  17
ENDBRANCH  11   6
ENDBRANCH   9  11
TORSDOF 8
ENDMDL
MODEL 7
REMARK VINA RESULT:      -3.7      2.554      5.854
REMARK  Name = 75536622
REMARK  9 active torsions:
REMARK  status: ('A' for Active; 'I' for Inactive)
REMARK    1  A    between atoms: O_2  and  C_8
REMARK    2  A    between atoms: O_4  and  C_20
REMARK    3  A    between atoms: O_4  and  C_26
REMARK    4  A    between atoms: N_5  and  C_7
REMARK    5  A    between atoms: N_5  and  C_12
REMARK    6  A    between atoms: N_6  and  C_11
REMARK    7  A    between atoms: C_9  and  C_11
REMARK    8  A    between atoms: C_12  and  C_13
REMARK    9  A    between atoms: C_14  and  C_17
REMARK                            x       y       z     vdW  Elec       q    Type
REMARK                         _______ _______ _______ _____ _____    ______ ____
ROOT
ATOM      1  O   UNL     1      -2.674  -3.358  24.266  0.00  0.00    -0.371 OA
ATOM      7  C   UNL     1      -1.157  -1.743  25.100  0.00  0.00    +0.111 C 
ATOM      8  C   UNL     1      -2.534  -1.417  25.649  0.00  0.00    +0.164 C 
ATOM      9  C   UNL     1      -3.485  -2.353  24.902  0.00  0.00    +0.165 C 
ATOM     10  C   UNL     1      -1.318  -3.201  24.701  0.00  0.00    +0.181 C 
ENDROOT
BRANCH   8   2
ATOM      2  O   UNL     1      -2.541  -1.756  27.038  0.00  0.00    -0.388 OA
ATOM     28  H   UNL     1      -2.073  -1.047  27.511  0.00  0.00    +0.210 HD
ENDBRANCH   8   2
BRANCH   7   5
ATOM      5  N   UNL     1      -0.831  -0.921  23.937  0.00  0.00    -0.305 NA
ATOM     27  H   UNL     1      -0.571  -1.528  23.160  0.00  0.00    +0.123 HD
BRANCH   5  12
ATOM     12  C   UNL     1       0.286  -0.029  24.222  0.00  0.00    +0.116 C 
BRANCH  12  13
ATOM     13  C   UNL     1      -0.179   1.352  24.600  0.00  0.00    -0.033 A 
ATOM     15  C   UNL     1      -0.030   2.409  23.702  0.00  0.00    +0.008 A 
ATOM     16  C   UNL     1      -0.763   1.574  25.847  0.00  0.00    +0.008 A 
ATOM     18  C   UNL     1      -0.465   3.687  24.051  0.00  0.00    +0.046 A 
ATOM     19  C   UNL     1      -1.198   2.852  26.197  0.00  0.00    +0.046 A 
ATOM     20  C   UNL     1      -1.048   3.909  25.299  0.00  0.00    +0.120 A 
BRANCH  20   4
ATOM      4  O   UNL     1      -1.473   5.156  25.640  0.00  0.00    -0.495 OA
ATOM     26  C   UNL     1      -1.373   6.172  24.643  0.00  0.00    +0.277 C 
ENDBRANCH  20   4
ENDBRANCH  12  13
ENDBRANCH   5  12
ENDBRANCH   7   5
BRANCH   9  11
ATOM     11  C   UNL     1      -4.308  -1.655  23.830  0.00  0.00    +0.138 C 
BRANCH  11   6
ATOM      3  O   UNL     1      -3.044   0.812  23.081  0.00  0.00    -0.270 OA
ATOM      6  N   UNL     1      -4.692  -0.336  24.243  0.00  0.00    -0.309 N 
ATOM     14  C   UNL     1      -4.018   0.809  23.829  0.00  0.00    +0.244 C 
ATOM     29  H   UNL     1      -5.438  -0.273  24.927  0.00  0.00    +0.149 HD
BRANCH  14  17
ATOM     17  C   UNL     1      -4.525   2.099  24.366  0.00  0.00    +0.037 A 
ATOM     21  C   UNL     1      -4.060   3.304  23.840  0.00  0.00    +0.013 A 
ATOM     22  C   UNL     1      -5.465   2.103  25.396  0.00  0.00    +0.013 A 
ATOM     23  C   UNL     1      -4.537   4.514  24.344  0.00  0.00    +0.001 A 
ATOM     24  C   UNL     1      -5.942   3.313  25.900  0.00  0.00    +0.001 A 
ATOM     25  C   UNL     1      -5.478   4.519  25.373  0.00  0.00    +0.000 A 
ENDBRANCH  14  17
ENDBRANCH  11   6
ENDBRANCH   9  11
TORSDOF 8
ENDMDL
MODEL 8
REMARK VINA RESULT:      -3.4      1.650      6.146
REMARK  Name = 75536622
REMARK  9 active torsions:
REMARK  status: ('A' for Active; 'I' for Inactive)
REMARK    1  A    between atoms: O_2  and  C_8
REMARK    2  A    between atoms: O_4  and  C_20
REMARK    3  A    between atoms: O_4  and  C_26
REMARK    4  A    between atoms: N_5  and  C_7
REMARK    5  A    between atoms: N_5  and  C_12
REMARK    6  A    between atoms: N_6  and  C_11
REMARK    7  A    between atoms: C_9  and  C_11
REMARK    8  A    between atoms: C_12  and  C_13
REMARK    9  A    between atoms: C_14  and  C_17
REMARK                            x       y       z     vdW  Elec       q    Type
REMARK                         _______ _______ _______ _____ _____    ______ ____
ROOT
ATOM      1  O   UNL     1      -4.384  -2.234  24.179  0.00  0.00    -0.371 OA
ATOM      7  C   UNL     1      -2.117  -1.882  24.764  0.00  0.00    +0.111 C 
ATOM      8  C   UNL     1      -2.970  -0.976  25.634  0.00  0.00    +0.164 C 
ATOM      9  C   UNL     1      -4.380  -1.093  25.056  0.00  0.00    +0.165 C 
ATOM     10  C   UNL     1      -3.131  -2.917  24.304  0.00  0.00    +0.181 C 
ENDROOT
BRANCH   8   2
ATOM      2  O   UNL     1      -2.963  -1.514  26.959  0.00  0.00    -0.388 OA
ATOM     28  H   UNL     1      -3.415  -2.374  26.925  0.00  0.00    +0.210 HD
ENDBRANCH   8   2
BRANCH   7   5
ATOM      5  N   UNL     1      -1.559  -1.162  23.621  0.00  0.00    -0.305 NA
ATOM     27  H   UNL     1      -0.802  -1.713  23.215  0.00  0.00    +0.123 HD
BRANCH   5  12
ATOM     12  C   UNL     1      -1.022   0.131  24.028  0.00  0.00    +0.116 C 
BRANCH  12  13
ATOM     13  C   UNL     1       0.404   0.313  23.579  0.00  0.00    -0.033 A 
ATOM     15  C   UNL     1       1.119   1.445  23.972  0.00  0.00    +0.008 A 
ATOM     16  C   UNL     1       1.010  -0.650  22.775  0.00  0.00    +0.008 A 
ATOM     18  C   UNL     1       2.441   1.612  23.560  0.00  0.00    +0.046 A 
ATOM     19  C   UNL     1       2.332  -0.484  22.362  0.00  0.00    +0.046 A 
ATOM     20  C   UNL     1       3.047   0.648  22.754  0.00  0.00    +0.120 A 
BRANCH  20   4
ATOM      4  O   UNL     1       4.337   0.810  22.352  0.00  0.00    -0.495 OA
ATOM     26  C   UNL     1       5.350   0.218  23.165  0.00  0.00    +0.277 C 
ENDBRANCH  20   4
ENDBRANCH  12  13
ENDBRANCH   5  12
ENDBRANCH   7   5
BRANCH   9  11
ATOM     11  C   UNL     1      -4.811   0.127  24.254  0.00  0.00    +0.138 C 
BRANCH  11   6
ATOM      3  O   UNL     1      -5.132   2.583  25.704  0.00  0.00    -0.270 OA
ATOM      6  N   UNL     1      -3.852   1.188  24.363  0.00  0.00    -0.309 N 
ATOM     14  C   UNL     1      -4.094   2.350  25.091  0.00  0.00    +0.244 C 
ATOM     29  H   UNL     1      -3.006   1.095  23.812  0.00  0.00    +0.149 HD
BRANCH  14  17
ATOM     17  C   UNL     1      -3.010   3.365  25.084  0.00  0.00    +0.037 A 
ATOM     21  C   UNL     1      -1.709   2.999  25.426  0.00  0.00    +0.013 A 
ATOM     22  C   UNL     1      -3.293   4.686  24.733  0.00  0.00    +0.013 A 
ATOM     23  C   UNL     1      -0.690   3.952  25.417  0.00  0.00    +0.001 A 
ATOM     24  C   UNL     1      -2.276   5.639  24.725  0.00  0.00    +0.001 A 
ATOM     25  C   UNL     1      -0.973   5.272  25.067  0.00  0.00    +0.000 A 
ENDBRANCH  14  17
ENDBRANCH  11   6
ENDBRANCH   9  11
TORSDOF 8
ENDMDL
MODEL 9
REMARK VINA RESULT:      -3.4      2.572      4.130
REMARK  Name = 75536622
REMARK  9 active torsions:
REMARK  status: ('A' for Active; 'I' for Inactive)
REMARK    1  A    between atoms: O_2  and  C_8
REMARK    2  A    between atoms: O_4  and  C_20
REMARK    3  A    between atoms: O_4  and  C_26
REMARK    4  A    between atoms: N_5  and  C_7
REMARK    5  A    between atoms: N_5  and  C_12
REMARK    6  A    between atoms: N_6  and  C_11
REMARK    7  A    between atoms: C_9  and  C_11
REMARK    8  A    between atoms: C_12  and  C_13
REMARK    9  A    between atoms: C_14  and  C_17
REMARK                            x       y       z     vdW  Elec       q    Type
REMARK                         _______ _______ _______ _____ _____    ______ ____
ROOT
ATOM      1  O   UNL     1      -1.387  -0.967  26.064  0.00  0.00    -0.371 OA
ATOM      7  C   UNL     1      -3.008  -2.055  24.724  0.00  0.00    +0.111 C 
ATOM      8  C   UNL     1      -1.637  -2.527  24.275  0.00  0.00    +0.164 C 
ATOM      9  C   UNL     1      -0.650  -1.630  25.021  0.00  0.00    +0.165 C 
ATOM     10  C   UNL     1      -2.710  -1.514  26.114  0.00  0.00    +0.181 C 
ENDROOT
BRANCH   8   2
ATOM      2  O   UNL     1      -1.472  -3.876  24.723  0.00  0.00    -0.388 OA
ATOM     28  H   UNL     1      -2.205  -4.069  25.332  0.00  0.00    +0.210 HD
ENDBRANCH   8   2
BRANCH   7   5
ATOM      5  N   UNL     1      -3.526  -0.999  23.858  0.00  0.00    -0.305 NA
ATOM     27  H   UNL     1      -2.937  -0.171  23.950  0.00  0.00    +0.123 HD
BRANCH   5  12
ATOM     12  C   UNL     1      -4.890  -0.641  24.225  0.00  0.00    +0.116 C 
BRANCH  12  13
ATOM     13  C   UNL     1      -5.001   0.806  24.629  0.00  0.00    -0.033 A 
ATOM     15  C   UNL     1      -5.837   1.174  25.683  0.00  0.00    +0.008 A 
ATOM     16  C   UNL     1      -4.265   1.777  23.951  0.00  0.00    +0.008 A 
ATOM     18  C   UNL     1      -5.938   2.513  26.058  0.00  0.00    +0.046 A 
ATOM     19  C   UNL     1      -4.364   3.117  24.326  0.00  0.00    +0.046 A 
ATOM     20  C   UNL     1      -5.202   3.485  25.380  0.00  0.00    +0.120 A 
BRANCH  20   4
ATOM      4  O   UNL     1      -5.298   4.792  25.747  0.00  0.00    -0.495 OA
ATOM     26  C   UNL     1      -6.490   5.484  25.378  0.00  0.00    +0.277 C 
ENDBRANCH  20   4
ENDBRANCH  12  13
ENDBRANCH   5  12
ENDBRANCH   7   5
BRANCH   9  11
ATOM     11  C   UNL     1      -0.009  -0.568  24.140  0.00  0.00    +0.138 C 
BRANCH  11   6
ATOM      3  O   UNL     1       1.419   1.921  24.050  0.00  0.00    -0.270 OA
ATOM      6  N   UNL     1      -0.539   0.734  24.422  0.00  0.00    -0.309 N 
ATOM     14  C   UNL     1       0.230   1.892  24.353  0.00  0.00    +0.244 C 
ATOM     29  H   UNL     1      -1.495   0.773  24.758  0.00  0.00    +0.149 HD
BRANCH  14  17
ATOM     17  C   UNL     1      -0.462   3.160  24.699  0.00  0.00    +0.037 A 
ATOM     21  C   UNL     1      -0.229   4.310  23.946  0.00  0.00    +0.013 A 
ATOM     22  C   UNL     1      -1.346   3.200  25.778  0.00  0.00    +0.013 A 
ATOM     23  C   UNL     1      -0.880   5.501  24.270  0.00  0.00    +0.001 A 
ATOM     24  C   UNL     1      -1.998   4.390  26.102  0.00  0.00    +0.001 A 
ATOM     25  C   UNL     1      -1.764   5.541  25.348  0.00  0.00    +0.000 A 
ENDBRANCH  14  17
ENDBRANCH  11   6
ENDBRANCH   9  11
TORSDOF 8
ENDMDL
MODEL 10
REMARK VINA RESULT:      -3.2      3.101      5.482
REMARK  Name = 75536622
REMARK  9 active torsions:
REMARK  status: ('A' for Active; 'I' for Inactive)
REMARK    1  A    between atoms: O_2  and  C_8
REMARK    2  A    between atoms: O_4  and  C_20
REMARK    3  A    between atoms: O_4  and  C_26
REMARK    4  A    between atoms: N_5  and  C_7
REMARK    5  A    between atoms: N_5  and  C_12
REMARK    6  A    between atoms: N_6  and  C_11
REMARK    7  A    between atoms: C_9  and  C_11
REMARK    8  A    between atoms: C_12  and  C_13
REMARK    9  A    between atoms: C_14  and  C_17
REMARK                            x       y       z     vdW  Elec       q    Type
REMARK                         _______ _______ _______ _____ _____    ______ ____
ROOT
ATOM      1  O   UNL     1       0.300   4.231  25.233  0.00  0.00    -0.371 OA
ATOM      7  C   UNL     1      -1.877   3.820  24.400  0.00  0.00    +0.111 C 
ATOM      8  C   UNL     1      -1.778   3.193  25.780  0.00  0.00    +0.164 C 
ATOM      9  C   UNL     1      -0.301   3.304  26.155  0.00  0.00    +0.165 C 
ATOM     10  C   UNL     1      -0.730   4.817  24.429  0.00  0.00    +0.181 C 
ENDROOT
BRANCH   8   2
ATOM      2  O   UNL     1      -2.549   3.995  26.678  0.00  0.00    -0.388 OA
ATOM     28  H   UNL     1      -2.127   3.937  27.552  0.00  0.00    +0.210 HD
ENDBRANCH   8   2
BRANCH   7   5
ATOM      5  N   UNL     1      -1.677   2.831  23.343  0.00  0.00    -0.305 NA
ATOM     27  H   UNL     1      -1.149   3.256  22.582  0.00  0.00    +0.123 HD
BRANCH   5  12
ATOM     12  C   UNL     1      -2.953   2.362  22.816  0.00  0.00    +0.116 C 
BRANCH  12  13
ATOM     13  C   UNL     1      -4.019   2.324  23.879  0.00  0.00    -0.033 A 
ATOM     15  C   UNL     1      -4.408   1.104  24.433  0.00  0.00    +0.008 A 
ATOM     16  C   UNL     1      -4.616   3.508  24.311  0.00  0.00    +0.008 A 
ATOM     18  C   UNL     1      -5.394   1.069  25.419  0.00  0.00    +0.046 A 
ATOM     19  C   UNL     1      -5.601   3.473  25.297  0.00  0.00    +0.046 A 
ATOM     20  C   UNL     1      -5.990   2.253  25.851  0.00  0.00    +0.120 A 
BRANCH  20   4
ATOM      4  O   UNL     1      -6.951   2.220  26.814  0.00  0.00    -0.495 OA
ATOM     26  C   UNL     1      -6.959   1.089  27.685  0.00  0.00    +0.277 C 
ENDBRANCH  20   4
ENDBRANCH  12  13
ENDBRANCH   5  12
ENDBRANCH   7   5
BRANCH   9  11
ATOM     11  C   UNL     1       0.450   1.984  26.062  0.00  0.00    +0.138 C 
BRANCH  11   6
ATOM      3  O   UNL     1       0.124   0.246  23.800  0.00  0.00    -0.270 OA
ATOM      6  N   UNL     1      -0.454   0.875  25.957  0.00  0.00    -0.309 N 
ATOM     14  C   UNL     1      -0.546   0.083  24.816  0.00  0.00    +0.244 C 
ATOM     29  H   UNL     1      -1.095   0.736  26.731  0.00  0.00    +0.149 HD
BRANCH  14  17
ATOM     17  C   UNL     1      -1.550  -1.011  24.857  0.00  0.00    +0.037 A 
ATOM     21  C   UNL     1      -2.521  -1.029  25.857  0.00  0.00    +0.013 A 
ATOM     22  C   UNL     1      -1.523  -2.019  23.893  0.00  0.00    +0.013 A 
ATOM     23  C   UNL     1      -3.466  -2.055  25.894  0.00  0.00    +0.001 A 
ATOM     24  C   UNL     1      -2.466  -3.045  23.930  0.00  0.00    +0.001 A 
ATOM     25  C   UNL     1      -3.439  -3.063  24.931  0.00  0.00    +0.000 A 
ENDBRANCH  14  17
ENDBRANCH  11   6
ENDBRANCH   9  11
TORSDOF 8
ENDMDL
