MODEL 1
REMARK VINA RESULT:      10.0      0.000      0.000
REMARK  Name = 26761883
REMARK  9 active torsions:
REMARK  status: ('A' for Active; 'I' for Inactive)
REMARK    1  A    between atoms: O_3  and  C_29
REMARK    2  A    between atoms: O_3  and  C_30
REMARK    3  A    between atoms: N_9  and  C_21
REMARK    4  A    between atoms: C_11  and  C_16
REMARK    5  A    between atoms: C_19  and  C_20
REMARK    6  A    between atoms: C_20  and  C_22
REMARK    7  A    between atoms: C_20  and  C_23
REMARK    8  A    between atoms: C_28  and  C_29
REMARK    9  A    between atoms: C_30  and  C_31
REMARK                            x       y       z     vdW  Elec       q    Type
REMARK                         _______ _______ _______ _____ _____    ______ ____
ROOT
ATOM      2  O   UNL     1       0.386   1.549  22.604  0.00  0.00    -0.252 OA
ATOM      5  N   UNL     1      -1.020   0.220  23.889  0.00  0.00    -0.267 N 
ATOM      6  N   UNL     1      -2.832  -2.705  25.362  0.00  0.00    -0.347 N 
ATOM      7  N   UNL     1      -4.278  -2.380  23.690  0.00  0.00    -0.240 NA
ATOM      9  N   UNL     1       1.310   0.236  24.283  0.00  0.00    -0.269 N 
ATOM     11  C   UNL     1      -2.244   0.793  23.229  0.00  0.00    +0.172 C 
ATOM     12  C   UNL     1      -3.192  -0.321  22.693  0.00  0.00    +0.089 C 
ATOM     13  C   UNL     1      -1.213  -0.776  24.985  0.00  0.00    +0.165 C 
ATOM     14  C   UNL     1      -3.300  -1.427  23.668  0.00  0.00    +0.066 A 
ATOM     15  C   UNL     1      -2.395  -1.605  24.685  0.00  0.00    +0.056 A 
ATOM     17  C   UNL     1       0.254   0.727  23.514  0.00  0.00    +0.307 C 
ATOM     18  C   UNL     1      -3.968  -3.136  24.724  0.00  0.00    +0.197 A 
ATOM     32  H   UNL     1      -2.404  -3.126  26.177  0.00  0.00    +0.167 HD
ATOM     33  H   UNL     1       1.109  -0.051  25.236  0.00  0.00    +0.156 HD
ENDROOT
BRANCH   9  21
ATOM     21  C   UNL     1       2.653   0.039  23.877  0.00  0.00    +0.035 A 
ATOM     24  C   UNL     1       3.285  -1.180  24.123  0.00  0.00    +0.024 A 
ATOM     25  C   UNL     1       3.344   1.064  23.231  0.00  0.00    +0.024 A 
ATOM     26  C   UNL     1       4.607  -1.374  23.725  0.00  0.00    +0.017 A 
ATOM     27  C   UNL     1       4.667   0.870  22.832  0.00  0.00    +0.017 A 
ATOM     28  C   UNL     1       5.298  -0.349  23.079  0.00  0.00    +0.059 A 
BRANCH  28  29
ATOM      4  O   UNL     1       7.021  -1.231  21.687  0.00  0.00    -0.245 OA
ATOM     29  C   UNL     1       6.677  -0.552  22.664  0.00  0.00    +0.339 C 
BRANCH  29   3
ATOM      3  O   UNL     1       7.552   0.101  23.489  0.00  0.00    -0.461 OA
BRANCH   3  30
ATOM     30  C   UNL     1       8.938   0.051  23.131  0.00  0.00    +0.229 C 
ATOM     31  C   UNL     1       9.775   0.304  24.366  0.00  0.00    +0.048 C 
ENDBRANCH   3  30
ENDBRANCH  29   3
ENDBRANCH  28  29
ENDBRANCH   9  21
BRANCH  11  16
ATOM      1  O   UNL     1      -2.122   2.948  24.403  0.00  0.00    -0.336 OA
ATOM      8  N   UNL     1      -4.072   1.877  24.668  0.00  0.00    -0.194 NA
ATOM     10  N   UNL     1      -2.907   3.767  25.224  0.00  0.00    -0.061 NA
ATOM     16  C   UNL     1      -2.882   1.858  24.121  0.00  0.00    +0.248 A 
ATOM     19  C   UNL     1      -4.041   3.068  25.335  0.00  0.00    +0.174 A 
BRANCH  19  20
ATOM     20  C   UNL     1      -5.178   3.552  26.125  0.00  0.00    +0.054 C 
ATOM     22  C   UNL     1      -6.228   2.451  26.425  0.00  0.00    +0.015 C 
ATOM     23  C   UNL     1      -5.897   4.767  25.486  0.00  0.00    +0.015 C 
ENDBRANCH  19  20
ENDBRANCH  11  16
TORSDOF 6
ENDMDL
MODEL 2
REMARK VINA RESULT:      12.6      1.882      4.153
REMARK  Name = 26761883
REMARK  9 active torsions:
REMARK  status: ('A' for Active; 'I' for Inactive)
REMARK    1  A    between atoms: O_3  and  C_29
REMARK    2  A    between atoms: O_3  and  C_30
REMARK    3  A    between atoms: N_9  and  C_21
REMARK    4  A    between atoms: C_11  and  C_16
REMARK    5  A    between atoms: C_19  and  C_20
REMARK    6  A    between atoms: C_20  and  C_22
REMARK    7  A    between atoms: C_20  and  C_23
REMARK    8  A    between atoms: C_28  and  C_29
REMARK    9  A    between atoms: C_30  and  C_31
REMARK                            x       y       z     vdW  Elec       q    Type
REMARK                         _______ _______ _______ _____ _____    ______ ____
ROOT
ATOM      2  O   UNL     1       0.891  -0.892  25.223  0.00  0.00    -0.252 OA
ATOM      5  N   UNL     1      -0.408   0.920  24.572  0.00  0.00    -0.267 N 
ATOM      6  N   UNL     1      -1.649   4.388  23.907  0.00  0.00    -0.347 N 
ATOM      7  N   UNL     1      -2.423   4.284  26.001  0.00  0.00    -0.240 NA
ATOM      9  N   UNL     1       1.501   0.300  23.325  0.00  0.00    -0.269 N 
ATOM     11  C   UNL     1      -1.425   0.638  25.644  0.00  0.00    +0.172 C 
ATOM     12  C   UNL     1      -1.731   1.900  26.503  0.00  0.00    +0.089 C 
ATOM     13  C   UNL     1      -0.670   2.053  23.635  0.00  0.00    +0.165 C 
ATOM     14  C   UNL     1      -1.841   3.100  25.647  0.00  0.00    +0.066 A 
ATOM     15  C   UNL     1      -1.354   3.138  24.363  0.00  0.00    +0.056 A 
ATOM     17  C   UNL     1       0.697   0.037  24.435  0.00  0.00    +0.307 C 
ATOM     18  C   UNL     1      -2.292   5.040  24.929  0.00  0.00    +0.197 A 
ATOM     32  H   UNL     1      -1.437   4.766  22.993  0.00  0.00    +0.167 HD
ATOM     33  H   UNL     1       1.068   0.743  22.520  0.00  0.00    +0.156 HD
ENDROOT
BRANCH   9  21
ATOM     21  C   UNL     1       2.892   0.065  23.193  0.00  0.00    +0.035 A 
ATOM     24  C   UNL     1       3.706   1.018  22.582  0.00  0.00    +0.024 A 
ATOM     25  C   UNL     1       3.447  -1.121  23.675  0.00  0.00    +0.024 A 
ATOM     26  C   UNL     1       5.075   0.787  22.451  0.00  0.00    +0.017 A 
ATOM     27  C   UNL     1       4.817  -1.353  23.543  0.00  0.00    +0.017 A 
ATOM     28  C   UNL     1       5.630  -0.399  22.932  0.00  0.00    +0.059 A 
BRANCH  28  29
ATOM      4  O   UNL     1       7.553  -1.564  22.137  0.00  0.00    -0.245 OA
ATOM     29  C   UNL     1       7.058  -0.639  22.795  0.00  0.00    +0.339 C 
BRANCH  29   3
ATOM      3  O   UNL     1       7.792   0.286  23.486  0.00  0.00    -0.461 OA
BRANCH   3  30
ATOM     30  C   UNL     1       9.187   0.371  23.172  0.00  0.00    +0.229 C 
ATOM     31  C   UNL     1       9.992   0.049  24.412  0.00  0.00    +0.048 C 
ENDBRANCH   3  30
ENDBRANCH  29   3
ENDBRANCH  28  29
ENDBRANCH   9  21
BRANCH  11  16
ATOM      1  O   UNL     1      -3.718   0.669  24.761  0.00  0.00    -0.336 OA
ATOM      8  N   UNL     1      -2.782  -1.366  24.789  0.00  0.00    -0.194 NA
ATOM     10  N   UNL     1      -4.679  -0.208  24.244  0.00  0.00    -0.061 NA
ATOM     16  C   UNL     1      -2.632  -0.093  25.055  0.00  0.00    +0.248 A 
ATOM     19  C   UNL     1      -4.054  -1.389  24.293  0.00  0.00    +0.174 A 
BRANCH  19  20
ATOM     20  C   UNL     1      -4.696  -2.628  23.843  0.00  0.00    +0.054 C 
ATOM     22  C   UNL     1      -4.037  -3.905  24.424  0.00  0.00    +0.015 C 
ATOM     23  C   UNL     1      -4.764  -2.758  22.300  0.00  0.00    +0.015 C 
ENDBRANCH  19  20
ENDBRANCH  11  16
TORSDOF 6
ENDMDL
