MODEL 1
REMARK VINA RESULT:      -0.6      0.000      0.000
REMARK  Name = 11886486
REMARK  7 active torsions:
REMARK  status: ('A' for Active; 'I' for Inactive)
REMARK    1  A    between atoms: O_3  and  C_10
REMARK    2  A    between atoms: O_3  and  C_13
REMARK    3  A    between atoms: O_5  and  C_25
REMARK    4  A    between atoms: O_5  and  C_27
REMARK    5  A    between atoms: N_6  and  C_9
REMARK    6  A    between atoms: C_13  and  C_15
REMARK    7  A    between atoms: C_14  and  C_16
REMARK                            x       y       z     vdW  Elec       q    Type
REMARK                         _______ _______ _______ _____ _____    ______ ____
ROOT
ATOM      1  O   UNL     1      -2.215   0.153  25.802  0.00  0.00    -0.369 OA
ATOM      2  O   UNL     1      -3.151  -2.187  24.057  0.00  0.00    -0.369 OA
ATOM      7  C   UNL     1      -1.957  -1.379  24.011  0.00  0.00    +0.172 C 
ATOM      8  C   UNL     1      -2.368   0.034  24.378  0.00  0.00    +0.180 C 
ATOM      9  C   UNL     1      -1.014  -1.782  25.121  0.00  0.00    +0.130 C 
ATOM     10  C   UNL     1      -3.820   0.067  23.967  0.00  0.00    +0.175 C 
ATOM     11  C   UNL     1      -1.579  -1.029  26.313  0.00  0.00    +0.185 C 
ATOM     12  C   UNL     1      -4.280  -1.334  24.299  0.00  0.00    +0.194 C 
ENDROOT
BRANCH   9   6
ATOM      4  O   UNL     1      -0.055  -0.635  22.670  0.00  0.00    -0.270 OA
ATOM      6  N   UNL     1       0.339  -1.371  24.834  0.00  0.00    -0.304 N 
ATOM     14  C   UNL     1       0.708  -0.824  23.614  0.00  0.00    +0.244 C 
ATOM     28  H   UNL     1       1.045  -1.603  25.525  0.00  0.00    +0.149 HD
BRANCH  14  16
ATOM     16  C   UNL     1       2.145  -0.476  23.466  0.00  0.00    +0.037 A 
ATOM     19  C   UNL     1       3.098  -1.406  23.828  0.00  0.00    +0.016 A 
ATOM     20  C   UNL     1       2.482   0.768  22.971  0.00  0.00    +0.016 A 
ATOM     21  C   UNL     1       4.446  -1.079  23.689  0.00  0.00    +0.046 A 
ATOM     22  C   UNL     1       3.831   1.095  22.833  0.00  0.00    +0.046 A 
ATOM     25  C   UNL     1       4.813   0.172  23.191  0.00  0.00    +0.120 A 
BRANCH  25   5
ATOM      5  O   UNL     1       6.129   0.492  23.057  0.00  0.00    -0.495 OA
ATOM     27  C   UNL     1       7.060  -0.590  23.025  0.00  0.00    +0.277 C 
ENDBRANCH  25   5
ENDBRANCH  14  16
ENDBRANCH   9   6
BRANCH  10   3
ATOM      3  O   UNL     1      -4.574   1.047  24.644  0.00  0.00    -0.367 OA
BRANCH   3  13
ATOM     13  C   UNL     1      -4.555   2.300  23.964  0.00  0.00    +0.195 C 
BRANCH  13  15
ATOM     15  C   UNL     1      -3.371   3.093  24.433  0.00  0.00    -0.022 A 
ATOM     17  C   UNL     1      -3.454   3.822  25.614  0.00  0.00    +0.006 A 
ATOM     18  C   UNL     1      -2.200   3.092  23.682  0.00  0.00    +0.006 A 
ATOM     23  C   UNL     1      -2.353   4.560  26.049  0.00  0.00    +0.000 A 
ATOM     24  C   UNL     1      -1.099   3.829  24.117  0.00  0.00    +0.000 A 
ATOM     26  C   UNL     1      -1.176   4.563  25.301  0.00  0.00    +0.000 A 
ENDBRANCH  13  15
ENDBRANCH   3  13
ENDBRANCH  10   3
TORSDOF 6
ENDMDL
MODEL 2
REMARK VINA RESULT:       0.2      1.672      3.636
REMARK  Name = 11886486
REMARK  7 active torsions:
REMARK  status: ('A' for Active; 'I' for Inactive)
REMARK    1  A    between atoms: O_3  and  C_10
REMARK    2  A    between atoms: O_3  and  C_13
REMARK    3  A    between atoms: O_5  and  C_25
REMARK    4  A    between atoms: O_5  and  C_27
REMARK    5  A    between atoms: N_6  and  C_9
REMARK    6  A    between atoms: C_13  and  C_15
REMARK    7  A    between atoms: C_14  and  C_16
REMARK                            x       y       z     vdW  Elec       q    Type
REMARK                         _______ _______ _______ _____ _____    ______ ____
ROOT
ATOM      1  O   UNL     1      -1.724   0.303  24.758  0.00  0.00    -0.369 OA
ATOM      2  O   UNL     1      -2.263   2.552  22.746  0.00  0.00    -0.369 OA
ATOM      7  C   UNL     1      -1.063   2.165  23.448  0.00  0.00    +0.172 C 
ATOM      8  C   UNL     1      -1.490   1.719  24.833  0.00  0.00    +0.180 C 
ATOM      9  C   UNL     1      -0.479   0.917  22.828  0.00  0.00    +0.130 C 
ATOM     10  C   UNL     1      -2.772   2.488  25.042  0.00  0.00    +0.175 C 
ATOM     11  C   UNL     1      -1.309  -0.181  23.471  0.00  0.00    +0.185 C 
ATOM     12  C   UNL     1      -3.372   2.494  23.655  0.00  0.00    +0.194 C 
ENDROOT
BRANCH   9   6
ATOM      4  O   UNL     1       1.471  -0.622  21.389  0.00  0.00    -0.270 OA
ATOM      6  N   UNL     1       0.919   0.776  23.154  0.00  0.00    -0.304 N 
ATOM     14  C   UNL     1       1.788   0.007  22.394  0.00  0.00    +0.244 C 
ATOM     28  H   UNL     1       1.227   1.174  24.036  0.00  0.00    +0.149 HD
BRANCH  14  16
ATOM     16  C   UNL     1       3.192  -0.057  22.877  0.00  0.00    +0.037 A 
ATOM     19  C   UNL     1       4.003   1.049  22.722  0.00  0.00    +0.016 A 
ATOM     20  C   UNL     1       3.642  -1.222  23.464  0.00  0.00    +0.016 A 
ATOM     21  C   UNL     1       5.319   0.988  23.174  0.00  0.00    +0.046 A 
ATOM     22  C   UNL     1       4.960  -1.283  23.917  0.00  0.00    +0.046 A 
ATOM     25  C   UNL     1       5.799  -0.178  23.772  0.00  0.00    +0.120 A 
BRANCH  25   5
ATOM      5  O   UNL     1       7.085  -0.238  24.213  0.00  0.00    -0.495 OA
ATOM     27  C   UNL     1       8.109  -0.292  23.221  0.00  0.00    +0.277 C 
ENDBRANCH  25   5
ENDBRANCH  14  16
ENDBRANCH   9   6
BRANCH  10   3
ATOM      3  O   UNL     1      -3.632   1.898  25.991  0.00  0.00    -0.367 OA
BRANCH   3  13
ATOM     13  C   UNL     1      -4.724   1.222  25.373  0.00  0.00    +0.195 C 
BRANCH  13  15
ATOM     15  C   UNL     1      -4.344  -0.211  25.139  0.00  0.00    -0.022 A 
ATOM     17  C   UNL     1      -3.685  -0.920  26.138  0.00  0.00    +0.006 A 
ATOM     18  C   UNL     1      -4.654  -0.816  23.926  0.00  0.00    +0.006 A 
ATOM     23  C   UNL     1      -3.331  -2.252  25.919  0.00  0.00    +0.000 A 
ATOM     24  C   UNL     1      -4.302  -2.148  23.708  0.00  0.00    +0.000 A 
ATOM     26  C   UNL     1      -3.640  -2.865  24.705  0.00  0.00    +0.000 A 
ENDBRANCH  13  15
ENDBRANCH   3  13
ENDBRANCH  10   3
TORSDOF 6
ENDMDL
MODEL 3
REMARK VINA RESULT:       1.2     14.011     18.242
REMARK  Name = 11886486
REMARK  7 active torsions:
REMARK  status: ('A' for Active; 'I' for Inactive)
REMARK    1  A    between atoms: O_3  and  C_10
REMARK    2  A    between atoms: O_3  and  C_13
REMARK    3  A    between atoms: O_5  and  C_25
REMARK    4  A    between atoms: O_5  and  C_27
REMARK    5  A    between atoms: N_6  and  C_9
REMARK    6  A    between atoms: C_13  and  C_15
REMARK    7  A    between atoms: C_14  and  C_16
REMARK                            x       y       z     vdW  Elec       q    Type
REMARK                         _______ _______ _______ _____ _____    ______ ____
ROOT
ATOM      1  O   UNL     1      13.660  -8.717  29.225  0.00  0.00    -0.369 OA
ATOM      2  O   UNL     1      15.544  -8.414  31.625  0.00  0.00    -0.369 OA
ATOM      7  C   UNL     1      14.122  -8.210  31.495  0.00  0.00    +0.172 C 
ATOM      8  C   UNL     1      13.887  -7.615  30.121  0.00  0.00    +0.180 C 
ATOM      9  C   UNL     1      13.409  -9.542  31.440  0.00  0.00    +0.130 C 
ATOM     10  C   UNL     1      15.199  -6.925  29.837  0.00  0.00    +0.175 C 
ATOM     11  C   UNL     1      13.571  -9.934  29.982  0.00  0.00    +0.185 C 
ATOM     12  C   UNL     1      16.199  -7.862  30.473  0.00  0.00    +0.194 C 
ENDROOT
BRANCH   9   6
ATOM      4  O   UNL     1      11.160 -10.600  30.003  0.00  0.00    -0.270 OA
ATOM      6  N   UNL     1      12.018  -9.405  31.796  0.00  0.00    -0.304 N 
ATOM     14  C   UNL     1      10.996  -9.955  31.035  0.00  0.00    +0.244 C 
ATOM     28  H   UNL     1      11.801  -8.789  32.572  0.00  0.00    +0.149 HD
BRANCH  14  16
ATOM     16  C   UNL     1       9.615  -9.704  31.522  0.00  0.00    +0.037 A 
ATOM     19  C   UNL     1       9.175  -8.401  31.637  0.00  0.00    +0.016 A 
ATOM     20  C   UNL     1       8.816 -10.781  31.844  0.00  0.00    +0.016 A 
ATOM     21  C   UNL     1       7.879  -8.165  32.094  0.00  0.00    +0.046 A 
ATOM     22  C   UNL     1       7.519 -10.545  32.302  0.00  0.00    +0.046 A 
ATOM     25  C   UNL     1       7.050  -9.238  32.426  0.00  0.00    +0.120 A 
BRANCH  25   5
ATOM      5  O   UNL     1       5.786  -9.008  32.873  0.00  0.00    -0.495 OA
ATOM     27  C   UNL     1       5.238  -7.713  32.633  0.00  0.00    +0.277 C 
ENDBRANCH  25   5
ENDBRANCH  14  16
ENDBRANCH   9   6
BRANCH  10   3
ATOM      3  O   UNL     1      15.450  -6.736  28.462  0.00  0.00    -0.367 OA
BRANCH   3  13
ATOM     13  C   UNL     1      16.698  -6.089  28.230  0.00  0.00    +0.195 C 
BRANCH  13  15
ATOM     15  C   UNL     1      16.679  -4.740  28.888  0.00  0.00    -0.022 A 
ATOM     17  C   UNL     1      17.270  -3.655  28.249  0.00  0.00    +0.006 A 
ATOM     18  C   UNL     1      16.072  -4.588  30.130  0.00  0.00    +0.006 A 
ATOM     23  C   UNL     1      17.253  -2.401  28.861  0.00  0.00    +0.000 A 
ATOM     24  C   UNL     1      16.055  -3.334  30.741  0.00  0.00    +0.000 A 
ATOM     26  C   UNL     1      16.645  -2.241  30.107  0.00  0.00    +0.000 A 
ENDBRANCH  13  15
ENDBRANCH   3  13
ENDBRANCH  10   3
TORSDOF 6
ENDMDL
MODEL 4
REMARK VINA RESULT:       1.4      1.723      4.033
REMARK  Name = 11886486
REMARK  7 active torsions:
REMARK  status: ('A' for Active; 'I' for Inactive)
REMARK    1  A    between atoms: O_3  and  C_10
REMARK    2  A    between atoms: O_3  and  C_13
REMARK    3  A    between atoms: O_5  and  C_25
REMARK    4  A    between atoms: O_5  and  C_27
REMARK    5  A    between atoms: N_6  and  C_9
REMARK    6  A    between atoms: C_13  and  C_15
REMARK    7  A    between atoms: C_14  and  C_16
REMARK                            x       y       z     vdW  Elec       q    Type
REMARK                         _______ _______ _______ _____ _____    ______ ____
ROOT
ATOM      1  O   UNL     1      -2.874   2.055  23.475  0.00  0.00    -0.369 OA
ATOM      2  O   UNL     1      -2.644   4.449  25.375  0.00  0.00    -0.369 OA
ATOM      7  C   UNL     1      -1.756   3.340  25.124  0.00  0.00    +0.172 C 
ATOM      8  C   UNL     1      -2.630   2.123  24.889  0.00  0.00    +0.180 C 
ATOM      9  C   UNL     1      -1.044   3.534  23.806  0.00  0.00    +0.130 C 
ATOM     10  C   UNL     1      -3.883   2.469  25.658  0.00  0.00    +0.175 C 
ATOM     11  C   UNL     1      -2.076   3.044  22.806  0.00  0.00    +0.185 C 
ATOM     12  C   UNL     1      -3.993   3.960  25.438  0.00  0.00    +0.194 C 
ENDROOT
BRANCH   9   6
ATOM      4  O   UNL     1      -0.821   0.800  22.959  0.00  0.00    -0.270 OA
ATOM      6  N   UNL     1       0.164   2.748  23.743  0.00  0.00    -0.304 N 
ATOM     14  C   UNL     1       0.172   1.427  23.318  0.00  0.00    +0.244 C 
ATOM     28  H   UNL     1       1.003   3.164  24.133  0.00  0.00    +0.149 HD
BRANCH  14  16
ATOM     16  C   UNL     1       1.492   0.746  23.336  0.00  0.00    +0.037 A 
ATOM     19  C   UNL     1       1.542  -0.607  23.606  0.00  0.00    +0.016 A 
ATOM     20  C   UNL     1       2.628   1.488  23.083  0.00  0.00    +0.016 A 
ATOM     21  C   UNL     1       2.781  -1.245  23.623  0.00  0.00    +0.046 A 
ATOM     22  C   UNL     1       3.868   0.848  23.100  0.00  0.00    +0.046 A 
ATOM     25  C   UNL     1       3.945  -0.518  23.370  0.00  0.00    +0.120 A 
BRANCH  25   5
ATOM      5  O   UNL     1       5.154  -1.141  23.388  0.00  0.00    -0.495 OA
ATOM     27  C   UNL     1       6.310  -0.312  23.505  0.00  0.00    +0.277 C 
ENDBRANCH  25   5
ENDBRANCH  14  16
ENDBRANCH   9   6
BRANCH  10   3
ATOM      3  O   UNL     1      -5.027   1.780  25.206  0.00  0.00    -0.367 OA
BRANCH   3  13
ATOM     13  C   UNL     1      -5.242   0.570  25.927  0.00  0.00    +0.195 C 
BRANCH  13  15
ATOM     15  C   UNL     1      -4.378  -0.509  25.343  0.00  0.00    -0.022 A 
ATOM     17  C   UNL     1      -4.656  -1.000  24.072  0.00  0.00    +0.006 A 
ATOM     18  C   UNL     1      -3.308  -1.008  26.078  0.00  0.00    +0.006 A 
ATOM     23  C   UNL     1      -3.853  -2.004  23.530  0.00  0.00    +0.000 A 
ATOM     24  C   UNL     1      -2.505  -2.011  25.536  0.00  0.00    +0.000 A 
ATOM     26  C   UNL     1      -2.778  -2.509  24.262  0.00  0.00    +0.000 A 
ENDBRANCH  13  15
ENDBRANCH   3  13
ENDBRANCH  10   3
TORSDOF 6
ENDMDL
MODEL 5
REMARK VINA RESULT:       2.8     14.098     18.537
REMARK  Name = 11886486
REMARK  7 active torsions:
REMARK  status: ('A' for Active; 'I' for Inactive)
REMARK    1  A    between atoms: O_3  and  C_10
REMARK    2  A    between atoms: O_3  and  C_13
REMARK    3  A    between atoms: O_5  and  C_25
REMARK    4  A    between atoms: O_5  and  C_27
REMARK    5  A    between atoms: N_6  and  C_9
REMARK    6  A    between atoms: C_13  and  C_15
REMARK    7  A    between atoms: C_14  and  C_16
REMARK                            x       y       z     vdW  Elec       q    Type
REMARK                         _______ _______ _______ _____ _____    ______ ____
ROOT
ATOM      1  O   UNL     1      13.164  -8.559  29.403  0.00  0.00    -0.369 OA
ATOM      2  O   UNL     1      14.998  -7.841  31.753  0.00  0.00    -0.369 OA
ATOM      7  C   UNL     1      13.584  -7.638  31.547  0.00  0.00    +0.172 C 
ATOM      8  C   UNL     1      13.397  -7.312  30.078  0.00  0.00    +0.180 C 
ATOM      9  C   UNL     1      12.841  -8.942  31.726  0.00  0.00    +0.130 C 
ATOM     10  C   UNL     1      14.731  -6.713  29.705  0.00  0.00    +0.175 C 
ATOM     11  C   UNL     1      13.027  -9.608  30.374  0.00  0.00    +0.185 C 
ATOM     12  C   UNL     1      15.693  -7.532  30.535  0.00  0.00    +0.194 C 
ENDROOT
BRANCH   9   6
ATOM      4  O   UNL     1      10.611 -10.391  30.644  0.00  0.00    -0.270 OA
ATOM      6  N   UNL     1      11.446  -8.713  32.011  0.00  0.00    -0.304 N 
ATOM     14  C   UNL     1      10.434  -9.470  31.437  0.00  0.00    +0.244 C 
ATOM     28  H   UNL     1      11.219  -7.895  32.567  0.00  0.00    +0.149 HD
BRANCH  14  16
ATOM     16  C   UNL     1       9.047  -9.092  31.813  0.00  0.00    +0.037 A 
ATOM     19  C   UNL     1       8.697  -7.757  31.823  0.00  0.00    +0.016 A 
ATOM     20  C   UNL     1       8.151 -10.089  32.141  0.00  0.00    +0.016 A 
ATOM     21  C   UNL     1       7.396  -7.404  32.176  0.00  0.00    +0.046 A 
ATOM     22  C   UNL     1       6.849  -9.735  32.495  0.00  0.00    +0.046 A 
ATOM     25  C   UNL     1       6.470  -8.393  32.512  0.00  0.00    +0.120 A 
BRANCH  25   5
ATOM      5  O   UNL     1       5.201  -8.048  32.858  0.00  0.00    -0.495 OA
ATOM     27  C   UNL     1       4.226  -9.090  32.873  0.00  0.00    +0.277 C 
ENDBRANCH  25   5
ENDBRANCH  14  16
ENDBRANCH   9   6
BRANCH  10   3
ATOM      3  O   UNL     1      15.018  -6.795  28.327  0.00  0.00    -0.367 OA
BRANCH   3  13
ATOM     13  C   UNL     1      16.406  -7.008  28.082  0.00  0.00    +0.195 C 
BRANCH  13  15
ATOM     15  C   UNL     1      16.563  -8.139  27.108  0.00  0.00    -0.022 A 
ATOM     17  C   UNL     1      16.868  -7.865  25.779  0.00  0.00    +0.006 A 
ATOM     18  C   UNL     1      16.404  -9.450  27.544  0.00  0.00    +0.006 A 
ATOM     23  C   UNL     1      17.014  -8.917  24.874  0.00  0.00    +0.000 A 
ATOM     24  C   UNL     1      16.551 -10.501  26.640  0.00  0.00    +0.000 A 
ATOM     26  C   UNL     1      16.856 -10.235  25.305  0.00  0.00    +0.000 A 
ENDBRANCH  13  15
ENDBRANCH   3  13
ENDBRANCH  10   3
TORSDOF 6
ENDMDL
MODEL 6
REMARK VINA RESULT:       3.2      1.876      2.914
REMARK  Name = 11886486
REMARK  7 active torsions:
REMARK  status: ('A' for Active; 'I' for Inactive)
REMARK    1  A    between atoms: O_3  and  C_10
REMARK    2  A    between atoms: O_3  and  C_13
REMARK    3  A    between atoms: O_5  and  C_25
REMARK    4  A    between atoms: O_5  and  C_27
REMARK    5  A    between atoms: N_6  and  C_9
REMARK    6  A    between atoms: C_13  and  C_15
REMARK    7  A    between atoms: C_14  and  C_16
REMARK                            x       y       z     vdW  Elec       q    Type
REMARK                         _______ _______ _______ _____ _____    ______ ____
ROOT
ATOM      1  O   UNL     1      -1.279   1.880  25.492  0.00  0.00    -0.369 OA
ATOM      2  O   UNL     1      -2.349   1.381  22.662  0.00  0.00    -0.369 OA
ATOM      7  C   UNL     1      -1.003   1.478  23.171  0.00  0.00    +0.172 C 
ATOM      8  C   UNL     1      -1.015   2.547  24.246  0.00  0.00    +0.180 C 
ATOM      9  C   UNL     1      -0.639   0.216  23.920  0.00  0.00    +0.130 C 
ATOM     10  C   UNL     1      -2.172   3.420  23.823  0.00  0.00    +0.175 C 
ATOM     11  C   UNL     1      -1.261   0.459  25.283  0.00  0.00    +0.185 C 
ATOM     12  C   UNL     1      -3.148   2.411  23.265  0.00  0.00    +0.194 C 
ENDROOT
BRANCH   9   6
ATOM      4  O   UNL     1       1.207  -0.066  21.738  0.00  0.00    -0.270 OA
ATOM      6  N   UNL     1       0.792   0.060  24.016  0.00  0.00    -0.304 N 
ATOM     14  C   UNL     1       1.605  -0.069  22.900  0.00  0.00    +0.244 C 
ATOM     28  H   UNL     1       1.178  -0.067  24.946  0.00  0.00    +0.149 HD
BRANCH  14  16
ATOM     16  C   UNL     1       3.056  -0.249  23.168  0.00  0.00    +0.037 A 
ATOM     19  C   UNL     1       3.478  -1.391  23.817  0.00  0.00    +0.016 A 
ATOM     20  C   UNL     1       3.934   0.734  22.762  0.00  0.00    +0.016 A 
ATOM     21  C   UNL     1       4.839  -1.559  24.069  0.00  0.00    +0.046 A 
ATOM     22  C   UNL     1       5.296   0.566  23.015  0.00  0.00    +0.046 A 
ATOM     25  C   UNL     1       5.749  -0.580  23.668  0.00  0.00    +0.120 A 
BRANCH  25   5
ATOM      5  O   UNL     1       7.077  -0.743  23.915  0.00  0.00    -0.495 OA
ATOM     27  C   UNL     1       7.968   0.202  23.325  0.00  0.00    +0.277 C 
ENDBRANCH  25   5
ENDBRANCH  14  16
ENDBRANCH   9   6
BRANCH  10   3
ATOM      3  O   UNL     1      -2.729   4.168  24.881  0.00  0.00    -0.367 OA
BRANCH   3  13
ATOM     13  C   UNL     1      -4.092   4.505  24.637  0.00  0.00    +0.195 C 
BRANCH  13  15
ATOM     15  C   UNL     1      -4.971   3.415  25.177  0.00  0.00    -0.022 A 
ATOM     17  C   UNL     1      -5.037   3.202  26.550  0.00  0.00    +0.006 A 
ATOM     18  C   UNL     1      -5.711   2.630  24.301  0.00  0.00    +0.006 A 
ATOM     23  C   UNL     1      -5.854   2.188  27.052  0.00  0.00    +0.000 A 
ATOM     24  C   UNL     1      -6.528   1.617  24.802  0.00  0.00    +0.000 A 
ATOM     26  C   UNL     1      -6.600   1.396  26.178  0.00  0.00    +0.000 A 
ENDBRANCH  13  15
ENDBRANCH   3  13
ENDBRANCH  10   3
TORSDOF 6
ENDMDL
