MODEL 1
REMARK VINA RESULT:       4.3      0.000      0.000
REMARK  Name = 45783324
REMARK  6 active torsions:
REMARK  status: ('A' for Active; 'I' for Inactive)
REMARK    1  A    between atoms: N_3  and  C_13
REMARK    2  A    between atoms: C_9  and  C_19
REMARK    3  A    between atoms: C_13  and  C_20
REMARK    4  A    between atoms: C_14  and  C_22
REMARK    5  A    between atoms: C_20  and  C_24
REMARK    6  A    between atoms: C_23  and  C_26
REMARK                            x       y       z     vdW  Elec       q    Type
REMARK                         _______ _______ _______ _____ _____    ______ ____
ROOT
ATOM      4  N   UNL     1       1.303  -0.197  23.268  0.00  0.00    -0.315 N 
ATOM      7  N   UNL     1       0.088  -2.157  23.808  0.00  0.00    -0.240 NA
ATOM     14  C   UNL     1       3.772   1.017  22.338  0.00  0.00    +0.078 C 
ATOM     15  C   UNL     1       2.844   1.725  23.322  0.00  0.00    +0.031 C 
ATOM     16  C   UNL     1       3.013  -0.015  21.505  0.00  0.00    +0.031 C 
ATOM     17  C   UNL     1       1.977   0.768  24.141  0.00  0.00    +0.107 C 
ATOM     18  C   UNL     1       2.166  -0.960  22.358  0.00  0.00    +0.107 C 
ATOM     21  C   UNL     1       0.120  -0.809  23.698  0.00  0.00    +0.122 A 
ATOM     25  C   UNL     1      -0.954   0.018  23.986  0.00  0.00    +0.055 A 
ATOM     26  C   UNL     1      -2.137  -0.575  24.413  0.00  0.00    +0.027 A 
ATOM     27  C   UNL     1      -2.208  -1.958  24.538  0.00  0.00    +0.031 A 
ATOM     28  C   UNL     1      -1.079  -2.698  24.226  0.00  0.00    +0.113 A 
ENDROOT
BRANCH  26  23
ATOM      1  O   UNL     1      -5.287   0.948  24.891  0.00  0.00    -0.336 OA
ATOM      5  N   UNL     1      -3.153   1.431  25.374  0.00  0.00    -0.190 NA
ATOM      6  N   UNL     1      -4.525  -0.120  24.402  0.00  0.00    -0.056 NA
ATOM     19  C   UNL     1      -4.402   1.817  25.447  0.00  0.00    +0.245 A 
ATOM     23  C   UNL     1      -3.278   0.237  24.725  0.00  0.00    +0.202 A 
BRANCH  19   9
ATOM      3  N   UNL     1      -4.336   4.302  25.551  0.00  0.00    -0.291 NA
ATOM      9  C   UNL     1      -4.983   3.075  26.056  0.00  0.00    +0.146 C 
ATOM     10  C   UNL     1      -6.478   3.258  25.731  0.00  0.00    +0.030 C 
ATOM     11  C   UNL     1      -5.348   5.358  25.612  0.00  0.00    +0.085 C 
ATOM     12  C   UNL     1      -6.581   4.640  25.102  0.00  0.00    +0.017 C 
BRANCH   3  13
ATOM     13  C   UNL     1      -3.128   4.658  26.285  0.00  0.00    +0.085 C 
BRANCH  13  20
ATOM     20  C   UNL     1      -1.993   4.972  25.314  0.00  0.00    +0.012 C 
ATOM     24  C   UNL     1      -0.945   3.870  25.311  0.00  0.00    +0.005 C 
ENDBRANCH  13  20
ENDBRANCH   3  13
ENDBRANCH  19   9
ENDBRANCH  26  23
BRANCH  14  22
ATOM      2  O   UNL     1       5.732  -0.350  22.456  0.00  0.00    -0.276 OA
ATOM      8  N   UNL     1       4.991   0.661  24.387  0.00  0.00    -0.329 N 
ATOM     22  C   UNL     1       4.931   0.375  23.043  0.00  0.00    +0.214 C 
ATOM     29  H   UNL     1       5.735   0.283  24.963  0.00  0.00    +0.145 HD
ATOM     30  H   UNL     1       4.287   1.211  24.866  0.00  0.00    +0.145 HD
ENDBRANCH  14  22
TORSDOF 5
ENDMDL
MODEL 2
REMARK VINA RESULT:       7.8      1.736      2.604
REMARK  Name = 45783324
REMARK  6 active torsions:
REMARK  status: ('A' for Active; 'I' for Inactive)
REMARK    1  A    between atoms: N_3  and  C_13
REMARK    2  A    between atoms: C_9  and  C_19
REMARK    3  A    between atoms: C_13  and  C_20
REMARK    4  A    between atoms: C_14  and  C_22
REMARK    5  A    between atoms: C_20  and  C_24
REMARK    6  A    between atoms: C_23  and  C_26
REMARK                            x       y       z     vdW  Elec       q    Type
REMARK                         _______ _______ _______ _____ _____    ______ ____
ROOT
ATOM      4  N   UNL     1       3.436  -0.065  23.059  0.00  0.00    -0.315 N 
ATOM      7  N   UNL     1       1.859  -0.330  21.311  0.00  0.00    -0.240 NA
ATOM     14  C   UNL     1       6.210   0.152  23.888  0.00  0.00    +0.078 C 
ATOM     15  C   UNL     1       5.143  -0.466  24.790  0.00  0.00    +0.031 C 
ATOM     16  C   UNL     1       5.591   1.113  22.875  0.00  0.00    +0.031 C 
ATOM     17  C   UNL     1       3.954  -1.042  24.020  0.00  0.00    +0.107 C 
ATOM     18  C   UNL     1       4.412   0.499  22.119  0.00  0.00    +0.107 C 
ATOM     21  C   UNL     1       2.107  -0.157  22.629  0.00  0.00    +0.122 A 
ATOM     25  C   UNL     1       1.119  -0.061  23.597  0.00  0.00    +0.055 A 
ATOM     26  C   UNL     1      -0.206  -0.148  23.186  0.00  0.00    +0.027 A 
ATOM     27  C   UNL     1      -0.499  -0.327  21.839  0.00  0.00    +0.031 A 
ATOM     28  C   UNL     1       0.559  -0.411  20.949  0.00  0.00    +0.113 A 
ENDROOT
BRANCH  26  23
ATOM      1  O   UNL     1      -2.613  -0.513  25.745  0.00  0.00    -0.336 OA
ATOM      5  N   UNL     1      -2.080   1.038  24.218  0.00  0.00    -0.190 NA
ATOM      6  N   UNL     1      -1.523  -1.028  25.031  0.00  0.00    -0.056 NA
ATOM     19  C   UNL     1      -2.876   0.704  25.202  0.00  0.00    +0.245 A 
ATOM     23  C   UNL     1      -1.266  -0.056  24.150  0.00  0.00    +0.202 A 
BRANCH  19   9
ATOM      3  N   UNL     1      -4.065   2.885  25.361  0.00  0.00    -0.291 NA
ATOM      9  C   UNL     1      -4.028   1.478  25.808  0.00  0.00    +0.146 C 
ATOM     10  C   UNL     1      -5.402   0.906  25.413  0.00  0.00    +0.030 C 
ATOM     11  C   UNL     1      -5.470   3.292  25.393  0.00  0.00    +0.085 C 
ATOM     12  C   UNL     1      -6.161   2.078  24.808  0.00  0.00    +0.017 C 
BRANCH   3  13
ATOM     13  C   UNL     1      -3.221   3.764  26.160  0.00  0.00    +0.085 C 
BRANCH  13  20
ATOM     20  C   UNL     1      -2.295   4.574  25.257  0.00  0.00    +0.012 C 
ATOM     24  C   UNL     1      -0.865   4.062  25.326  0.00  0.00    +0.005 C 
ENDBRANCH  13  20
ENDBRANCH   3  13
ENDBRANCH  19   9
ENDBRANCH  26  23
BRANCH  14  22
ATOM      2  O   UNL     1       6.591  -2.042  23.015  0.00  0.00    -0.276 OA
ATOM      8  N   UNL     1       8.262  -0.475  22.791  0.00  0.00    -0.329 N 
ATOM     22  C   UNL     1       7.017  -0.903  23.190  0.00  0.00    +0.214 C 
ATOM     29  H   UNL     1       8.894  -1.104  22.307  0.00  0.00    +0.145 HD
ATOM     30  H   UNL     1       8.621   0.450  22.998  0.00  0.00    +0.145 HD
ENDBRANCH  14  22
TORSDOF 5
ENDMDL
