MODEL 1
REMARK VINA RESULT:      -3.6      0.000      0.000
REMARK  Name = 45784038
REMARK  13 active torsions:
REMARK  status: ('A' for Active; 'I' for Inactive)
REMARK    1  A    between atoms: O_3  and  C_26
REMARK    2  A    between atoms: O_3  and  C_29
REMARK    3  A    between atoms: N_4  and  C_15
REMARK    4  A    between atoms: N_4  and  C_21
REMARK    5  A    between atoms: C_8  and  C_12
REMARK    6  A    between atoms: C_9  and  C_15
REMARK    7  A    between atoms: C_11  and  C_16
REMARK    8  A    between atoms: C_12  and  C_17
REMARK    9  A    between atoms: C_12  and  C_18
REMARK   10  A    between atoms: C_13  and  C_19
REMARK   11  A    between atoms: C_16  and  C_20
REMARK   12  A    between atoms: C_21  and  C_22
REMARK   13  A    between atoms: C_23  and  C_26
REMARK                            x       y       z     vdW  Elec       q    Type
REMARK                         _______ _______ _______ _____ _____    ______ ____
ROOT
ATOM      8  C   UNL     1      -4.122   2.922  25.136  0.00  0.00    +0.000 C 
ATOM      9  C   UNL     1      -3.773   3.610  23.792  0.00  0.00    +0.029 C 
ATOM     10  C   UNL     1      -3.735   3.826  26.317  0.00  0.00    +0.012 C 
ATOM     11  C   UNL     1      -2.233   4.168  26.320  0.00  0.00    +0.024 C 
ATOM     13  C   UNL     1      -1.751   4.601  24.951  0.00  0.00    -0.073 C 
ATOM     14  C   UNL     1      -2.459   4.354  23.833  0.00  0.00    -0.023 C 
ATOM     19  C   UNL     1      -0.458   5.365  24.898  0.00  0.00    +0.039 C 
ENDROOT
BRANCH   8  12
ATOM     12  C   UNL     1      -5.611   2.566  25.223  0.00  0.00    -0.013 C 
ATOM     17  C   UNL     1      -5.819   1.372  26.150  0.00  0.00    +0.007 C 
ATOM     18  C   UNL     1      -6.419   3.768  25.699  0.00  0.00    +0.007 C 
ENDBRANCH   8  12
BRANCH   9  15
ATOM     15  C   UNL     1      -3.750   2.595  22.642  0.00  0.00    +0.089 C 
BRANCH  15   4
ATOM      4  N   UNL     1      -3.011   1.404  23.025  0.00  0.00    -0.311 NA
ATOM     35  H   UNL     1      -2.163   1.323  22.466  0.00  0.00    +0.122 HD
BRANCH   4  21
ATOM     21  C   UNL     1      -3.821   0.205  22.845  0.00  0.00    +0.117 C 
BRANCH  21  22
ATOM      7  N   UNL     1      -3.609  -3.095  24.689  0.00  0.00    -0.263 NA
ATOM     22  C   UNL     1      -3.597  -0.793  23.951  0.00  0.00    -0.016 A 
ATOM     24  C   UNL     1      -3.188  -0.382  25.214  0.00  0.00    +0.008 A 
ATOM     25  C   UNL     1      -3.792  -2.148  23.741  0.00  0.00    +0.115 A 
ATOM     27  C   UNL     1      -2.989  -1.326  26.216  0.00  0.00    +0.020 A 
ATOM     28  C   UNL     1      -3.211  -2.658  25.905  0.00  0.00    +0.111 A 
ENDBRANCH  21  22
ENDBRANCH   4  21
ENDBRANCH  15   4
ENDBRANCH   9  15
BRANCH  11  16
ATOM     16  C   UNL     1      -1.400   2.995  26.849  0.00  0.00    +0.105 C 
BRANCH  16  20
ATOM      2  O   UNL     1      -0.780   1.220  25.293  0.00  0.00    -0.421 OA
ATOM      5  N   UNL     1       0.588   2.990  25.255  0.00  0.00    -0.112 NA
ATOM      6  N   UNL     1       1.053   2.071  24.333  0.00  0.00    -0.109 NA
ATOM     20  C   UNL     1      -0.483   2.452  25.791  0.00  0.00    +0.218 A 
ATOM     23  C   UNL     1       0.224   1.055  24.390  0.00  0.00    +0.254 A 
BRANCH  23  26
ATOM     26  C   UNL     1       0.232  -0.202  23.629  0.00  0.00    +0.326 C 
BRANCH  26   3
ATOM      3  O   UNL     1       1.155  -0.116  22.540  0.00  0.00    -0.483 OA
BRANCH   3  29
ATOM      1  F   UNL     1       6.494  -0.255  23.836  0.00  0.00    -0.205 F 
ATOM     29  C   UNL     1       2.482  -0.151  22.862  0.00  0.00    +0.121 A 
ATOM     30  C   UNL     1       3.016  -1.270  23.500  0.00  0.00    +0.048 A 
ATOM     31  C   UNL     1       3.304   0.934  22.554  0.00  0.00    +0.048 A 
ATOM     32  C   UNL     1       4.372  -1.306  23.828  0.00  0.00    +0.042 A 
ATOM     33  C   UNL     1       4.659   0.898  22.883  0.00  0.00    +0.042 A 
ATOM     34  C   UNL     1       5.192  -0.222  23.520  0.00  0.00    +0.124 A 
ENDBRANCH   3  29
ENDBRANCH  26   3
ENDBRANCH  23  26
ENDBRANCH  16  20
ENDBRANCH  11  16
TORSDOF 10
ENDMDL
MODEL 2
REMARK VINA RESULT:      -3.2      2.657      6.146
REMARK  Name = 45784038
REMARK  13 active torsions:
REMARK  status: ('A' for Active; 'I' for Inactive)
REMARK    1  A    between atoms: O_3  and  C_26
REMARK    2  A    between atoms: O_3  and  C_29
REMARK    3  A    between atoms: N_4  and  C_15
REMARK    4  A    between atoms: N_4  and  C_21
REMARK    5  A    between atoms: C_8  and  C_12
REMARK    6  A    between atoms: C_9  and  C_15
REMARK    7  A    between atoms: C_11  and  C_16
REMARK    8  A    between atoms: C_12  and  C_17
REMARK    9  A    between atoms: C_12  and  C_18
REMARK   10  A    between atoms: C_13  and  C_19
REMARK   11  A    between atoms: C_16  and  C_20
REMARK   12  A    between atoms: C_21  and  C_22
REMARK   13  A    between atoms: C_23  and  C_26
REMARK                            x       y       z     vdW  Elec       q    Type
REMARK                         _______ _______ _______ _____ _____    ______ ____
ROOT
ATOM      8  C   UNL     1      -1.773   2.399  23.932  0.00  0.00    +0.000 C 
ATOM      9  C   UNL     1      -0.466   1.567  23.977  0.00  0.00    +0.029 C 
ATOM     10  C   UNL     1      -1.522   3.820  24.458  0.00  0.00    +0.012 C 
ATOM     11  C   UNL     1      -0.993   3.820  25.906  0.00  0.00    +0.024 C 
ATOM     13  C   UNL     1       0.129   2.820  26.096  0.00  0.00    -0.073 C 
ATOM     14  C   UNL     1       0.358   1.827  25.216  0.00  0.00    -0.023 C 
ATOM     19  C   UNL     1       1.012   3.014  27.296  0.00  0.00    +0.039 C 
ENDROOT
BRANCH   8  12
ATOM     12  C   UNL     1      -2.354   2.467  22.515  0.00  0.00    -0.013 C 
ATOM     17  C   UNL     1      -2.562   1.062  21.958  0.00  0.00    +0.007 C 
ATOM     18  C   UNL     1      -3.663   3.248  22.514  0.00  0.00    +0.007 C 
ENDBRANCH   8  12
BRANCH   9  15
ATOM     15  C   UNL     1      -0.763   0.066  23.867  0.00  0.00    +0.089 C 
BRANCH  15   4
ATOM      4  N   UNL     1       0.472  -0.694  23.779  0.00  0.00    -0.311 NA
ATOM     35  H   UNL     1       1.009  -0.592  24.638  0.00  0.00    +0.122 HD
BRANCH   4  21
ATOM     21  C   UNL     1       1.282  -0.249  22.650  0.00  0.00    +0.117 C 
BRANCH  21  22
ATOM      7  N   UNL     1       4.693  -1.322  23.896  0.00  0.00    -0.263 NA
ATOM     22  C   UNL     1       2.747  -0.204  22.997  0.00  0.00    -0.016 A 
ATOM     24  C   UNL     1       3.504   0.938  22.759  0.00  0.00    +0.008 A 
ATOM     25  C   UNL     1       3.383  -1.297  23.561  0.00  0.00    +0.115 A 
ATOM     27  C   UNL     1       4.854   0.952  23.089  0.00  0.00    +0.020 A 
ATOM     28  C   UNL     1       5.396  -0.194  23.650  0.00  0.00    +0.111 A 
ENDBRANCH  21  22
ENDBRANCH   4  21
ENDBRANCH  15   4
ENDBRANCH   9  15
BRANCH  11  16
ATOM     16  C   UNL     1      -2.126   3.570  26.907  0.00  0.00    +0.105 C 
BRANCH  16  20
ATOM      2  O   UNL     1      -3.999   2.293  26.003  0.00  0.00    -0.421 OA
ATOM      5  N   UNL     1      -4.216   4.509  25.793  0.00  0.00    -0.112 NA
ATOM      6  N   UNL     1      -5.338   3.916  25.244  0.00  0.00    -0.109 NA
ATOM     20  C   UNL     1      -3.463   3.525  26.223  0.00  0.00    +0.218 A 
ATOM     23  C   UNL     1      -5.167   2.623  25.389  0.00  0.00    +0.254 A 
BRANCH  23  26
ATOM     26  C   UNL     1      -6.045   1.514  24.992  0.00  0.00    +0.326 C 
BRANCH  26   3
ATOM      3  O   UNL     1      -5.422   0.730  23.970  0.00  0.00    -0.483 OA
BRANCH   3  29
ATOM      1  F   UNL     1      -2.406  -3.541  25.662  0.00  0.00    -0.205 F 
ATOM     29  C   UNL     1      -4.673  -0.332  24.390  0.00  0.00    +0.121 A 
ATOM     30  C   UNL     1      -4.578  -1.477  23.599  0.00  0.00    +0.048 A 
ATOM     31  C   UNL     1      -4.001  -0.272  25.612  0.00  0.00    +0.048 A 
ATOM     32  C   UNL     1      -3.812  -2.561  24.028  0.00  0.00    +0.042 A 
ATOM     33  C   UNL     1      -3.236  -1.356  26.041  0.00  0.00    +0.042 A 
ATOM     34  C   UNL     1      -3.141  -2.500  25.249  0.00  0.00    +0.124 A 
ENDBRANCH   3  29
ENDBRANCH  26   3
ENDBRANCH  23  26
ENDBRANCH  16  20
ENDBRANCH  11  16
TORSDOF 10
ENDMDL
MODEL 3
REMARK VINA RESULT:      -2.8      1.437      4.364
REMARK  Name = 45784038
REMARK  13 active torsions:
REMARK  status: ('A' for Active; 'I' for Inactive)
REMARK    1  A    between atoms: O_3  and  C_26
REMARK    2  A    between atoms: O_3  and  C_29
REMARK    3  A    between atoms: N_4  and  C_15
REMARK    4  A    between atoms: N_4  and  C_21
REMARK    5  A    between atoms: C_8  and  C_12
REMARK    6  A    between atoms: C_9  and  C_15
REMARK    7  A    between atoms: C_11  and  C_16
REMARK    8  A    between atoms: C_12  and  C_17
REMARK    9  A    between atoms: C_12  and  C_18
REMARK   10  A    between atoms: C_13  and  C_19
REMARK   11  A    between atoms: C_16  and  C_20
REMARK   12  A    between atoms: C_21  and  C_22
REMARK   13  A    between atoms: C_23  and  C_26
REMARK                            x       y       z     vdW  Elec       q    Type
REMARK                         _______ _______ _______ _____ _____    ______ ____
ROOT
ATOM      8  C   UNL     1      -3.458   2.104  23.820  0.00  0.00    +0.000 C 
ATOM      9  C   UNL     1      -4.385   3.263  24.265  0.00  0.00    +0.029 C 
ATOM     10  C   UNL     1      -4.260   0.803  23.672  0.00  0.00    +0.012 C 
ATOM     11  C   UNL     1      -4.956   0.395  24.985  0.00  0.00    +0.024 C 
ATOM     13  C   UNL     1      -5.674   1.564  25.629  0.00  0.00    -0.073 C 
ATOM     14  C   UNL     1      -5.415   2.839  25.284  0.00  0.00    -0.023 C 
ATOM     19  C   UNL     1      -6.730   1.233  26.645  0.00  0.00    +0.039 C 
ENDROOT
BRANCH   8  12
ATOM     12  C   UNL     1      -2.741   2.422  22.503  0.00  0.00    -0.013 C 
ATOM     17  C   UNL     1      -2.133   1.155  21.909  0.00  0.00    +0.007 C 
ATOM     18  C   UNL     1      -3.704   3.074  21.516  0.00  0.00    +0.007 C 
ENDBRANCH   8  12
BRANCH   9  15
ATOM     15  C   UNL     1      -3.571   4.439  24.819  0.00  0.00    +0.089 C 
BRANCH  15   4
ATOM      4  N   UNL     1      -3.715   4.525  26.262  0.00  0.00    -0.311 NA
ATOM     35  H   UNL     1      -4.003   5.465  26.530  0.00  0.00    +0.122 HD
BRANCH   4  21
ATOM     21  C   UNL     1      -2.462   4.197  26.934  0.00  0.00    +0.117 C 
BRANCH  21  22
ATOM      7  N   UNL     1       0.074   1.976  25.213  0.00  0.00    -0.263 NA
ATOM     22  C   UNL     1      -1.412   3.730  25.962  0.00  0.00    -0.016 A 
ATOM     24  C   UNL     1      -0.955   4.561  24.947  0.00  0.00    +0.008 A 
ATOM     25  C   UNL     1      -0.871   2.457  26.052  0.00  0.00    +0.115 A 
ATOM     27  C   UNL     1       0.017   4.102  24.064  0.00  0.00    +0.020 A 
ATOM     28  C   UNL     1       0.494   2.813  24.238  0.00  0.00    +0.111 A 
ENDBRANCH  21  22
ENDBRANCH   4  21
ENDBRANCH  15   4
ENDBRANCH   9  15
BRANCH  11  16
ATOM     16  C   UNL     1      -3.961  -0.242  25.962  0.00  0.00    +0.105 C 
BRANCH  16  20
ATOM      2  O   UNL     1      -1.628  -0.699  25.413  0.00  0.00    -0.421 OA
ATOM      5  N   UNL     1      -3.085  -2.093  24.445  0.00  0.00    -0.112 NA
ATOM      6  N   UNL     1      -1.813  -2.464  24.051  0.00  0.00    -0.109 NA
ATOM     20  C   UNL     1      -2.929  -1.059  25.239  0.00  0.00    +0.218 A 
ATOM     23  C   UNL     1      -0.995  -1.623  24.640  0.00  0.00    +0.254 A 
BRANCH  23  26
ATOM     26  C   UNL     1       0.470  -1.548  24.581  0.00  0.00    +0.326 C 
BRANCH  26   3
ATOM      3  O   UNL     1       0.882  -0.746  23.470  0.00  0.00    -0.483 OA
BRANCH   3  29
ATOM      1  F   UNL     1       6.268   0.261  23.045  0.00  0.00    -0.205 F 
ATOM     29  C   UNL     1       2.220  -0.496  23.364  0.00  0.00    +0.121 A 
ATOM     30  C   UNL     1       2.665   0.685  22.770  0.00  0.00    +0.048 A 
ATOM     31  C   UNL     1       3.144  -1.422  23.850  0.00  0.00    +0.048 A 
ATOM     32  C   UNL     1       4.032   0.942  22.663  0.00  0.00    +0.042 A 
ATOM     33  C   UNL     1       4.511  -1.166  23.741  0.00  0.00    +0.042 A 
ATOM     34  C   UNL     1       4.955   0.016  23.148  0.00  0.00    +0.124 A 
ENDBRANCH   3  29
ENDBRANCH  26   3
ENDBRANCH  23  26
ENDBRANCH  16  20
ENDBRANCH  11  16
TORSDOF 10
ENDMDL
MODEL 4
REMARK VINA RESULT:      -2.5      2.429      6.697
REMARK  Name = 45784038
REMARK  13 active torsions:
REMARK  status: ('A' for Active; 'I' for Inactive)
REMARK    1  A    between atoms: O_3  and  C_26
REMARK    2  A    between atoms: O_3  and  C_29
REMARK    3  A    between atoms: N_4  and  C_15
REMARK    4  A    between atoms: N_4  and  C_21
REMARK    5  A    between atoms: C_8  and  C_12
REMARK    6  A    between atoms: C_9  and  C_15
REMARK    7  A    between atoms: C_11  and  C_16
REMARK    8  A    between atoms: C_12  and  C_17
REMARK    9  A    between atoms: C_12  and  C_18
REMARK   10  A    between atoms: C_13  and  C_19
REMARK   11  A    between atoms: C_16  and  C_20
REMARK   12  A    between atoms: C_21  and  C_22
REMARK   13  A    between atoms: C_23  and  C_26
REMARK                            x       y       z     vdW  Elec       q    Type
REMARK                         _______ _______ _______ _____ _____    ______ ____
ROOT
ATOM      8  C   UNL     1      -1.683  -0.537  25.209  0.00  0.00    +0.000 C 
ATOM      9  C   UNL     1      -1.174  -1.867  24.597  0.00  0.00    +0.029 C 
ATOM     10  C   UNL     1      -2.998  -0.766  25.969  0.00  0.00    +0.012 C 
ATOM     11  C   UNL     1      -4.103  -1.341  25.062  0.00  0.00    +0.024 C 
ATOM     13  C   UNL     1      -3.597  -2.496  24.222  0.00  0.00    -0.073 C 
ATOM     14  C   UNL     1      -2.284  -2.723  24.036  0.00  0.00    -0.023 C 
ATOM     19  C   UNL     1      -4.635  -3.412  23.637  0.00  0.00    +0.039 C 
ENDROOT
BRANCH   8  12
ATOM     12  C   UNL     1      -0.646   0.092  26.145  0.00  0.00    -0.013 C 
ATOM     17  C   UNL     1      -0.999   1.550  26.427  0.00  0.00    +0.007 C 
ATOM     18  C   UNL     1      -0.550  -0.701  27.443  0.00  0.00    +0.007 C 
ENDBRANCH   8  12
BRANCH   9  15
ATOM     15  C   UNL     1      -0.127  -1.609  23.507  0.00  0.00    +0.089 C 
BRANCH  15   4
ATOM      4  N   UNL     1       0.542  -0.338  23.729  0.00  0.00    -0.311 NA
ATOM     35  H   UNL     1      -0.146   0.405  23.839  0.00  0.00    +0.122 HD
BRANCH   4  21
ATOM     21  C   UNL     1       1.429  -0.012  22.619  0.00  0.00    +0.117 C 
BRANCH  21  22
ATOM      7  N   UNL     1       4.684  -1.438  23.924  0.00  0.00    -0.263 NA
ATOM     22  C   UNL     1       2.879  -0.113  23.012  0.00  0.00    -0.016 A 
ATOM     24  C   UNL     1       3.743   0.963  22.847  0.00  0.00    +0.008 A 
ATOM     25  C   UNL     1       3.394  -1.281  23.550  0.00  0.00    +0.115 A 
ATOM     27  C   UNL     1       5.077   0.841  23.220  0.00  0.00    +0.020 A 
ATOM     28  C   UNL     1       5.494  -0.370  23.749  0.00  0.00    +0.111 A 
ENDBRANCH  21  22
ENDBRANCH   4  21
ENDBRANCH  15   4
ENDBRANCH   9  15
BRANCH  11  16
ATOM     16  C   UNL     1      -4.717  -0.248  24.180  0.00  0.00    +0.105 C 
BRANCH  16  20
ATOM      2  O   UNL     1      -4.549   2.122  24.733  0.00  0.00    -0.421 OA
ATOM      5  N   UNL     1      -6.060   1.004  25.947  0.00  0.00    -0.112 NA
ATOM      6  N   UNL     1      -6.070   2.323  26.361  0.00  0.00    -0.109 NA
ATOM     20  C   UNL     1      -5.158   0.933  24.996  0.00  0.00    +0.218 A 
ATOM     23  C   UNL     1      -5.174   2.938  25.626  0.00  0.00    +0.254 A 
BRANCH  23  26
ATOM     26  C   UNL     1      -4.767   4.349  25.634  0.00  0.00    +0.326 C 
BRANCH  26   3
ATOM      3  O   UNL     1      -4.083   4.675  24.421  0.00  0.00    -0.483 OA
BRANCH   3  29
ATOM      1  F   UNL     1       1.076   2.840  23.950  0.00  0.00    -0.205 F 
ATOM     29  C   UNL     1      -2.801   4.219  24.304  0.00  0.00    +0.121 A 
ATOM     30  C   UNL     1      -1.766   4.863  24.983  0.00  0.00    +0.048 A 
ATOM     31  C   UNL     1      -2.525   3.109  23.504  0.00  0.00    +0.048 A 
ATOM     32  C   UNL     1      -0.457   4.397  24.864  0.00  0.00    +0.042 A 
ATOM     33  C   UNL     1      -1.215   2.645  23.384  0.00  0.00    +0.042 A 
ATOM     34  C   UNL     1      -0.181   3.288  24.065  0.00  0.00    +0.124 A 
ENDBRANCH   3  29
ENDBRANCH  26   3
ENDBRANCH  23  26
ENDBRANCH  16  20
ENDBRANCH  11  16
TORSDOF 10
ENDMDL
MODEL 5
REMARK VINA RESULT:      -2.3      2.680      7.139
REMARK  Name = 45784038
REMARK  13 active torsions:
REMARK  status: ('A' for Active; 'I' for Inactive)
REMARK    1  A    between atoms: O_3  and  C_26
REMARK    2  A    between atoms: O_3  and  C_29
REMARK    3  A    between atoms: N_4  and  C_15
REMARK    4  A    between atoms: N_4  and  C_21
REMARK    5  A    between atoms: C_8  and  C_12
REMARK    6  A    between atoms: C_9  and  C_15
REMARK    7  A    between atoms: C_11  and  C_16
REMARK    8  A    between atoms: C_12  and  C_17
REMARK    9  A    between atoms: C_12  and  C_18
REMARK   10  A    between atoms: C_13  and  C_19
REMARK   11  A    between atoms: C_16  and  C_20
REMARK   12  A    between atoms: C_21  and  C_22
REMARK   13  A    between atoms: C_23  and  C_26
REMARK                            x       y       z     vdW  Elec       q    Type
REMARK                         _______ _______ _______ _____ _____    ______ ____
ROOT
ATOM      8  C   UNL     1      -1.268   0.558  24.060  0.00  0.00    +0.000 C 
ATOM      9  C   UNL     1       0.129   0.032  23.646  0.00  0.00    +0.029 C 
ATOM     10  C   UNL     1      -1.523   0.284  25.550  0.00  0.00    +0.012 C 
ATOM     11  C   UNL     1      -1.447  -1.217  25.888  0.00  0.00    +0.024 C 
ATOM     13  C   UNL     1      -0.222  -1.870  25.280  0.00  0.00    -0.073 C 
ATOM     14  C   UNL     1       0.478  -1.290  24.288  0.00  0.00    -0.023 C 
ATOM     19  C   UNL     1       0.208  -3.183  25.871  0.00  0.00    +0.039 C 
ENDROOT
BRANCH   8  12
ATOM     12  C   UNL     1      -1.419   2.056  23.776  0.00  0.00    -0.013 C 
ATOM     17  C   UNL     1      -0.063   2.752  23.856  0.00  0.00    +0.007 C 
ATOM     18  C   UNL     1      -2.061   2.278  22.411  0.00  0.00    +0.007 C 
ENDBRANCH   8  12
BRANCH   9  15
ATOM     15  C   UNL     1       0.243  -0.095  22.122  0.00  0.00    +0.089 C 
BRANCH  15   4
ATOM      4  N   UNL     1       1.630  -0.258  21.723  0.00  0.00    -0.311 NA
ATOM     35  H   UNL     1       1.970  -1.176  22.004  0.00  0.00    +0.122 HD
BRANCH   4  21
ATOM     21  C   UNL     1       2.473   0.770  22.324  0.00  0.00    +0.117 C 
BRANCH  21  22
ATOM      7  N   UNL     1       4.744  -1.738  24.022  0.00  0.00    -0.263 NA
ATOM     22  C   UNL     1       3.679   0.179  23.003  0.00  0.00    -0.016 A 
ATOM     24  C   UNL     1       4.814   0.945  23.243  0.00  0.00    +0.008 A 
ATOM     25  C   UNL     1       3.695  -1.146  23.408  0.00  0.00    +0.115 A 
ATOM     27  C   UNL     1       5.914   0.372  23.872  0.00  0.00    +0.020 A 
ATOM     28  C   UNL     1       5.828  -0.961  24.239  0.00  0.00    +0.111 A 
ENDBRANCH  21  22
ENDBRANCH   4  21
ENDBRANCH  15   4
ENDBRANCH   9  15
BRANCH  11  16
ATOM     16  C   UNL     1      -2.726  -1.945  25.459  0.00  0.00    +0.105 C 
BRANCH  16  20
ATOM      2  O   UNL     1      -4.249  -0.110  25.975  0.00  0.00    -0.421 OA
ATOM      5  N   UNL     1      -4.366  -0.829  23.860  0.00  0.00    -0.112 NA
ATOM      6  N   UNL     1      -5.274   0.203  24.011  0.00  0.00    -0.109 NA
ATOM     20  C   UNL     1      -3.791  -0.977  25.031  0.00  0.00    +0.218 A 
ATOM     23  C   UNL     1      -5.170   0.591  25.260  0.00  0.00    +0.254 A 
BRANCH  23  26
ATOM     26  C   UNL     1      -5.893   1.654  25.971  0.00  0.00    +0.326 C 
BRANCH  26   3
ATOM      3  O   UNL     1      -5.854   2.870  25.219  0.00  0.00    -0.483 OA
BRANCH   3  29
ATOM      1  F   UNL     1      -1.105   5.636  25.288  0.00  0.00    -0.205 F 
ATOM     29  C   UNL     1      -4.674   3.557  25.235  0.00  0.00    +0.121 A 
ATOM     30  C   UNL     1      -4.294   4.321  24.132  0.00  0.00    +0.048 A 
ATOM     31  C   UNL     1      -3.846   3.496  26.358  0.00  0.00    +0.048 A 
ATOM     32  C   UNL     1      -3.089   5.024  24.150  0.00  0.00    +0.042 A 
ATOM     33  C   UNL     1      -2.641   4.197  26.375  0.00  0.00    +0.042 A 
ATOM     34  C   UNL     1      -2.263   4.961  25.271  0.00  0.00    +0.124 A 
ENDBRANCH   3  29
ENDBRANCH  26   3
ENDBRANCH  23  26
ENDBRANCH  16  20
ENDBRANCH  11  16
TORSDOF 10
ENDMDL
MODEL 6
REMARK VINA RESULT:      -1.9      2.437      6.407
REMARK  Name = 45784038
REMARK  13 active torsions:
REMARK  status: ('A' for Active; 'I' for Inactive)
REMARK    1  A    between atoms: O_3  and  C_26
REMARK    2  A    between atoms: O_3  and  C_29
REMARK    3  A    between atoms: N_4  and  C_15
REMARK    4  A    between atoms: N_4  and  C_21
REMARK    5  A    between atoms: C_8  and  C_12
REMARK    6  A    between atoms: C_9  and  C_15
REMARK    7  A    between atoms: C_11  and  C_16
REMARK    8  A    between atoms: C_12  and  C_17
REMARK    9  A    between atoms: C_12  and  C_18
REMARK   10  A    between atoms: C_13  and  C_19
REMARK   11  A    between atoms: C_16  and  C_20
REMARK   12  A    between atoms: C_21  and  C_22
REMARK   13  A    between atoms: C_23  and  C_26
REMARK                            x       y       z     vdW  Elec       q    Type
REMARK                         _______ _______ _______ _____ _____    ______ ____
ROOT
ATOM      8  C   UNL     1      -2.626  -1.338  24.397  0.00  0.00    +0.000 C 
ATOM      9  C   UNL     1      -1.634  -0.408  23.656  0.00  0.00    +0.029 C 
ATOM     10  C   UNL     1      -4.041  -1.181  23.821  0.00  0.00    +0.012 C 
ATOM     11  C   UNL     1      -4.557   0.268  23.930  0.00  0.00    +0.024 C 
ATOM     13  C   UNL     1      -3.520   1.270  23.463  0.00  0.00    -0.073 C 
ATOM     14  C   UNL     1      -2.221   0.947  23.334  0.00  0.00    -0.023 C 
ATOM     19  C   UNL     1      -4.019   2.641  23.104  0.00  0.00    +0.039 C 
ENDROOT
BRANCH   8  12
ATOM     12  C   UNL     1      -2.196  -2.807  24.319  0.00  0.00    -0.013 C 
ATOM     17  C   UNL     1      -1.237  -3.142  25.458  0.00  0.00    +0.007 C 
ATOM     18  C   UNL     1      -3.415  -3.722  24.351  0.00  0.00    +0.007 C 
ENDBRANCH   8  12
BRANCH   9  15
ATOM     15  C   UNL     1      -0.340  -0.226  24.459  0.00  0.00    +0.089 C 
BRANCH  15   4
ATOM      4  N   UNL     1       0.739  -1.003  23.874  0.00  0.00    -0.311 NA
ATOM     35  H   UNL     1       1.390  -1.299  24.599  0.00  0.00    +0.122 HD
BRANCH   4  21
ATOM     21  C   UNL     1       1.458  -0.228  22.869  0.00  0.00    +0.117 C 
BRANCH  21  22
ATOM      7  N   UNL     1       4.914  -1.352  23.930  0.00  0.00    -0.263 NA
ATOM     22  C   UNL     1       2.940  -0.204  23.135  0.00  0.00    -0.016 A 
ATOM     24  C   UNL     1       3.701   0.924  22.854  0.00  0.00    +0.008 A 
ATOM     25  C   UNL     1       3.589  -1.307  23.667  0.00  0.00    +0.115 A 
ATOM     27  C   UNL     1       5.067   0.918  23.110  0.00  0.00    +0.020 A 
ATOM     28  C   UNL     1       5.621  -0.235  23.644  0.00  0.00    +0.111 A 
ENDBRANCH  21  22
ENDBRANCH   4  21
ENDBRANCH  15   4
ENDBRANCH   9  15
BRANCH  11  16
ATOM     16  C   UNL     1      -5.022   0.583  25.356  0.00  0.00    +0.105 C 
BRANCH  16  20
ATOM      2  O   UNL     1      -4.232   2.849  25.798  0.00  0.00    -0.421 OA
ATOM      5  N   UNL     1      -6.439   2.698  25.464  0.00  0.00    -0.112 NA
ATOM      6  N   UNL     1      -6.132   4.026  25.701  0.00  0.00    -0.109 NA
ATOM     20  C   UNL     1      -5.300   2.048  25.530  0.00  0.00    +0.218 A 
ATOM     23  C   UNL     1      -4.834   4.066  25.890  0.00  0.00    +0.254 A 
BRANCH  23  26
ATOM     26  C   UNL     1      -3.967   5.216  26.177  0.00  0.00    +0.326 C 
BRANCH  26   3
ATOM      3  O   UNL     1      -2.778   4.786  26.846  0.00  0.00    -0.483 OA
BRANCH   3  29
ATOM      1  F   UNL     1       1.178   2.657  23.681  0.00  0.00    -0.205 F 
ATOM     29  C   UNL     1      -1.795   4.257  26.059  0.00  0.00    +0.121 A 
ATOM     30  C   UNL     1      -1.411   4.910  24.888  0.00  0.00    +0.048 A 
ATOM     31  C   UNL     1      -1.174   3.062  26.426  0.00  0.00    +0.048 A 
ATOM     32  C   UNL     1      -0.406   4.370  24.084  0.00  0.00    +0.042 A 
ATOM     33  C   UNL     1      -0.171   2.522  25.622  0.00  0.00    +0.042 A 
ATOM     34  C   UNL     1       0.214   3.176  24.452  0.00  0.00    +0.124 A 
ENDBRANCH   3  29
ENDBRANCH  26   3
ENDBRANCH  23  26
ENDBRANCH  16  20
ENDBRANCH  11  16
TORSDOF 10
ENDMDL
MODEL 7
REMARK VINA RESULT:      -1.7      2.662      5.821
REMARK  Name = 45784038
REMARK  13 active torsions:
REMARK  status: ('A' for Active; 'I' for Inactive)
REMARK    1  A    between atoms: O_3  and  C_26
REMARK    2  A    between atoms: O_3  and  C_29
REMARK    3  A    between atoms: N_4  and  C_15
REMARK    4  A    between atoms: N_4  and  C_21
REMARK    5  A    between atoms: C_8  and  C_12
REMARK    6  A    between atoms: C_9  and  C_15
REMARK    7  A    between atoms: C_11  and  C_16
REMARK    8  A    between atoms: C_12  and  C_17
REMARK    9  A    between atoms: C_12  and  C_18
REMARK   10  A    between atoms: C_13  and  C_19
REMARK   11  A    between atoms: C_16  and  C_20
REMARK   12  A    between atoms: C_21  and  C_22
REMARK   13  A    between atoms: C_23  and  C_26
REMARK                            x       y       z     vdW  Elec       q    Type
REMARK                         _______ _______ _______ _____ _____    ______ ____
ROOT
ATOM      8  C   UNL     1      -2.691  -0.469  24.928  0.00  0.00    +0.000 C 
ATOM      9  C   UNL     1      -1.699  -0.089  23.800  0.00  0.00    +0.029 C 
ATOM     10  C   UNL     1      -4.134  -0.165  24.498  0.00  0.00    +0.012 C 
ATOM     11  C   UNL     1      -4.337   1.322  24.151  0.00  0.00    +0.024 C 
ATOM     13  C   UNL     1      -3.238   1.845  23.249  0.00  0.00    -0.073 C 
ATOM     14  C   UNL     1      -2.071   1.194  23.094  0.00  0.00    -0.023 C 
ATOM     19  C   UNL     1      -3.528   3.110  22.491  0.00  0.00    +0.039 C 
ENDROOT
BRANCH   8  12
ATOM     12  C   UNL     1      -2.568  -1.946  25.320  0.00  0.00    -0.013 C 
ATOM     17  C   UNL     1      -3.640  -2.773  24.617  0.00  0.00    +0.007 C 
ATOM     18  C   UNL     1      -1.176  -2.471  24.988  0.00  0.00    +0.007 C 
ENDBRANCH   8  12
BRANCH   9  15
ATOM     15  C   UNL     1      -0.267   0.019  24.336  0.00  0.00    +0.089 C 
BRANCH  15   4
ATOM      4  N   UNL     1       0.584   0.714  23.387  0.00  0.00    -0.311 NA
ATOM     35  H   UNL     1       0.019   1.286  22.762  0.00  0.00    +0.122 HD
BRANCH   4  21
ATOM     21  C   UNL     1       1.368  -0.229  22.596  0.00  0.00    +0.117 C 
BRANCH  21  22
ATOM      7  N   UNL     1       4.721  -1.387  23.919  0.00  0.00    -0.263 NA
ATOM     22  C   UNL     1       2.821  -0.216  22.988  0.00  0.00    -0.016 A 
ATOM     24  C   UNL     1       3.603   0.918  22.801  0.00  0.00    +0.008 A 
ATOM     25  C   UNL     1       3.422  -1.333  23.545  0.00  0.00    +0.115 A 
ATOM     27  C   UNL     1       4.943   0.902  23.172  0.00  0.00    +0.020 A 
ATOM     28  C   UNL     1       5.449  -0.265  23.722  0.00  0.00    +0.111 A 
ENDBRANCH  21  22
ENDBRANCH   4  21
ENDBRANCH  15   4
ENDBRANCH   9  15
BRANCH  11  16
ATOM     16  C   UNL     1      -4.457   2.174  25.419  0.00  0.00    +0.105 C 
BRANCH  16  20
ATOM      2  O   UNL     1      -2.125   2.887  25.493  0.00  0.00    -0.421 OA
ATOM      5  N   UNL     1      -3.594   4.572  25.424  0.00  0.00    -0.112 NA
ATOM      6  N   UNL     1      -2.323   5.115  25.462  0.00  0.00    -0.109 NA
ATOM     20  C   UNL     1      -3.430   3.270  25.443  0.00  0.00    +0.218 A 
ATOM     23  C   UNL     1      -1.498   4.095  25.502  0.00  0.00    +0.254 A 
BRANCH  23  26
ATOM     26  C   UNL     1      -0.031   4.081  25.550  0.00  0.00    +0.326 C 
BRANCH  26   3
ATOM      3  O   UNL     1       0.442   2.781  25.912  0.00  0.00    -0.483 OA
BRANCH   3  29
ATOM      1  F   UNL     1       2.242   2.177  31.069  0.00  0.00    -0.205 F 
ATOM     29  C   UNL     1       0.890   2.631  27.193  0.00  0.00    +0.121 A 
ATOM     30  C   UNL     1       2.190   3.008  27.527  0.00  0.00    +0.048 A 
ATOM     31  C   UNL     1       0.046   2.099  28.169  0.00  0.00    +0.048 A 
ATOM     32  C   UNL     1       2.647   2.856  28.837  0.00  0.00    +0.042 A 
ATOM     33  C   UNL     1       0.504   1.945  29.478  0.00  0.00    +0.042 A 
ATOM     34  C   UNL     1       1.804   2.324  29.812  0.00  0.00    +0.124 A 
ENDBRANCH   3  29
ENDBRANCH  26   3
ENDBRANCH  23  26
ENDBRANCH  16  20
ENDBRANCH  11  16
TORSDOF 10
ENDMDL
MODEL 8
REMARK VINA RESULT:      -1.5      1.955      4.743
REMARK  Name = 45784038
REMARK  13 active torsions:
REMARK  status: ('A' for Active; 'I' for Inactive)
REMARK    1  A    between atoms: O_3  and  C_26
REMARK    2  A    between atoms: O_3  and  C_29
REMARK    3  A    between atoms: N_4  and  C_15
REMARK    4  A    between atoms: N_4  and  C_21
REMARK    5  A    between atoms: C_8  and  C_12
REMARK    6  A    between atoms: C_9  and  C_15
REMARK    7  A    between atoms: C_11  and  C_16
REMARK    8  A    between atoms: C_12  and  C_17
REMARK    9  A    between atoms: C_12  and  C_18
REMARK   10  A    between atoms: C_13  and  C_19
REMARK   11  A    between atoms: C_16  and  C_20
REMARK   12  A    between atoms: C_21  and  C_22
REMARK   13  A    between atoms: C_23  and  C_26
REMARK                            x       y       z     vdW  Elec       q    Type
REMARK                         _______ _______ _______ _____ _____    ______ ____
ROOT
ATOM      8  C   UNL     1      -2.586   1.884  24.103  0.00  0.00    +0.000 C 
ATOM      9  C   UNL     1      -3.049   3.263  24.638  0.00  0.00    +0.029 C 
ATOM     10  C   UNL     1      -3.797   1.034  23.691  0.00  0.00    +0.012 C 
ATOM     11  C   UNL     1      -4.770   0.800  24.863  0.00  0.00    +0.024 C 
ATOM     13  C   UNL     1      -5.067   2.083  25.613  0.00  0.00    -0.073 C 
ATOM     14  C   UNL     1      -4.294   3.178  25.490  0.00  0.00    -0.023 C 
ATOM     19  C   UNL     1      -6.299   2.095  26.473  0.00  0.00    +0.039 C 
ENDROOT
BRANCH   8  12
ATOM     12  C   UNL     1      -1.627   2.028  22.916  0.00  0.00    -0.013 C 
ATOM     17  C   UNL     1      -2.403   2.351  21.642  0.00  0.00    +0.007 C 
ATOM     18  C   UNL     1      -0.584   3.104  23.201  0.00  0.00    +0.007 C 
ENDBRANCH   8  12
BRANCH   9  15
ATOM     15  C   UNL     1      -1.933   3.951  25.432  0.00  0.00    +0.089 C 
BRANCH  15   4
ATOM      4  N   UNL     1      -1.505   3.117  26.542  0.00  0.00    -0.311 NA
ATOM     35  H   UNL     1      -1.497   3.659  27.405  0.00  0.00    +0.122 HD
BRANCH   4  21
ATOM     21  C   UNL     1      -0.173   2.572  26.306  0.00  0.00    +0.117 C 
BRANCH  21  22
ATOM      7  N   UNL     1       2.850   2.984  28.547  0.00  0.00    -0.263 NA
ATOM     22  C   UNL     1       0.680   2.620  27.546  0.00  0.00    -0.016 A 
ATOM     24  C   UNL     1       0.137   2.360  28.799  0.00  0.00    +0.008 A 
ATOM     25  C   UNL     1       2.029   2.925  27.474  0.00  0.00    +0.115 A 
ATOM     27  C   UNL     1       0.949   2.411  29.927  0.00  0.00    +0.020 A 
ATOM     28  C   UNL     1       2.287   2.725  29.749  0.00  0.00    +0.111 A 
ENDBRANCH  21  22
ENDBRANCH   4  21
ENDBRANCH  15   4
ENDBRANCH   9  15
BRANCH  11  16
ATOM     16  C   UNL     1      -4.241  -0.280  25.813  0.00  0.00    +0.105 C 
BRANCH  16  20
ATOM      2  O   UNL     1      -1.889  -0.698  25.314  0.00  0.00    -0.421 OA
ATOM      5  N   UNL     1      -3.292  -2.206  24.440  0.00  0.00    -0.112 NA
ATOM      6  N   UNL     1      -2.005  -2.562  24.083  0.00  0.00    -0.109 NA
ATOM     20  C   UNL     1      -3.177  -1.113  25.158  0.00  0.00    +0.218 A 
ATOM     23  C   UNL     1      -1.221  -1.655  24.614  0.00  0.00    +0.254 A 
BRANCH  23  26
ATOM     26  C   UNL     1       0.242  -1.536  24.560  0.00  0.00    +0.326 C 
BRANCH  26   3
ATOM      3  O   UNL     1       0.627  -0.608  23.542  0.00  0.00    -0.483 OA
BRANCH   3  29
ATOM      1  F   UNL     1       6.015   0.322  22.985  0.00  0.00    -0.205 F 
ATOM     29  C   UNL     1       1.967  -0.377  23.404  0.00  0.00    +0.121 A 
ATOM     30  C   UNL     1       2.886  -1.362  23.764  0.00  0.00    +0.048 A 
ATOM     31  C   UNL     1       2.416   0.845  22.903  0.00  0.00    +0.048 A 
ATOM     32  C   UNL     1       4.254  -1.127  23.622  0.00  0.00    +0.042 A 
ATOM     33  C   UNL     1       3.783   1.081  22.762  0.00  0.00    +0.042 A 
ATOM     34  C   UNL     1       4.702   0.095  23.121  0.00  0.00    +0.124 A 
ENDBRANCH   3  29
ENDBRANCH  26   3
ENDBRANCH  23  26
ENDBRANCH  16  20
ENDBRANCH  11  16
TORSDOF 10
ENDMDL
MODEL 9
REMARK VINA RESULT:      -1.3      1.282      3.302
REMARK  Name = 45784038
REMARK  13 active torsions:
REMARK  status: ('A' for Active; 'I' for Inactive)
REMARK    1  A    between atoms: O_3  and  C_26
REMARK    2  A    between atoms: O_3  and  C_29
REMARK    3  A    between atoms: N_4  and  C_15
REMARK    4  A    between atoms: N_4  and  C_21
REMARK    5  A    between atoms: C_8  and  C_12
REMARK    6  A    between atoms: C_9  and  C_15
REMARK    7  A    between atoms: C_11  and  C_16
REMARK    8  A    between atoms: C_12  and  C_17
REMARK    9  A    between atoms: C_12  and  C_18
REMARK   10  A    between atoms: C_13  and  C_19
REMARK   11  A    between atoms: C_16  and  C_20
REMARK   12  A    between atoms: C_21  and  C_22
REMARK   13  A    between atoms: C_23  and  C_26
REMARK                            x       y       z     vdW  Elec       q    Type
REMARK                         _______ _______ _______ _____ _____    ______ ____
ROOT
ATOM      8  C   UNL     1      -1.992   4.120  24.841  0.00  0.00    +0.000 C 
ATOM      9  C   UNL     1      -2.230   3.269  26.114  0.00  0.00    +0.029 C 
ATOM     10  C   UNL     1      -3.328   4.631  24.281  0.00  0.00    +0.012 C 
ATOM     11  C   UNL     1      -4.289   3.479  23.926  0.00  0.00    +0.024 C 
ATOM     13  C   UNL     1      -4.370   2.451  25.035  0.00  0.00    -0.073 C 
ATOM     14  C   UNL     1      -3.447   2.380  26.012  0.00  0.00    -0.023 C 
ATOM     19  C   UNL     1      -5.560   1.534  25.023  0.00  0.00    +0.039 C 
ENDROOT
BRANCH   8  12
ATOM     12  C   UNL     1      -1.059   5.304  25.115  0.00  0.00    -0.013 C 
ATOM     17  C   UNL     1       0.144   5.261  24.177  0.00  0.00    +0.007 C 
ATOM     18  C   UNL     1      -1.813   6.621  24.968  0.00  0.00    +0.007 C 
ENDBRANCH   8  12
BRANCH   9  15
ATOM     15  C   UNL     1      -1.000   2.414  26.445  0.00  0.00    +0.089 C 
BRANCH  15   4
ATOM      4  N   UNL     1      -0.992   1.198  25.651  0.00  0.00    -0.311 NA
ATOM     35  H   UNL     1      -1.739   1.227  24.959  0.00  0.00    +0.122 HD
BRANCH   4  21
ATOM     21  C   UNL     1      -1.163   0.020  26.494  0.00  0.00    +0.117 C 
BRANCH  21  22
ATOM      7  N   UNL     1      -1.791  -3.046  24.365  0.00  0.00    -0.263 NA
ATOM     22  C   UNL     1      -1.890  -1.084  25.773  0.00  0.00    -0.016 A 
ATOM     24  C   UNL     1      -3.275  -1.184  25.828  0.00  0.00    +0.008 A 
ATOM     25  C   UNL     1      -1.200  -2.031  25.035  0.00  0.00    +0.115 A 
ATOM     27  C   UNL     1      -3.920  -2.214  25.153  0.00  0.00    +0.020 A 
ATOM     28  C   UNL     1      -3.139  -3.111  24.441  0.00  0.00    +0.111 A 
ENDBRANCH  21  22
ENDBRANCH   4  21
ENDBRANCH  15   4
ENDBRANCH   9  15
BRANCH  11  16
ATOM     16  C   UNL     1      -3.898   2.823  22.597  0.00  0.00    +0.105 C 
BRANCH  16  20
ATOM      2  O   UNL     1      -1.536   2.282  22.883  0.00  0.00    -0.421 OA
ATOM      5  N   UNL     1      -2.889   0.500  22.876  0.00  0.00    -0.112 NA
ATOM      6  N   UNL     1      -1.592   0.052  23.046  0.00  0.00    -0.109 NA
ATOM     20  C   UNL     1      -2.808   1.808  22.786  0.00  0.00    +0.218 A 
ATOM     23  C   UNL     1      -0.837   1.125  23.043  0.00  0.00    +0.254 A 
BRANCH  23  26
ATOM     26  C   UNL     1       0.619   1.244  23.189  0.00  0.00    +0.326 C 
BRANCH  26   3
ATOM      3  O   UNL     1       1.259   0.031  22.782  0.00  0.00    -0.483 OA
BRANCH   3  29
ATOM      1  F   UNL     1       6.660  -0.324  23.731  0.00  0.00    -0.205 F 
ATOM     29  C   UNL     1       2.601  -0.058  23.018  0.00  0.00    +0.121 A 
ATOM     30  C   UNL     1       3.143  -1.233  23.538  0.00  0.00    +0.048 A 
ATOM     31  C   UNL     1       3.432   1.029  22.739  0.00  0.00    +0.048 A 
ATOM     32  C   UNL     1       4.514  -1.324  23.778  0.00  0.00    +0.042 A 
ATOM     33  C   UNL     1       4.803   0.938  22.981  0.00  0.00    +0.042 A 
ATOM     34  C   UNL     1       5.344  -0.238  23.500  0.00  0.00    +0.124 A 
ENDBRANCH   3  29
ENDBRANCH  26   3
ENDBRANCH  23  26
ENDBRANCH  16  20
ENDBRANCH  11  16
TORSDOF 10
ENDMDL
MODEL 10
REMARK VINA RESULT:      -0.2      1.506      2.646
REMARK  Name = 45784038
REMARK  13 active torsions:
REMARK  status: ('A' for Active; 'I' for Inactive)
REMARK    1  A    between atoms: O_3  and  C_26
REMARK    2  A    between atoms: O_3  and  C_29
REMARK    3  A    between atoms: N_4  and  C_15
REMARK    4  A    between atoms: N_4  and  C_21
REMARK    5  A    between atoms: C_8  and  C_12
REMARK    6  A    between atoms: C_9  and  C_15
REMARK    7  A    between atoms: C_11  and  C_16
REMARK    8  A    between atoms: C_12  and  C_17
REMARK    9  A    between atoms: C_12  and  C_18
REMARK   10  A    between atoms: C_13  and  C_19
REMARK   11  A    between atoms: C_16  and  C_20
REMARK   12  A    between atoms: C_21  and  C_22
REMARK   13  A    between atoms: C_23  and  C_26
REMARK                            x       y       z     vdW  Elec       q    Type
REMARK                         _______ _______ _______ _____ _____    ______ ____
ROOT
ATOM      8  C   UNL     1      -1.241   2.894  25.998  0.00  0.00    +0.000 C 
ATOM      9  C   UNL     1      -2.555   3.599  26.420  0.00  0.00    +0.029 C 
ATOM     10  C   UNL     1      -0.127   3.928  25.773  0.00  0.00    +0.012 C 
ATOM     11  C   UNL     1      -0.499   4.958  24.688  0.00  0.00    +0.024 C 
ATOM     13  C   UNL     1      -1.898   5.504  24.886  0.00  0.00    -0.073 C 
ATOM     14  C   UNL     1      -2.800   4.889  25.674  0.00  0.00    -0.023 C 
ATOM     19  C   UNL     1      -2.225   6.797  24.194  0.00  0.00    +0.039 C 
ENDROOT
BRANCH   8  12
ATOM     12  C   UNL     1      -0.788   1.864  27.038  0.00  0.00    -0.013 C 
ATOM     17  C   UNL     1      -0.756   0.468  26.424  0.00  0.00    +0.007 C 
ATOM     18  C   UNL     1       0.578   2.239  27.600  0.00  0.00    +0.007 C 
ENDBRANCH   8  12
BRANCH   9  15
ATOM     15  C   UNL     1      -3.762   2.669  26.242  0.00  0.00    +0.089 C 
BRANCH  15   4
ATOM      4  N   UNL     1      -3.755   2.069  24.920  0.00  0.00    -0.311 NA
ATOM     35  H   UNL     1      -3.851   2.790  24.207  0.00  0.00    +0.122 HD
BRANCH   4  21
ATOM     21  C   UNL     1      -4.840   1.105  24.776  0.00  0.00    +0.117 C 
BRANCH  21  22
ATOM      7  N   UNL     1      -4.084  -2.412  23.596  0.00  0.00    -0.263 NA
ATOM     22  C   UNL     1      -4.333  -0.313  24.770  0.00  0.00    -0.016 A 
ATOM     24  C   UNL     1      -3.667  -0.841  25.869  0.00  0.00    +0.008 A 
ATOM     25  C   UNL     1      -4.514  -1.132  23.667  0.00  0.00    +0.115 A 
ATOM     27  C   UNL     1      -3.209  -2.153  25.835  0.00  0.00    +0.020 A 
ATOM     28  C   UNL     1      -3.441  -2.890  24.685  0.00  0.00    +0.111 A 
ENDBRANCH  21  22
ENDBRANCH   4  21
ENDBRANCH  15   4
ENDBRANCH   9  15
BRANCH  11  16
ATOM     16  C   UNL     1      -0.334   4.366  23.285  0.00  0.00    +0.105 C 
BRANCH  16  20
ATOM      2  O   UNL     1       0.357   2.034  23.487  0.00  0.00    -0.421 OA
ATOM      5  N   UNL     1      -1.822   2.310  23.060  0.00  0.00    -0.112 NA
ATOM      6  N   UNL     1      -1.572   0.952  23.149  0.00  0.00    -0.109 NA
ATOM     20  C   UNL     1      -0.668   2.902  23.264  0.00  0.00    +0.218 A 
ATOM     23  C   UNL     1      -0.288   0.840  23.399  0.00  0.00    +0.254 A 
BRANCH  23  26
ATOM     26  C   UNL     1       0.523  -0.369  23.595  0.00  0.00    +0.326 C 
BRANCH  26   3
ATOM      3  O   UNL     1       1.487  -0.494  22.546  0.00  0.00    -0.483 OA
BRANCH   3  29
ATOM      1  F   UNL     1       6.760   0.087  23.983  0.00  0.00    -0.205 F 
ATOM     29  C   UNL     1       2.797  -0.350  22.903  0.00  0.00    +0.121 A 
ATOM     30  C   UNL     1       3.463  -1.390  23.552  0.00  0.00    +0.048 A 
ATOM     31  C   UNL     1       3.471   0.839  22.620  0.00  0.00    +0.048 A 
ATOM     32  C   UNL     1       4.801  -1.244  23.916  0.00  0.00    +0.042 A 
ATOM     33  C   UNL     1       4.810   0.986  22.985  0.00  0.00    +0.042 A 
ATOM     34  C   UNL     1       5.474  -0.055  23.633  0.00  0.00    +0.124 A 
ENDBRANCH   3  29
ENDBRANCH  26   3
ENDBRANCH  23  26
ENDBRANCH  16  20
ENDBRANCH  11  16
TORSDOF 10
ENDMDL
