MODEL 1
REMARK VINA RESULT:      -4.2      0.000      0.000
REMARK  Name = 45784085
REMARK  3 active torsions:
REMARK  status: ('A' for Active; 'I' for Inactive)
REMARK    1  A    between atoms: N_3  and  C_9
REMARK    2  A    between atoms: C_5  and  C_10
REMARK    3  A    between atoms: C_9  and  C_11
REMARK                            x       y       z     vdW  Elec       q    Type
REMARK                         _______ _______ _______ _____ _____    ______ ____
ROOT
ATOM      3  N   UNL     1       0.787  -0.550  23.682  0.00  0.00    -0.297 NA
ATOM      5  C   UNL     1      -0.980   0.101  25.080  0.00  0.00    +0.090 C 
ATOM      6  C   UNL     1      -1.285  -1.281  24.476  0.00  0.00    +0.029 C 
ATOM      7  C   UNL     1       0.159   0.660  24.216  0.00  0.00    +0.097 C 
ATOM      8  C   UNL     1      -0.329  -1.415  23.297  0.00  0.00    +0.085 C 
ENDROOT
BRANCH   5  10
ATOM      1 CL   UNL     1      -6.431   5.369  25.536  0.00  0.00    -0.083 Cl
ATOM      2  O   UNL     1      -3.392   0.438  25.148  0.00  0.00    -0.439 OA
ATOM      4  N   UNL     1      -2.172   2.345  25.251  0.00  0.00    -0.213 NA
ATOM     10  C   UNL     1      -2.167   1.033  25.163  0.00  0.00    +0.201 A 
ATOM     12  C   UNL     1      -3.510   2.653  25.297  0.00  0.00    +0.111 A 
ATOM     13  C   UNL     1      -4.260   1.489  25.234  0.00  0.00    +0.155 A 
ATOM     16  C   UNL     1      -4.176   3.884  25.392  0.00  0.00    +0.051 A 
ATOM     17  C   UNL     1      -5.649   1.438  25.258  0.00  0.00    +0.050 A 
ATOM     20  C   UNL     1      -5.579   3.874  25.419  0.00  0.00    +0.043 A 
ATOM     21  C   UNL     1      -6.298   2.674  25.353  0.00  0.00    +0.024 A 
ENDBRANCH   5  10
BRANCH   3   9
ATOM      9  C   UNL     1       1.679  -0.268  22.568  0.00  0.00    +0.119 C 
BRANCH   9  11
ATOM     11  C   UNL     1       3.121  -0.232  22.998  0.00  0.00    -0.033 A 
ATOM     14  C   UNL     1       3.880   0.921  22.799  0.00  0.00    +0.005 A 
ATOM     15  C   UNL     1       3.698  -1.352  23.597  0.00  0.00    +0.005 A 
ATOM     18  C   UNL     1       5.216   0.955  23.199  0.00  0.00    +0.000 A 
ATOM     19  C   UNL     1       5.034  -1.320  23.996  0.00  0.00    +0.000 A 
ATOM     22  C   UNL     1       5.793  -0.166  23.797  0.00  0.00    +0.000 A 
ENDBRANCH   9  11
ENDBRANCH   3   9
TORSDOF 3
ENDMDL
MODEL 2
REMARK VINA RESULT:      -3.4      3.462      7.408
REMARK  Name = 45784085
REMARK  3 active torsions:
REMARK  status: ('A' for Active; 'I' for Inactive)
REMARK    1  A    between atoms: N_3  and  C_9
REMARK    2  A    between atoms: C_5  and  C_10
REMARK    3  A    between atoms: C_9  and  C_11
REMARK                            x       y       z     vdW  Elec       q    Type
REMARK                         _______ _______ _______ _____ _____    ______ ____
ROOT
ATOM      3  N   UNL     1      -3.884   1.998  25.005  0.00  0.00    -0.297 NA
ATOM      5  C   UNL     1      -1.648   2.544  24.559  0.00  0.00    +0.090 C 
ATOM      6  C   UNL     1      -2.548   3.119  23.451  0.00  0.00    +0.029 C 
ATOM      7  C   UNL     1      -2.530   1.517  25.283  0.00  0.00    +0.097 C 
ATOM      8  C   UNL     1      -3.868   2.373  23.590  0.00  0.00    +0.085 C 
ENDROOT
BRANCH   5  10
ATOM      1 CL   UNL     1       5.277   0.165  22.545  0.00  0.00    -0.083 Cl
ATOM      2  O   UNL     1      -0.440   0.889  23.240  0.00  0.00    -0.439 OA
ATOM      4  N   UNL     1       0.884   2.353  24.353  0.00  0.00    -0.213 NA
ATOM     10  C   UNL     1      -0.340   1.960  24.075  0.00  0.00    +0.201 A 
ATOM     12  C   UNL     1       1.666   1.472  23.648  0.00  0.00    +0.111 A 
ATOM     13  C   UNL     1       0.860   0.574  22.965  0.00  0.00    +0.155 A 
ATOM     16  C   UNL     1       3.059   1.358  23.528  0.00  0.00    +0.051 A 
ATOM     17  C   UNL     1       1.327  -0.453  22.153  0.00  0.00    +0.050 A 
ATOM     20  C   UNL     1       3.569   0.334  22.715  0.00  0.00    +0.043 A 
ATOM     21  C   UNL     1       2.719  -0.552  22.044  0.00  0.00    +0.024 A 
ENDBRANCH   5  10
BRANCH   3   9
ATOM      9  C   UNL     1      -4.900   1.000  25.303  0.00  0.00    +0.119 C 
BRANCH   9  11
ATOM     11  C   UNL     1      -4.398  -0.399  25.065  0.00  0.00    -0.033 A 
ATOM     14  C   UNL     1      -4.648  -1.033  23.848  0.00  0.00    +0.005 A 
ATOM     15  C   UNL     1      -3.683  -1.062  26.063  0.00  0.00    +0.005 A 
ATOM     18  C   UNL     1      -4.182  -2.330  23.628  0.00  0.00    +0.000 A 
ATOM     19  C   UNL     1      -3.218  -2.359  25.844  0.00  0.00    +0.000 A 
ATOM     22  C   UNL     1      -3.468  -2.993  24.627  0.00  0.00    +0.000 A 
ENDBRANCH   9  11
ENDBRANCH   3   9
TORSDOF 3
ENDMDL
MODEL 3
REMARK VINA RESULT:      -2.3      0.938      1.486
REMARK  Name = 45784085
REMARK  3 active torsions:
REMARK  status: ('A' for Active; 'I' for Inactive)
REMARK    1  A    between atoms: N_3  and  C_9
REMARK    2  A    between atoms: C_5  and  C_10
REMARK    3  A    between atoms: C_9  and  C_11
REMARK                            x       y       z     vdW  Elec       q    Type
REMARK                         _______ _______ _______ _____ _____    ______ ____
ROOT
ATOM      3  N   UNL     1       0.922  -0.643  23.456  0.00  0.00    -0.297 NA
ATOM      5  C   UNL     1      -0.803   0.055  24.883  0.00  0.00    +0.090 C 
ATOM      6  C   UNL     1      -1.262  -1.180  24.088  0.00  0.00    +0.029 C 
ATOM      7  C   UNL     1       0.437   0.561  24.134  0.00  0.00    +0.097 C 
ATOM      8  C   UNL     1      -0.281  -1.288  22.928  0.00  0.00    +0.085 C 
ENDROOT
BRANCH   5  10
ATOM      1 CL   UNL     1      -6.622   4.893  25.516  0.00  0.00    -0.083 Cl
ATOM      2  O   UNL     1      -1.419   2.320  25.537  0.00  0.00    -0.439 OA
ATOM      4  N   UNL     1      -3.149   1.045  24.817  0.00  0.00    -0.213 NA
ATOM     10  C   UNL     1      -1.859   1.122  25.062  0.00  0.00    +0.201 A 
ATOM     12  C   UNL     1      -3.610   2.294  25.158  0.00  0.00    +0.111 A 
ATOM     13  C   UNL     1      -2.554   3.077  25.599  0.00  0.00    +0.155 A 
ATOM     16  C   UNL     1      -4.897   2.849  25.125  0.00  0.00    +0.051 A 
ATOM     17  C   UNL     1      -2.668   4.396  26.021  0.00  0.00    +0.050 A 
ATOM     20  C   UNL     1      -5.053   4.179  25.543  0.00  0.00    +0.043 A 
ATOM     21  C   UNL     1      -3.959   4.934  25.982  0.00  0.00    +0.024 A 
ENDBRANCH   5  10
BRANCH   3   9
ATOM      9  C   UNL     1       1.892  -0.341  22.415  0.00  0.00    +0.119 C 
BRANCH   9  11
ATOM     11  C   UNL     1       3.295  -0.272  22.958  0.00  0.00    -0.033 A 
ATOM     14  C   UNL     1       4.036   0.902  22.827  0.00  0.00    +0.005 A 
ATOM     15  C   UNL     1       3.852  -1.382  23.593  0.00  0.00    +0.005 A 
ATOM     18  C   UNL     1       5.336   0.966  23.330  0.00  0.00    +0.000 A 
ATOM     19  C   UNL     1       5.152  -1.318  24.096  0.00  0.00    +0.000 A 
ATOM     22  C   UNL     1       5.894  -0.144  23.964  0.00  0.00    +0.000 A 
ENDBRANCH   9  11
ENDBRANCH   3   9
TORSDOF 3
ENDMDL
MODEL 4
REMARK VINA RESULT:      -1.3      3.195      7.577
REMARK  Name = 45784085
REMARK  3 active torsions:
REMARK  status: ('A' for Active; 'I' for Inactive)
REMARK    1  A    between atoms: N_3  and  C_9
REMARK    2  A    between atoms: C_5  and  C_10
REMARK    3  A    between atoms: C_9  and  C_11
REMARK                            x       y       z     vdW  Elec       q    Type
REMARK                         _______ _______ _______ _____ _____    ______ ____
ROOT
ATOM      3  N   UNL     1      -4.633  -0.537  24.729  0.00  0.00    -0.297 NA
ATOM      5  C   UNL     1      -2.455  -1.276  24.272  0.00  0.00    +0.090 C 
ATOM      6  C   UNL     1      -2.754  -1.451  25.772  0.00  0.00    +0.029 C 
ATOM      7  C   UNL     1      -3.551  -0.327  23.766  0.00  0.00    +0.097 C 
ATOM      8  C   UNL     1      -3.974  -0.578  26.035  0.00  0.00    +0.085 C 
ENDROOT
BRANCH   5  10
ATOM      1 CL   UNL     1       4.747   0.434  22.577  0.00  0.00    -0.083 Cl
ATOM      2  O   UNL     1      -0.875   0.561  24.018  0.00  0.00    -0.439 OA
ATOM      4  N   UNL     1      -0.000  -1.493  23.629  0.00  0.00    -0.213 NA
ATOM     10  C   UNL     1      -1.061  -0.786  23.956  0.00  0.00    +0.201 A 
ATOM     12  C   UNL     1       0.974  -0.540  23.458  0.00  0.00    +0.111 A 
ATOM     13  C   UNL     1       0.442   0.719  23.695  0.00  0.00    +0.155 A 
ATOM     16  C   UNL     1       2.327  -0.649  23.105  0.00  0.00    +0.051 A 
ATOM     17  C   UNL     1       1.156   1.909  23.610  0.00  0.00    +0.050 A 
ATOM     20  C   UNL     1       3.080   0.531  23.009  0.00  0.00    +0.043 A 
ATOM     21  C   UNL     1       2.504   1.782  23.257  0.00  0.00    +0.024 A 
ENDBRANCH   5  10
BRANCH   3   9
ATOM      9  C   UNL     1      -5.652   0.499  24.655  0.00  0.00    +0.119 C 
BRANCH   9  11
ATOM     11  C   UNL     1      -5.061   1.877  24.791  0.00  0.00    -0.033 A 
ATOM     14  C   UNL     1      -5.463   2.708  25.837  0.00  0.00    +0.005 A 
ATOM     15  C   UNL     1      -4.110   2.323  23.873  0.00  0.00    +0.005 A 
ATOM     18  C   UNL     1      -4.916   3.985  25.963  0.00  0.00    +0.000 A 
ATOM     19  C   UNL     1      -3.563   3.600  23.998  0.00  0.00    +0.000 A 
ATOM     22  C   UNL     1      -3.966   4.431  25.044  0.00  0.00    +0.000 A 
ENDBRANCH   9  11
ENDBRANCH   3   9
TORSDOF 3
ENDMDL
MODEL 5
REMARK VINA RESULT:      -1.1      3.550      7.554
REMARK  Name = 45784085
REMARK  3 active torsions:
REMARK  status: ('A' for Active; 'I' for Inactive)
REMARK    1  A    between atoms: N_3  and  C_9
REMARK    2  A    between atoms: C_5  and  C_10
REMARK    3  A    between atoms: C_9  and  C_11
REMARK                            x       y       z     vdW  Elec       q    Type
REMARK                         _______ _______ _______ _____ _____    ______ ____
ROOT
ATOM      3  N   UNL     1      -2.979   0.208  24.686  0.00  0.00    -0.297 NA
ATOM      5  C   UNL     1      -1.053  -0.765  23.768  0.00  0.00    +0.090 C 
ATOM      6  C   UNL     1      -1.482  -1.554  25.017  0.00  0.00    +0.029 C 
ATOM      7  C   UNL     1      -1.822   0.561  23.863  0.00  0.00    +0.097 C 
ATOM      8  C   UNL     1      -2.438  -0.628  25.758  0.00  0.00    +0.085 C 
ENDROOT
BRANCH   5  10
ATOM      1 CL   UNL     1       6.522  -0.521  23.303  0.00  0.00    -0.083 Cl
ATOM      2  O   UNL     1       0.836   0.637  23.136  0.00  0.00    -0.439 OA
ATOM      4  N   UNL     1       1.404  -1.420  23.899  0.00  0.00    -0.213 NA
ATOM     10  C   UNL     1       0.438  -0.572  23.619  0.00  0.00    +0.201 A 
ATOM     12  C   UNL     1       2.541  -0.722  23.574  0.00  0.00    +0.111 A 
ATOM     13  C   UNL     1       2.198   0.538  23.107  0.00  0.00    +0.155 A 
ATOM     16  C   UNL     1       3.898  -1.073  23.642  0.00  0.00    +0.051 A 
ATOM     17  C   UNL     1       3.107   1.504  22.691  0.00  0.00    +0.050 A 
ATOM     20  C   UNL     1       4.846  -0.123  23.232  0.00  0.00    +0.043 A 
ATOM     21  C   UNL     1       4.456   1.138  22.766  0.00  0.00    +0.024 A 
ENDBRANCH   5  10
BRANCH   3   9
ATOM      9  C   UNL     1      -3.676   1.380  25.196  0.00  0.00    +0.119 C 
BRANCH   9  11
ATOM     11  C   UNL     1      -2.806   2.608  25.165  0.00  0.00    -0.033 A 
ATOM     14  C   UNL     1      -1.478   2.533  25.585  0.00  0.00    +0.005 A 
ATOM     15  C   UNL     1      -3.328   3.821  24.714  0.00  0.00    +0.005 A 
ATOM     18  C   UNL     1      -0.672   3.671  25.556  0.00  0.00    +0.000 A 
ATOM     19  C   UNL     1      -2.522   4.960  24.686  0.00  0.00    +0.000 A 
ATOM     22  C   UNL     1      -1.194   4.884  25.107  0.00  0.00    +0.000 A 
ENDBRANCH   9  11
ENDBRANCH   3   9
TORSDOF 3
ENDMDL
MODEL 6
REMARK VINA RESULT:      -0.5      3.642      8.761
REMARK  Name = 45784085
REMARK  3 active torsions:
REMARK  status: ('A' for Active; 'I' for Inactive)
REMARK    1  A    between atoms: N_3  and  C_9
REMARK    2  A    between atoms: C_5  and  C_10
REMARK    3  A    between atoms: C_9  and  C_11
REMARK                            x       y       z     vdW  Elec       q    Type
REMARK                         _______ _______ _______ _____ _____    ______ ____
ROOT
ATOM      3  N   UNL     1      -1.519   1.513  24.140  0.00  0.00    -0.297 NA
ATOM      5  C   UNL     1       0.292   0.434  23.110  0.00  0.00    +0.090 C 
ATOM      6  C   UNL     1      -0.546  -0.596  23.888  0.00  0.00    +0.029 C 
ATOM      7  C   UNL     1      -0.169   1.796  23.649  0.00  0.00    +0.097 C 
ATOM      8  C   UNL     1      -1.406   0.230  24.836  0.00  0.00    +0.085 C 
ENDROOT
BRANCH   5  10
ATOM      1 CL   UNL     1       7.877   0.195  23.369  0.00  0.00    -0.083 Cl
ATOM      2  O   UNL     1       2.202  -1.006  23.572  0.00  0.00    -0.439 OA
ATOM      4  N   UNL     1       2.743   1.113  22.978  0.00  0.00    -0.213 NA
ATOM     10  C   UNL     1       1.787   0.238  23.205  0.00  0.00    +0.201 A 
ATOM     12  C   UNL     1       3.890   0.395  23.213  0.00  0.00    +0.111 A 
ATOM     13  C   UNL     1       3.563  -0.902  23.577  0.00  0.00    +0.155 A 
ATOM     16  C   UNL     1       5.243   0.759  23.142  0.00  0.00    +0.051 A 
ATOM     17  C   UNL     1       4.486  -1.895  23.885  0.00  0.00    +0.050 A 
ATOM     20  C   UNL     1       6.204  -0.217  23.445  0.00  0.00    +0.043 A 
ATOM     21  C   UNL     1       5.831  -1.516  23.810  0.00  0.00    +0.024 A 
ENDBRANCH   5  10
BRANCH   3   9
ATOM      9  C   UNL     1      -2.029   2.568  25.001  0.00  0.00    +0.119 C 
BRANCH   9  11
ATOM     11  C   UNL     1      -3.529   2.513  25.128  0.00  0.00    -0.033 A 
ATOM     14  C   UNL     1      -4.214   1.343  24.801  0.00  0.00    +0.005 A 
ATOM     15  C   UNL     1      -4.232   3.632  25.573  0.00  0.00    +0.005 A 
ATOM     18  C   UNL     1      -5.603   1.292  24.919  0.00  0.00    +0.000 A 
ATOM     19  C   UNL     1      -5.622   3.582  25.691  0.00  0.00    +0.000 A 
ATOM     22  C   UNL     1      -6.307   2.412  25.363  0.00  0.00    +0.000 A 
ENDBRANCH   9  11
ENDBRANCH   3   9
TORSDOF 3
ENDMDL
