MODEL 1
REMARK VINA RESULT:      -3.3      0.000      0.000
REMARK  Name = 75536910
REMARK  5 active torsions:
REMARK  status: ('A' for Active; 'I' for Inactive)
REMARK    1  A    between atoms: O_2  and  C_5
REMARK    2  A    between atoms: O_2  and  C_13
REMARK    3  A    between atoms: N_3  and  C_7
REMARK    4  A    between atoms: C_7  and  C_10
REMARK    5  A    between atoms: C_14  and  C_17
REMARK                            x       y       z     vdW  Elec       q    Type
REMARK                         _______ _______ _______ _____ _____    ______ ____
ROOT
ATOM      1  O   UNL     1      16.065  -7.306  32.174  0.00  0.00    -0.375 OA
ATOM      3  N   UNL     1      16.636  -7.496  29.360  0.00  0.00    -0.292 NA
ATOM      4  C   UNL     1      15.196  -7.245  29.297  0.00  0.00    +0.131 C 
ATOM      5  C   UNL     1      14.767  -6.236  30.370  0.00  0.00    +0.213 C 
ATOM      6  C   UNL     1      17.030  -8.546  30.305  0.00  0.00    +0.113 C 
ATOM      8  C   UNL     1      14.809  -6.748  31.808  0.00  0.00    +0.205 C 
ATOM      9  C   UNL     1      16.261  -8.603  31.623  0.00  0.00    +0.175 C 
ENDROOT
BRANCH   5   2
ATOM      2  O   UNL     1      13.432  -5.822  30.076  0.00  0.00    -0.485 OA
BRANCH   2  13
ATOM     13  C   UNL     1      12.474  -6.146  30.996  0.00  0.00    +0.121 A 
ATOM     18  C   UNL     1      12.007  -5.181  31.886  0.00  0.00    +0.045 A 
ATOM     19  C   UNL     1      11.965  -7.445  31.043  0.00  0.00    +0.045 A 
ATOM     20  C   UNL     1      11.030  -5.512  32.826  0.00  0.00    +0.004 A 
ATOM     21  C   UNL     1      10.989  -7.777  31.982  0.00  0.00    +0.004 A 
ATOM     24  C   UNL     1      10.521  -6.810  32.874  0.00  0.00    +0.000 A 
ENDBRANCH   2  13
ENDBRANCH   5   2
BRANCH   3   7
ATOM      7  C   UNL     1      17.188  -7.781  28.035  0.00  0.00    +0.119 C 
BRANCH   7  10
ATOM     10  C   UNL     1      17.203  -6.558  27.157  0.00  0.00    -0.033 A 
ATOM     11  C   UNL     1      17.029  -6.687  25.780  0.00  0.00    +0.005 A 
ATOM     12  C   UNL     1      17.391  -5.297  27.722  0.00  0.00    +0.005 A 
ATOM     14  C   UNL     1      17.231  -4.292  25.531  0.00  0.00    -0.018 A 
ATOM     15  C   UNL     1      17.043  -5.553  24.966  0.00  0.00    +0.009 A 
ATOM     16  C   UNL     1      17.405  -4.163  26.909  0.00  0.00    +0.009 A 
BRANCH  14  17
ATOM     17  C   UNL     1      17.246  -3.116  24.687  0.00  0.00    -0.018 A 
ATOM     22  C   UNL     1      17.171  -1.846  25.259  0.00  0.00    +0.008 A 
ATOM     23  C   UNL     1      17.335  -3.253  23.302  0.00  0.00    +0.008 A 
ATOM     25  C   UNL     1      17.186  -0.713  24.446  0.00  0.00    +0.001 A 
ATOM     26  C   UNL     1      17.349  -2.120  22.489  0.00  0.00    +0.001 A 
ATOM     27  C   UNL     1      17.275  -0.850  23.061  0.00  0.00    +0.000 A 
ENDBRANCH  14  17
ENDBRANCH   7  10
ENDBRANCH   3   7
TORSDOF 5
ENDMDL
MODEL 2
REMARK VINA RESULT:      -2.3     17.203     19.445
REMARK  Name = 75536910
REMARK  5 active torsions:
REMARK  status: ('A' for Active; 'I' for Inactive)
REMARK    1  A    between atoms: O_2  and  C_5
REMARK    2  A    between atoms: O_2  and  C_13
REMARK    3  A    between atoms: N_3  and  C_7
REMARK    4  A    between atoms: C_7  and  C_10
REMARK    5  A    between atoms: C_14  and  C_17
REMARK                            x       y       z     vdW  Elec       q    Type
REMARK                         _______ _______ _______ _____ _____    ______ ____
ROOT
ATOM      1  O   UNL     1      -6.730   2.266  24.852  0.00  0.00    -0.375 OA
ATOM      3  N   UNL     1      -4.035   3.265  24.996  0.00  0.00    -0.292 NA
ATOM      4  C   UNL     1      -3.902   2.092  25.859  0.00  0.00    +0.131 C 
ATOM      5  C   UNL     1      -4.719   0.913  25.313  0.00  0.00    +0.213 C 
ATOM      6  C   UNL     1      -5.194   4.112  25.294  0.00  0.00    +0.113 C 
ATOM      8  C   UNL     1      -6.236   1.059  25.420  0.00  0.00    +0.205 C 
ATOM      9  C   UNL     1      -6.483   3.394  25.684  0.00  0.00    +0.175 C 
ENDROOT
BRANCH   5   2
ATOM      2  O   UNL     1      -4.327  -0.261  26.024  0.00  0.00    -0.485 OA
BRANCH   2  13
ATOM     13  C   UNL     1      -3.310  -0.995  25.479  0.00  0.00    +0.121 A 
ATOM     18  C   UNL     1      -3.598  -2.098  24.677  0.00  0.00    +0.045 A 
ATOM     19  C   UNL     1      -1.983  -0.639  25.726  0.00  0.00    +0.045 A 
ATOM     20  C   UNL     1      -2.560  -2.847  24.121  0.00  0.00    +0.004 A 
ATOM     21  C   UNL     1      -0.946  -1.387  25.171  0.00  0.00    +0.004 A 
ATOM     24  C   UNL     1      -1.233  -2.491  24.368  0.00  0.00    +0.000 A 
ENDBRANCH   2  13
ENDBRANCH   5   2
BRANCH   3   7
ATOM      7  C   UNL     1      -2.812   4.070  24.996  0.00  0.00    +0.119 C 
BRANCH   7  10
ATOM     10  C   UNL     1      -1.607   3.259  24.599  0.00  0.00    -0.033 A 
ATOM     11  C   UNL     1      -0.441   3.325  25.363  0.00  0.00    +0.005 A 
ATOM     12  C   UNL     1      -1.655   2.444  23.469  0.00  0.00    +0.005 A 
ATOM     14  C   UNL     1       0.627   1.759  23.865  0.00  0.00    -0.018 A 
ATOM     15  C   UNL     1       0.676   2.575  24.995  0.00  0.00    +0.009 A 
ATOM     16  C   UNL     1      -0.538   1.693  23.101  0.00  0.00    +0.009 A 
BRANCH  14  17
ATOM     17  C   UNL     1       1.786   0.981  23.484  0.00  0.00    -0.018 A 
ATOM     22  C   UNL     1       1.721  -0.412  23.482  0.00  0.00    +0.008 A 
ATOM     23  C   UNL     1       2.969   1.624  23.118  0.00  0.00    +0.008 A 
ATOM     25  C   UNL     1       2.838  -1.163  23.115  0.00  0.00    +0.001 A 
ATOM     26  C   UNL     1       4.086   0.874  22.751  0.00  0.00    +0.001 A 
ATOM     27  C   UNL     1       4.020  -0.519  22.749  0.00  0.00    +0.000 A 
ENDBRANCH  14  17
ENDBRANCH   7  10
ENDBRANCH   3   7
TORSDOF 5
ENDMDL
MODEL 3
REMARK VINA RESULT:      -1.2     17.460     19.720
REMARK  Name = 75536910
REMARK  5 active torsions:
REMARK  status: ('A' for Active; 'I' for Inactive)
REMARK    1  A    between atoms: O_2  and  C_5
REMARK    2  A    between atoms: O_2  and  C_13
REMARK    3  A    between atoms: N_3  and  C_7
REMARK    4  A    between atoms: C_7  and  C_10
REMARK    5  A    between atoms: C_14  and  C_17
REMARK                            x       y       z     vdW  Elec       q    Type
REMARK                         _______ _______ _______ _____ _____    ______ ____
ROOT
ATOM      1  O   UNL     1      -6.707   3.221  25.765  0.00  0.00    -0.375 OA
ATOM      3  N   UNL     1      -4.839   1.042  25.557  0.00  0.00    -0.292 NA
ATOM      4  C   UNL     1      -4.009   2.122  25.024  0.00  0.00    +0.131 C 
ATOM      5  C   UNL     1      -4.249   3.429  25.792  0.00  0.00    +0.213 C 
ATOM      6  C   UNL     1      -6.185   0.969  24.980  0.00  0.00    +0.113 C 
ATOM      8  C   UNL     1      -5.603   4.093  25.551  0.00  0.00    +0.205 C 
ATOM      9  C   UNL     1      -6.881   2.298  24.696  0.00  0.00    +0.175 C 
ENDROOT
BRANCH   5   2
ATOM      2  O   UNL     1      -3.222   4.351  25.424  0.00  0.00    -0.485 OA
BRANCH   2  13
ATOM     13  C   UNL     1      -1.939   3.880  25.457  0.00  0.00    +0.121 A 
ATOM     18  C   UNL     1      -1.543   2.999  26.463  0.00  0.00    +0.045 A 
ATOM     19  C   UNL     1      -1.024   4.283  24.483  0.00  0.00    +0.045 A 
ATOM     20  C   UNL     1      -0.234   2.520  26.496  0.00  0.00    +0.004 A 
ATOM     21  C   UNL     1       0.285   3.804  24.516  0.00  0.00    +0.004 A 
ATOM     24  C   UNL     1       0.681   2.923  25.522  0.00  0.00    +0.000 A 
ENDBRANCH   2  13
ENDBRANCH   5   2
BRANCH   3   7
ATOM      7  C   UNL     1      -4.171  -0.255  25.437  0.00  0.00    +0.119 C 
BRANCH   7  10
ATOM     10  C   UNL     1      -2.805  -0.128  24.817  0.00  0.00    -0.033 A 
ATOM     11  C   UNL     1      -2.621   0.684  23.698  0.00  0.00    +0.005 A 
ATOM     12  C   UNL     1      -1.725  -0.822  25.360  0.00  0.00    +0.005 A 
ATOM     14  C   UNL     1      -0.275   0.107  23.666  0.00  0.00    -0.018 A 
ATOM     15  C   UNL     1      -1.356   0.802  23.122  0.00  0.00    +0.009 A 
ATOM     16  C   UNL     1      -0.459  -0.705  24.785  0.00  0.00    +0.009 A 
BRANCH  14  17
ATOM     17  C   UNL     1       1.037   0.229  23.069  0.00  0.00    -0.018 A 
ATOM     22  C   UNL     1       2.006   1.030  23.672  0.00  0.00    +0.008 A 
ATOM     23  C   UNL     1       1.334  -0.456  21.890  0.00  0.00    +0.008 A 
ATOM     25  C   UNL     1       3.271   1.148  23.097  0.00  0.00    +0.001 A 
ATOM     26  C   UNL     1       2.599  -0.338  21.314  0.00  0.00    +0.001 A 
ATOM     27  C   UNL     1       3.568   0.464  21.918  0.00  0.00    +0.000 A 
ENDBRANCH  14  17
ENDBRANCH   7  10
ENDBRANCH   3   7
TORSDOF 5
ENDMDL
MODEL 4
REMARK VINA RESULT:      -1.0     16.731     18.762
REMARK  Name = 75536910
REMARK  5 active torsions:
REMARK  status: ('A' for Active; 'I' for Inactive)
REMARK    1  A    between atoms: O_2  and  C_5
REMARK    2  A    between atoms: O_2  and  C_13
REMARK    3  A    between atoms: N_3  and  C_7
REMARK    4  A    between atoms: C_7  and  C_10
REMARK    5  A    between atoms: C_14  and  C_17
REMARK                            x       y       z     vdW  Elec       q    Type
REMARK                         _______ _______ _______ _____ _____    ______ ____
ROOT
ATOM      1  O   UNL     1      -5.138   3.143  25.965  0.00  0.00    -0.375 OA
ATOM      3  N   UNL     1      -3.617   2.400  23.638  0.00  0.00    -0.292 NA
ATOM      4  C   UNL     1      -3.358   1.230  24.478  0.00  0.00    +0.131 C 
ATOM      5  C   UNL     1      -4.612   0.836  25.270  0.00  0.00    +0.213 C 
ATOM      6  C   UNL     1      -3.425   3.688  24.313  0.00  0.00    +0.113 C 
ATOM      8  C   UNL     1      -5.009   1.792  26.392  0.00  0.00    +0.205 C 
ATOM      9  C   UNL     1      -3.876   3.770  25.770  0.00  0.00    +0.175 C 
ENDROOT
BRANCH   5   2
ATOM      2  O   UNL     1      -4.387  -0.456  25.835  0.00  0.00    -0.485 OA
BRANCH   2  13
ATOM     13  C   UNL     1      -3.252  -1.108  25.439  0.00  0.00    +0.121 A 
ATOM     18  C   UNL     1      -3.341  -2.204  24.582  0.00  0.00    +0.045 A 
ATOM     19  C   UNL     1      -2.005  -0.675  25.892  0.00  0.00    +0.045 A 
ATOM     20  C   UNL     1      -2.183  -2.870  24.177  0.00  0.00    +0.004 A 
ATOM     21  C   UNL     1      -0.848  -1.340  25.489  0.00  0.00    +0.004 A 
ATOM     24  C   UNL     1      -0.936  -2.437  24.631  0.00  0.00    +0.000 A 
ENDBRANCH   2  13
ENDBRANCH   5   2
BRANCH   3   7
ATOM      7  C   UNL     1      -2.829   2.358  22.405  0.00  0.00    +0.119 C 
BRANCH   7  10
ATOM     10  C   UNL     1      -1.447   1.810  22.640  0.00  0.00    -0.033 A 
ATOM     11  C   UNL     1      -1.058   0.616  22.034  0.00  0.00    +0.005 A 
ATOM     12  C   UNL     1      -0.556   2.496  23.465  0.00  0.00    +0.005 A 
ATOM     14  C   UNL     1       1.114   0.794  23.077  0.00  0.00    -0.018 A 
ATOM     15  C   UNL     1       0.223   0.107  22.252  0.00  0.00    +0.009 A 
ATOM     16  C   UNL     1       0.725   1.989  23.683  0.00  0.00    +0.009 A 
BRANCH  14  17
ATOM     17  C   UNL     1       2.443   0.267  23.303  0.00  0.00    -0.018 A 
ATOM     22  C   UNL     1       3.559   1.081  23.108  0.00  0.00    +0.008 A 
ATOM     23  C   UNL     1       2.608  -1.055  23.716  0.00  0.00    +0.008 A 
ATOM     25  C   UNL     1       4.839   0.574  23.325  0.00  0.00    +0.001 A 
ATOM     26  C   UNL     1       3.889  -1.563  23.934  0.00  0.00    +0.001 A 
ATOM     27  C   UNL     1       5.004  -0.748  23.739  0.00  0.00    +0.000 A 
ENDBRANCH  14  17
ENDBRANCH   7  10
ENDBRANCH   3   7
TORSDOF 5
ENDMDL
MODEL 5
REMARK VINA RESULT:      -0.6     16.789     19.299
REMARK  Name = 75536910
REMARK  5 active torsions:
REMARK  status: ('A' for Active; 'I' for Inactive)
REMARK    1  A    between atoms: O_2  and  C_5
REMARK    2  A    between atoms: O_2  and  C_13
REMARK    3  A    between atoms: N_3  and  C_7
REMARK    4  A    between atoms: C_7  and  C_10
REMARK    5  A    between atoms: C_14  and  C_17
REMARK                            x       y       z     vdW  Elec       q    Type
REMARK                         _______ _______ _______ _____ _____    ______ ____
ROOT
ATOM      1  O   UNL     1       3.672  -0.896  23.610  0.00  0.00    -0.375 OA
ATOM      3  N   UNL     1       1.924   1.390  23.645  0.00  0.00    -0.292 NA
ATOM      4  C   UNL     1       0.981   0.373  23.180  0.00  0.00    +0.131 C 
ATOM      5  C   UNL     1       1.222  -0.966  23.890  0.00  0.00    +0.213 C 
ATOM      6  C   UNL     1       3.205   1.403  22.932  0.00  0.00    +0.113 C 
ATOM      8  C   UNL     1       2.503  -1.698  23.495  0.00  0.00    +0.205 C 
ATOM      9  C   UNL     1       3.788   0.045  22.549  0.00  0.00    +0.175 C 
ENDROOT
BRANCH   5   2
ATOM      2  O   UNL     1       0.110  -1.818  23.613  0.00  0.00    -0.485 OA
BRANCH   2  13
ATOM     13  C   UNL     1      -0.992  -1.663  24.408  0.00  0.00    +0.121 A 
ATOM     18  C   UNL     1      -0.979  -0.730  25.444  0.00  0.00    +0.045 A 
ATOM     19  C   UNL     1      -2.129  -2.440  24.182  0.00  0.00    +0.045 A 
ATOM     20  C   UNL     1      -2.103  -0.573  26.256  0.00  0.00    +0.004 A 
ATOM     21  C   UNL     1      -3.253  -2.283  24.992  0.00  0.00    +0.004 A 
ATOM     24  C   UNL     1      -3.240  -1.349  26.029  0.00  0.00    +0.000 A 
ENDBRANCH   2  13
ENDBRANCH   5   2
BRANCH   3   7
ATOM      7  C   UNL     1       1.324   2.725  23.624  0.00  0.00    +0.119 C 
BRANCH   7  10
ATOM     10  C   UNL     1      -0.134   2.691  23.997  0.00  0.00    -0.033 A 
ATOM     11  C   UNL     1      -0.546   3.173  25.240  0.00  0.00    +0.005 A 
ATOM     12  C   UNL     1      -1.072   2.179  23.101  0.00  0.00    +0.005 A 
ATOM     14  C   UNL     1      -2.835   2.629  24.689  0.00  0.00    -0.018 A 
ATOM     15  C   UNL     1      -1.898   3.141  25.587  0.00  0.00    +0.009 A 
ATOM     16  C   UNL     1      -2.423   2.147  23.447  0.00  0.00    +0.009 A 
BRANCH  14  17
ATOM     17  C   UNL     1      -4.237   2.597  25.049  0.00  0.00    -0.018 A 
ATOM     22  C   UNL     1      -4.957   1.407  24.944  0.00  0.00    +0.008 A 
ATOM     23  C   UNL     1      -4.868   3.756  25.500  0.00  0.00    +0.008 A 
ATOM     25  C   UNL     1      -6.308   1.376  25.291  0.00  0.00    +0.001 A 
ATOM     26  C   UNL     1      -6.219   3.725  25.846  0.00  0.00    +0.001 A 
ATOM     27  C   UNL     1      -6.938   2.535  25.742  0.00  0.00    +0.000 A 
ENDBRANCH  14  17
ENDBRANCH   7  10
ENDBRANCH   3   7
TORSDOF 5
ENDMDL
