MODEL 1
REMARK VINA RESULT:      -4.9      0.000      0.000
REMARK  Name = 75366995
REMARK  13 active torsions:
REMARK  status: ('A' for Active; 'I' for Inactive)
REMARK    1  A    between atoms: O_2  and  C_9
REMARK    2  A    between atoms: O_5  and  C_24
REMARK    3  A    between atoms: O_5  and  C_25
REMARK    4  A    between atoms: N_6  and  C_13
REMARK    5  A    between atoms: C_8  and  C_13
REMARK    6  A    between atoms: C_10  and  C_14
REMARK    7  A    between atoms: C_14  and  C_15
REMARK    8  A    between atoms: C_16  and  C_17
REMARK    9  A    between atoms: C_16  and  C_18
REMARK   10  A    between atoms: C_16  and  C_19
REMARK   11  A    between atoms: C_18  and  C_22
REMARK   12  A    between atoms: C_19  and  C_23
REMARK   13  A    between atoms: C_21  and  C_24
REMARK                            x       y       z     vdW  Elec       q    Type
REMARK                         _______ _______ _______ _____ _____    ______ ____
ROOT
ATOM      1  O   UNL     1      -2.338   0.185  24.519  0.00  0.00    -0.369 OA
ATOM      8  C   UNL     1      -0.917   0.024  24.627  0.00  0.00    +0.164 C 
ATOM      9  C   UNL     1      -0.558  -1.229  25.437  0.00  0.00    +0.145 C 
ATOM     10  C   UNL     1      -3.037  -0.934  23.973  0.00  0.00    +0.125 C 
ATOM     11  C   UNL     1      -1.308  -2.468  24.954  0.00  0.00    +0.036 C 
ATOM     12  C   UNL     1      -2.801  -2.184  24.820  0.00  0.00    +0.034 C 
ENDROOT
BRANCH   9   2
ATOM      2  O   UNL     1      -0.911  -1.011  26.805  0.00  0.00    -0.389 OA
ATOM     32  H   UNL     1      -0.090  -0.841  27.297  0.00  0.00    +0.210 HD
ENDBRANCH   9   2
BRANCH   8  13
ATOM     13  C   UNL     1      -0.254   0.055  23.252  0.00  0.00    +0.138 C 
BRANCH  13   6
ATOM      4  O   UNL     1       1.597  -0.305  21.083  0.00  0.00    -0.276 OA
ATOM      6  N   UNL     1       1.180  -0.086  23.353  0.00  0.00    -0.313 N 
ATOM     17  C   UNL     1       1.996  -0.257  22.245  0.00  0.00    +0.216 C 
ATOM     31  H   UNL     1       1.591  -0.082  24.282  0.00  0.00    +0.149 HD
BRANCH  17  16
ATOM     16  C   UNL     1       3.475  -0.399  22.621  0.00  0.00    +0.074 C 
BRANCH  16  18
ATOM     18  C   UNL     1       4.098   0.992  22.856  0.00  0.00    +0.009 C 
ATOM     22  C   UNL     1       5.379   0.986  23.681  0.00  0.00    +0.004 C 
ENDBRANCH  16  18
BRANCH  16  19
ATOM     19  C   UNL     1       3.680  -1.333  23.827  0.00  0.00    +0.009 C 
ATOM     23  C   UNL     1       5.072  -1.954  23.852  0.00  0.00    +0.004 C 
ENDBRANCH  16  19
ENDBRANCH  17  16
ENDBRANCH  13   6
ENDBRANCH   8  13
BRANCH  10  14
ATOM     14  C   UNL     1      -4.518  -0.576  23.936  0.00  0.00    +0.090 C 
BRANCH  14  15
ATOM      3  O   UNL     1      -5.603   2.114  26.075  0.00  0.00    -0.356 OA
ATOM      7  N   UNL     1      -5.562   0.774  25.708  0.00  0.00    -0.083 NA
ATOM     15  C   UNL     1      -4.791   0.738  24.618  0.00  0.00    +0.086 A 
ATOM     20  C   UNL     1      -4.321   2.012  24.253  0.00  0.00    +0.074 A 
ATOM     21  C   UNL     1      -4.860   2.841  25.202  0.00  0.00    +0.175 A 
BRANCH  21  24
ATOM     24  C   UNL     1      -4.793   4.286  25.443  0.00  0.00    +0.306 C 
BRANCH  24   5
ATOM      5  O   UNL     1      -3.729   4.589  26.349  0.00  0.00    -0.484 OA
BRANCH   5  25
ATOM     25  C   UNL     1      -2.463   4.315  25.914  0.00  0.00    +0.121 A 
ATOM     26  C   UNL     1      -1.784   3.199  26.402  0.00  0.00    +0.045 A 
ATOM     27  C   UNL     1      -1.849   5.152  24.982  0.00  0.00    +0.045 A 
ATOM     28  C   UNL     1      -0.491   2.920  25.958  0.00  0.00    +0.004 A 
ATOM     29  C   UNL     1      -0.557   4.873  24.538  0.00  0.00    +0.004 A 
ATOM     30  C   UNL     1       0.123   3.757  25.027  0.00  0.00    +0.000 A 
ENDBRANCH   5  25
ENDBRANCH  24   5
ENDBRANCH  21  24
ENDBRANCH  14  15
ENDBRANCH  10  14
TORSDOF 11
ENDMDL
MODEL 2
REMARK VINA RESULT:      -3.6      1.613      6.867
REMARK  Name = 75366995
REMARK  13 active torsions:
REMARK  status: ('A' for Active; 'I' for Inactive)
REMARK    1  A    between atoms: O_2  and  C_9
REMARK    2  A    between atoms: O_5  and  C_24
REMARK    3  A    between atoms: O_5  and  C_25
REMARK    4  A    between atoms: N_6  and  C_13
REMARK    5  A    between atoms: C_8  and  C_13
REMARK    6  A    between atoms: C_10  and  C_14
REMARK    7  A    between atoms: C_14  and  C_15
REMARK    8  A    between atoms: C_16  and  C_17
REMARK    9  A    between atoms: C_16  and  C_18
REMARK   10  A    between atoms: C_16  and  C_19
REMARK   11  A    between atoms: C_18  and  C_22
REMARK   12  A    between atoms: C_19  and  C_23
REMARK   13  A    between atoms: C_21  and  C_24
REMARK                            x       y       z     vdW  Elec       q    Type
REMARK                         _______ _______ _______ _____ _____    ______ ____
ROOT
ATOM      1  O   UNL     1      -2.525   0.042  24.323  0.00  0.00    -0.369 OA
ATOM      8  C   UNL     1      -3.754  -0.560  23.894  0.00  0.00    +0.164 C 
ATOM      9  C   UNL     1      -3.884  -1.997  24.417  0.00  0.00    +0.145 C 
ATOM     10  C   UNL     1      -2.307   0.042  25.735  0.00  0.00    +0.125 C 
ATOM     11  C   UNL     1      -3.610  -2.098  25.914  0.00  0.00    +0.036 C 
ATOM     12  C   UNL     1      -2.311  -1.385  26.281  0.00  0.00    +0.034 C 
ENDROOT
BRANCH   9   2
ATOM      2  O   UNL     1      -2.929  -2.821  23.742  0.00  0.00    -0.389 OA
ATOM     32  H   UNL     1      -2.215  -3.020  24.371  0.00  0.00    +0.210 HD
ENDBRANCH   9   2
BRANCH   8  13
ATOM     13  C   UNL     1      -4.951   0.316  24.257  0.00  0.00    +0.138 C 
BRANCH  13   6
ATOM      4  O   UNL     1      -3.828   2.556  22.851  0.00  0.00    -0.276 OA
ATOM      6  N   UNL     1      -4.531   1.574  24.829  0.00  0.00    -0.313 N 
ATOM     17  C   UNL     1      -3.997   2.603  24.067  0.00  0.00    +0.216 C 
ATOM     31  H   UNL     1      -4.614   1.687  25.836  0.00  0.00    +0.149 HD
BRANCH  17  16
ATOM     16  C   UNL     1      -3.616   3.823  24.913  0.00  0.00    +0.074 C 
BRANCH  16  18
ATOM     18  C   UNL     1      -4.628   4.008  26.062  0.00  0.00    +0.009 C 
ATOM     22  C   UNL     1      -5.984   4.554  25.635  0.00  0.00    +0.004 C 
ENDBRANCH  16  18
BRANCH  16  19
ATOM     19  C   UNL     1      -2.168   3.742  25.429  0.00  0.00    +0.009 C 
ATOM     23  C   UNL     1      -1.345   4.967  25.043  0.00  0.00    +0.004 C 
ENDBRANCH  16  19
ENDBRANCH  17  16
ENDBRANCH  13   6
ENDBRANCH   8  13
BRANCH  10  14
ATOM     14  C   UNL     1      -0.966   0.717  25.992  0.00  0.00    +0.090 C 
BRANCH  14  15
ATOM      3  O   UNL     1       1.295   1.453  23.283  0.00  0.00    -0.356 OA
ATOM      7  N   UNL     1       0.615   1.796  24.445  0.00  0.00    -0.083 NA
ATOM     15  C   UNL     1      -0.094   0.709  24.765  0.00  0.00    +0.086 A 
ATOM     20  C   UNL     1       0.098  -0.340  23.850  0.00  0.00    +0.074 A 
ATOM     21  C   UNL     1       0.979   0.179  22.938  0.00  0.00    +0.175 A 
BRANCH  21  24
ATOM     24  C   UNL     1       1.615  -0.349  21.726  0.00  0.00    +0.306 C 
BRANCH  24   5
ATOM      5  O   UNL     1       2.906   0.237  21.548  0.00  0.00    -0.484 OA
BRANCH   5  25
ATOM     25  C   UNL     1       3.832  -0.021  22.520  0.00  0.00    +0.121 A 
ATOM     26  C   UNL     1       4.719   0.976  22.922  0.00  0.00    +0.045 A 
ATOM     27  C   UNL     1       3.889  -1.284  23.109  0.00  0.00    +0.045 A 
ATOM     28  C   UNL     1       5.664   0.711  23.913  0.00  0.00    +0.004 A 
ATOM     29  C   UNL     1       4.833  -1.549  24.101  0.00  0.00    +0.004 A 
ATOM     30  C   UNL     1       5.721  -0.551  24.504  0.00  0.00    +0.000 A 
ENDBRANCH   5  25
ENDBRANCH  24   5
ENDBRANCH  21  24
ENDBRANCH  14  15
ENDBRANCH  10  14
TORSDOF 11
ENDMDL
MODEL 3
REMARK VINA RESULT:      -1.9      1.927      5.439
REMARK  Name = 75366995
REMARK  13 active torsions:
REMARK  status: ('A' for Active; 'I' for Inactive)
REMARK    1  A    between atoms: O_2  and  C_9
REMARK    2  A    between atoms: O_5  and  C_24
REMARK    3  A    between atoms: O_5  and  C_25
REMARK    4  A    between atoms: N_6  and  C_13
REMARK    5  A    between atoms: C_8  and  C_13
REMARK    6  A    between atoms: C_10  and  C_14
REMARK    7  A    between atoms: C_14  and  C_15
REMARK    8  A    between atoms: C_16  and  C_17
REMARK    9  A    between atoms: C_16  and  C_18
REMARK   10  A    between atoms: C_16  and  C_19
REMARK   11  A    between atoms: C_18  and  C_22
REMARK   12  A    between atoms: C_19  and  C_23
REMARK   13  A    between atoms: C_21  and  C_24
REMARK                            x       y       z     vdW  Elec       q    Type
REMARK                         _______ _______ _______ _____ _____    ______ ____
ROOT
ATOM      1  O   UNL     1       0.125   0.935  23.202  0.00  0.00    -0.369 OA
ATOM      8  C   UNL     1       0.370  -0.471  23.061  0.00  0.00    +0.164 C 
ATOM      9  C   UNL     1       1.685  -0.735  22.314  0.00  0.00    +0.145 C 
ATOM     10  C   UNL     1       1.171   1.676  23.832  0.00  0.00    +0.125 C 
ATOM     11  C   UNL     1       2.851   0.064  22.890  0.00  0.00    +0.036 C 
ATOM     12  C   UNL     1       2.477   1.534  23.052  0.00  0.00    +0.034 C 
ENDROOT
BRANCH   9   2
ATOM      2  O   UNL     1       1.524  -0.349  20.946  0.00  0.00    -0.389 OA
ATOM     32  H   UNL     1       2.011  -0.990  20.401  0.00  0.00    +0.210 HD
ENDBRANCH   9   2
BRANCH   8  13
ATOM     13  C   UNL     1       0.299  -1.179  24.411  0.00  0.00    +0.138 C 
BRANCH  13   6
ATOM      4  O   UNL     1      -1.542  -3.245  23.634  0.00  0.00    -0.276 OA
ATOM      6  N   UNL     1      -1.067  -1.333  24.855  0.00  0.00    -0.313 N 
ATOM     17  C   UNL     1      -1.884  -2.368  24.424  0.00  0.00    +0.216 C 
ATOM     31  H   UNL     1      -1.438  -0.634  25.492  0.00  0.00    +0.149 HD
BRANCH  17  16
ATOM     16  C   UNL     1      -3.290  -2.296  25.029  0.00  0.00    +0.074 C 
BRANCH  16  18
ATOM     18  C   UNL     1      -3.316  -1.285  26.193  0.00  0.00    +0.009 C 
ATOM     22  C   UNL     1      -2.874   0.125  25.823  0.00  0.00    +0.004 C 
ENDBRANCH  16  18
BRANCH  16  19
ATOM     19  C   UNL     1      -4.363  -1.983  23.970  0.00  0.00    +0.009 C 
ATOM     23  C   UNL     1      -4.844  -3.233  23.243  0.00  0.00    +0.004 C 
ENDBRANCH  16  19
ENDBRANCH  17  16
ENDBRANCH  13   6
ENDBRANCH   8  13
BRANCH  10  14
ATOM     14  C   UNL     1       0.731   3.133  23.892  0.00  0.00    +0.090 C 
BRANCH  14  15
ATOM      3  O   UNL     1      -1.484   3.040  26.734  0.00  0.00    -0.356 OA
ATOM      7  N   UNL     1      -0.385   2.585  26.016  0.00  0.00    -0.083 NA
ATOM     15  C   UNL     1      -0.350   3.346  24.918  0.00  0.00    +0.086 A 
ATOM     20  C   UNL     1      -1.392   4.290  24.890  0.00  0.00    +0.074 A 
ATOM     21  C   UNL     1      -2.075   4.055  26.054  0.00  0.00    +0.175 A 
BRANCH  21  24
ATOM     24  C   UNL     1      -3.261   4.657  26.675  0.00  0.00    +0.306 C 
BRANCH  24   5
ATOM      5  O   UNL     1      -4.348   4.684  25.746  0.00  0.00    -0.484 OA
BRANCH   5  25
ATOM     25  C   UNL     1      -4.901   3.477  25.422  0.00  0.00    +0.121 A 
ATOM     26  C   UNL     1      -5.797   2.863  26.296  0.00  0.00    +0.045 A 
ATOM     27  C   UNL     1      -4.569   2.859  24.216  0.00  0.00    +0.045 A 
ATOM     28  C   UNL     1      -6.362   1.631  25.965  0.00  0.00    +0.004 A 
ATOM     29  C   UNL     1      -5.134   1.628  23.885  0.00  0.00    +0.004 A 
ATOM     30  C   UNL     1      -6.031   1.013  24.760  0.00  0.00    +0.000 A 
ENDBRANCH   5  25
ENDBRANCH  24   5
ENDBRANCH  21  24
ENDBRANCH  14  15
ENDBRANCH  10  14
TORSDOF 11
ENDMDL
MODEL 4
REMARK VINA RESULT:      -1.6      1.660      4.412
REMARK  Name = 75366995
REMARK  13 active torsions:
REMARK  status: ('A' for Active; 'I' for Inactive)
REMARK    1  A    between atoms: O_2  and  C_9
REMARK    2  A    between atoms: O_5  and  C_24
REMARK    3  A    between atoms: O_5  and  C_25
REMARK    4  A    between atoms: N_6  and  C_13
REMARK    5  A    between atoms: C_8  and  C_13
REMARK    6  A    between atoms: C_10  and  C_14
REMARK    7  A    between atoms: C_14  and  C_15
REMARK    8  A    between atoms: C_16  and  C_17
REMARK    9  A    between atoms: C_16  and  C_18
REMARK   10  A    between atoms: C_16  and  C_19
REMARK   11  A    between atoms: C_18  and  C_22
REMARK   12  A    between atoms: C_19  and  C_23
REMARK   13  A    between atoms: C_21  and  C_24
REMARK                            x       y       z     vdW  Elec       q    Type
REMARK                         _______ _______ _______ _____ _____    ______ ____
ROOT
ATOM      1  O   UNL     1      -1.744   2.792  23.522  0.00  0.00    -0.369 OA
ATOM      8  C   UNL     1      -0.320   2.869  23.672  0.00  0.00    +0.164 C 
ATOM      9  C   UNL     1       0.116   4.258  24.156  0.00  0.00    +0.145 C 
ATOM     10  C   UNL     1      -2.498   3.133  24.686  0.00  0.00    +0.125 C 
ATOM     11  C   UNL     1      -0.682   4.728  25.369  0.00  0.00    +0.036 C 
ATOM     12  C   UNL     1      -2.180   4.559  25.136  0.00  0.00    +0.034 C 
ENDROOT
BRANCH   9   2
ATOM      2  O   UNL     1      -0.097   5.201  23.102  0.00  0.00    -0.389 OA
ATOM     32  H   UNL     1       0.358   6.025  23.348  0.00  0.00    +0.210 HD
ENDBRANCH   9   2
BRANCH   8  13
ATOM     13  C   UNL     1       0.201   1.739  24.557  0.00  0.00    +0.138 C 
BRANCH  13   6
ATOM      4  O   UNL     1       0.544  -0.195  22.459  0.00  0.00    -0.276 OA
ATOM      6  N   UNL     1       1.452   1.213  24.061  0.00  0.00    -0.313 N 
ATOM     17  C   UNL     1       1.519   0.277  23.040  0.00  0.00    +0.216 C 
ATOM     31  H   UNL     1       2.308   1.533  24.505  0.00  0.00    +0.149 HD
BRANCH  17  16
ATOM     16  C   UNL     1       2.959  -0.131  22.711  0.00  0.00    +0.074 C 
BRANCH  16  18
ATOM     18  C   UNL     1       3.894   1.092  22.817  0.00  0.00    +0.009 C 
ATOM     22  C   UNL     1       5.226   0.819  23.504  0.00  0.00    +0.004 C 
ENDBRANCH  16  18
BRANCH  16  19
ATOM     19  C   UNL     1       3.444  -1.303  23.583  0.00  0.00    +0.009 C 
ATOM     23  C   UNL     1       4.948  -1.261  23.830  0.00  0.00    +0.004 C 
ENDBRANCH  16  19
ENDBRANCH  17  16
ENDBRANCH  13   6
ENDBRANCH   8  13
BRANCH  10  14
ATOM     14  C   UNL     1      -3.974   2.992  24.335  0.00  0.00    +0.090 C 
BRANCH  14  15
ATOM      3  O   UNL     1      -5.586  -0.203  24.761  0.00  0.00    -0.356 OA
ATOM      7  N   UNL     1      -5.471   1.159  25.010  0.00  0.00    -0.083 NA
ATOM     15  C   UNL     1      -4.404   1.550  24.306  0.00  0.00    +0.086 A 
ATOM     20  C   UNL     1      -3.811   0.487  23.601  0.00  0.00    +0.074 A 
ATOM     21  C   UNL     1      -4.592  -0.592  23.922  0.00  0.00    +0.175 A 
BRANCH  21  24
ATOM     24  C   UNL     1      -4.564  -2.011  23.552  0.00  0.00    +0.306 C 
BRANCH  24   5
ATOM      5  O   UNL     1      -3.896  -2.774  24.560  0.00  0.00    -0.484 OA
BRANCH   5  25
ATOM     25  C   UNL     1      -2.746  -2.237  25.067  0.00  0.00    +0.121 A 
ATOM     26  C   UNL     1      -2.801  -1.371  26.158  0.00  0.00    +0.045 A 
ATOM     27  C   UNL     1      -1.516  -2.555  24.491  0.00  0.00    +0.045 A 
ATOM     28  C   UNL     1      -1.627  -0.823  26.675  0.00  0.00    +0.004 A 
ATOM     29  C   UNL     1      -0.342  -2.008  25.008  0.00  0.00    +0.004 A 
ATOM     30  C   UNL     1      -0.397  -1.141  26.100  0.00  0.00    +0.000 A 
ENDBRANCH   5  25
ENDBRANCH  24   5
ENDBRANCH  21  24
ENDBRANCH  14  15
ENDBRANCH  10  14
TORSDOF 11
ENDMDL
MODEL 5
REMARK VINA RESULT:      -1.1      2.523      5.959
REMARK  Name = 75366995
REMARK  13 active torsions:
REMARK  status: ('A' for Active; 'I' for Inactive)
REMARK    1  A    between atoms: O_2  and  C_9
REMARK    2  A    between atoms: O_5  and  C_24
REMARK    3  A    between atoms: O_5  and  C_25
REMARK    4  A    between atoms: N_6  and  C_13
REMARK    5  A    between atoms: C_8  and  C_13
REMARK    6  A    between atoms: C_10  and  C_14
REMARK    7  A    between atoms: C_14  and  C_15
REMARK    8  A    between atoms: C_16  and  C_17
REMARK    9  A    between atoms: C_16  and  C_18
REMARK   10  A    between atoms: C_16  and  C_19
REMARK   11  A    between atoms: C_18  and  C_22
REMARK   12  A    between atoms: C_19  and  C_23
REMARK   13  A    between atoms: C_21  and  C_24
REMARK                            x       y       z     vdW  Elec       q    Type
REMARK                         _______ _______ _______ _____ _____    ______ ____
ROOT
ATOM      1  O   UNL     1      -2.880  -0.901  23.561  0.00  0.00    -0.369 OA
ATOM      8  C   UNL     1      -4.214  -1.081  24.056  0.00  0.00    +0.164 C 
ATOM      9  C   UNL     1      -4.575  -2.569  24.158  0.00  0.00    +0.145 C 
ATOM     10  C   UNL     1      -1.861  -1.573  24.302  0.00  0.00    +0.125 C 
ATOM     11  C   UNL     1      -3.506  -3.377  24.890  0.00  0.00    +0.036 C 
ATOM     12  C   UNL     1      -2.118  -3.079  24.330  0.00  0.00    +0.034 C 
ENDROOT
BRANCH   9   2
ATOM      2  O   UNL     1      -4.700  -3.106  22.838  0.00  0.00    -0.389 OA
ATOM     32  H   UNL     1      -5.649  -3.203  22.649  0.00  0.00    +0.210 HD
ENDBRANCH   9   2
BRANCH   8  13
ATOM     13  C   UNL     1      -4.422  -0.326  25.366  0.00  0.00    +0.138 C 
BRANCH  13   6
ATOM      4  O   UNL     1      -6.306   1.781  24.849  0.00  0.00    -0.276 OA
ATOM      6  N   UNL     1      -4.128   1.080  25.218  0.00  0.00    -0.313 N 
ATOM     17  C   UNL     1      -5.108   2.029  24.969  0.00  0.00    +0.216 C 
ATOM     31  H   UNL     1      -3.155   1.369  25.278  0.00  0.00    +0.149 HD
BRANCH  17  16
ATOM     16  C   UNL     1      -4.535   3.444  24.837  0.00  0.00    +0.074 C 
BRANCH  16  18
ATOM     18  C   UNL     1      -3.525   3.715  25.971  0.00  0.00    +0.009 C 
ATOM     22  C   UNL     1      -2.522   4.823  25.680  0.00  0.00    +0.004 C 
ENDBRANCH  16  18
BRANCH  16  19
ATOM     19  C   UNL     1      -3.924   3.697  23.448  0.00  0.00    +0.009 C 
ATOM     23  C   UNL     1      -3.137   2.497  22.933  0.00  0.00    +0.004 C 
ENDBRANCH  16  19
ENDBRANCH  17  16
ENDBRANCH  13   6
ENDBRANCH   8  13
BRANCH  10  14
ATOM     14  C   UNL     1      -0.527  -1.263  23.632  0.00  0.00    +0.090 C 
BRANCH  14  15
ATOM      3  O   UNL     1       1.226   1.869  23.954  0.00  0.00    -0.356 OA
ATOM      7  N   UNL     1       1.016   0.633  23.355  0.00  0.00    -0.083 NA
ATOM     15  C   UNL     1      -0.013   0.098  24.018  0.00  0.00    +0.086 A 
ATOM     20  C   UNL     1      -0.489   0.942  25.036  0.00  0.00    +0.074 A 
ATOM     21  C   UNL     1       0.325   2.042  24.954  0.00  0.00    +0.175 A 
BRANCH  21  24
ATOM     24  C   UNL     1       0.405   3.304  25.697  0.00  0.00    +0.306 C 
BRANCH  24   5
ATOM      5  O   UNL     1      -0.125   3.138  27.015  0.00  0.00    -0.484 OA
BRANCH   5  25
ATOM     25  C   UNL     1       0.777   2.863  28.004  0.00  0.00    +0.121 A 
ATOM     26  C   UNL     1       0.338   2.366  29.230  0.00  0.00    +0.045 A 
ATOM     27  C   UNL     1       2.138   3.080  27.786  0.00  0.00    +0.045 A 
ATOM     28  C   UNL     1       1.259   2.086  30.240  0.00  0.00    +0.004 A 
ATOM     29  C   UNL     1       3.059   2.799  28.795  0.00  0.00    +0.004 A 
ATOM     30  C   UNL     1       2.620   2.303  30.023  0.00  0.00    +0.000 A 
ENDBRANCH   5  25
ENDBRANCH  24   5
ENDBRANCH  21  24
ENDBRANCH  14  15
ENDBRANCH  10  14
TORSDOF 11
ENDMDL
MODEL 6
REMARK VINA RESULT:      -0.9     15.126     18.327
REMARK  Name = 75366995
REMARK  13 active torsions:
REMARK  status: ('A' for Active; 'I' for Inactive)
REMARK    1  A    between atoms: O_2  and  C_9
REMARK    2  A    between atoms: O_5  and  C_24
REMARK    3  A    between atoms: O_5  and  C_25
REMARK    4  A    between atoms: N_6  and  C_13
REMARK    5  A    between atoms: C_8  and  C_13
REMARK    6  A    between atoms: C_10  and  C_14
REMARK    7  A    between atoms: C_14  and  C_15
REMARK    8  A    between atoms: C_16  and  C_17
REMARK    9  A    between atoms: C_16  and  C_18
REMARK   10  A    between atoms: C_16  and  C_19
REMARK   11  A    between atoms: C_18  and  C_22
REMARK   12  A    between atoms: C_19  and  C_23
REMARK   13  A    between atoms: C_21  and  C_24
REMARK                            x       y       z     vdW  Elec       q    Type
REMARK                         _______ _______ _______ _____ _____    ______ ____
ROOT
ATOM      1  O   UNL     1      -8.225  -9.175  11.604  0.00  0.00    -0.369 OA
ATOM      8  C   UNL     1      -9.482  -8.760  11.054  0.00  0.00    +0.164 C 
ATOM      9  C   UNL     1      -9.531  -8.989   9.538  0.00  0.00    +0.145 C 
ATOM     10  C   UNL     1      -7.857 -10.528  11.329  0.00  0.00    +0.125 C 
ATOM     11  C   UNL     1      -9.096 -10.399   9.149  0.00  0.00    +0.036 C 
ATOM     12  C   UNL     1      -7.777 -10.769   9.823  0.00  0.00    +0.034 C 
ENDROOT
BRANCH   9   2
ATOM      2  O   UNL     1      -8.640  -8.067   8.903  0.00  0.00    -0.389 OA
ATOM     32  H   UNL     1      -8.988  -7.887   8.014  0.00  0.00    +0.210 HD
ENDBRANCH   9   2
BRANCH   8  13
ATOM     13  C   UNL     1     -10.648  -9.414  11.793  0.00  0.00    +0.138 C 
BRANCH  13   6
ATOM      4  O   UNL     1     -10.281  -8.018  14.277  0.00  0.00    -0.276 OA
ATOM      6  N   UNL     1     -10.224  -9.983  13.050  0.00  0.00    -0.313 N 
ATOM     17  C   UNL     1     -10.074  -9.227  14.203  0.00  0.00    +0.216 C 
ATOM     31  H   UNL     1     -10.007 -10.976  13.071  0.00  0.00    +0.149 HD
BRANCH  17  16
ATOM     16  C   UNL     1      -9.598 -10.063  15.396  0.00  0.00    +0.074 C 
BRANCH  16  18
ATOM     18  C   UNL     1      -8.213  -9.574  15.868  0.00  0.00    +0.009 C 
ATOM     22  C   UNL     1      -7.617 -10.367  17.024  0.00  0.00    +0.004 C 
ENDBRANCH  16  18
BRANCH  16  19
ATOM     19  C   UNL     1     -10.625 -10.077  16.542  0.00  0.00    +0.009 C 
ATOM     23  C   UNL     1     -10.715  -8.734  17.259  0.00  0.00    +0.004 C 
ENDBRANCH  16  19
ENDBRANCH  17  16
ENDBRANCH  13   6
ENDBRANCH   8  13
BRANCH  10  14
ATOM     14  C   UNL     1      -6.507 -10.780  11.990  0.00  0.00    +0.090 C 
BRANCH  14  15
ATOM      3  O   UNL     1      -4.411  -8.971   9.682  0.00  0.00    -0.356 OA
ATOM      7  N   UNL     1      -5.640  -9.472  10.095  0.00  0.00    -0.083 NA
ATOM     15  C   UNL     1      -5.387 -10.105  11.244  0.00  0.00    +0.086 A 
ATOM     20  C   UNL     1      -4.029 -10.038  11.602  0.00  0.00    +0.074 A 
ATOM     21  C   UNL     1      -3.460  -9.315  10.588  0.00  0.00    +0.175 A 
BRANCH  21  24
ATOM     24  C   UNL     1      -2.092  -8.863  10.306  0.00  0.00    +0.306 C 
BRANCH  24   5
ATOM      5  O   UNL     1      -1.211  -9.265  11.357  0.00  0.00    -0.484 OA
BRANCH   5  25
ATOM     25  C   UNL     1      -0.076  -8.520  11.519  0.00  0.00    +0.121 A 
ATOM     26  C   UNL     1      -0.054  -7.474  12.439  0.00  0.00    +0.045 A 
ATOM     27  C   UNL     1       1.060  -8.807  10.761  0.00  0.00    +0.045 A 
ATOM     28  C   UNL     1       1.104  -6.713  12.603  0.00  0.00    +0.004 A 
ATOM     29  C   UNL     1       2.218  -8.047  10.926  0.00  0.00    +0.004 A 
ATOM     30  C   UNL     1       2.240  -6.999  11.847  0.00  0.00    +0.000 A 
ENDBRANCH   5  25
ENDBRANCH  24   5
ENDBRANCH  21  24
ENDBRANCH  14  15
ENDBRANCH  10  14
TORSDOF 11
ENDMDL
