MODEL 1
REMARK VINA RESULT:      -0.4      0.000      0.000
REMARK  Name = 26744527
REMARK  10 active torsions:
REMARK  status: ('A' for Active; 'I' for Inactive)
REMARK    1  A    between atoms: S_1  and  C_21
REMARK    2  A    between atoms: S_1  and  C_25
REMARK    3  A    between atoms: O_2  and  C_13
REMARK    4  A    between atoms: O_6  and  C_28
REMARK    5  A    between atoms: N_8  and  C_15
REMARK    6  A    between atoms: C_11  and  C_16
REMARK    7  A    between atoms: C_15  and  C_17
REMARK    8  A    between atoms: C_18  and  C_21
REMARK    9  A    between atoms: C_24  and  C_28
REMARK   10  A    between atoms: C_31  and  C_32
REMARK                            x       y       z     vdW  Elec       q    Type
REMARK                         _______ _______ _______ _____ _____    ______ ____
ROOT
ATOM      8  N   UNL     1      -5.123   2.119  25.391  0.00  0.00    -0.285 NA
ATOM     11  C   UNL     1      -4.289   2.875  24.435  0.00  0.00    +0.149 C 
ATOM     12  C   UNL     1      -4.524   4.354  24.790  0.00  0.00    +0.061 C 
ATOM     13  C   UNL     1      -5.536   4.330  25.929  0.00  0.00    +0.130 C 
ATOM     14  C   UNL     1      -6.235   2.995  25.753  0.00  0.00    +0.116 C 
ENDROOT
BRANCH  11  16
ATOM      3  O   UNL     1      -2.359   2.078  25.706  0.00  0.00    -0.336 OA
ATOM      9  N   UNL     1      -1.929   2.476  23.545  0.00  0.00    -0.193 NA
ATOM     10  N   UNL     1      -1.006   1.774  25.516  0.00  0.00    -0.060 NA
ATOM     16  C   UNL     1      -2.828   2.482  24.497  0.00  0.00    +0.245 A 
ATOM     18  C   UNL     1      -0.828   2.033  24.218  0.00  0.00    +0.193 A 
BRANCH  18  21
ATOM     21  C   UNL     1       0.471   1.856  23.559  0.00  0.00    +0.251 C 
BRANCH  21   1
ATOM      1  S   UNL     1       0.753   0.123  23.318  0.00  0.00    +0.004 S 
ATOM      4  O   UNL     1       0.254  -0.222  21.999  0.00  0.00    -0.169 OA
ATOM      5  O   UNL     1       0.285  -0.588  24.492  0.00  0.00    -0.169 OA
BRANCH   1  25
ATOM     25  C   UNL     1       2.514  -0.018  23.292  0.00  0.00    +0.089 A 
ATOM     26  C   UNL     1       3.124  -1.194  23.729  0.00  0.00    +0.027 A 
ATOM     27  C   UNL     1       3.293   1.045  22.837  0.00  0.00    +0.027 A 
ATOM     29  C   UNL     1       4.514  -1.306  23.711  0.00  0.00    +0.005 A 
ATOM     30  C   UNL     1       4.684   0.933  22.820  0.00  0.00    +0.005 A 
ATOM     31  C   UNL     1       5.295  -0.242  23.257  0.00  0.00    -0.050 A 
ATOM     32  C   UNL     1       6.780  -0.362  23.238  0.00  0.00    +0.044 C 
ENDBRANCH   1  25
ENDBRANCH  21   1
ENDBRANCH  18  21
ENDBRANCH  11  16
BRANCH  13   2
ATOM      2  O   UNL     1      -6.440   5.413  25.819  0.00  0.00    -0.390 OA
ATOM     33  H   UNL     1      -5.912   6.227  25.746  0.00  0.00    +0.210 HD
ENDBRANCH  13   2
BRANCH   8  15
ATOM     15  C   UNL     1      -5.580   0.838  24.868  0.00  0.00    +0.120 C 
BRANCH  15  17
ATOM     17  C   UNL     1      -4.457  -0.160  24.768  0.00  0.00    -0.033 A 
ATOM     19  C   UNL     1      -3.839  -0.632  25.925  0.00  0.00    +0.006 A 
ATOM     20  C   UNL     1      -4.036  -0.613  23.518  0.00  0.00    +0.006 A 
ATOM     22  C   UNL     1      -2.799  -1.557  25.833  0.00  0.00    +0.015 A 
ATOM     23  C   UNL     1      -2.997  -1.538  23.425  0.00  0.00    +0.015 A 
ATOM     24  C   UNL     1      -2.378  -2.010  24.583  0.00  0.00    +0.059 A 
BRANCH  24  28
ATOM      7  O   UNL     1      -1.108  -3.752  23.543  0.00  0.00    -0.245 OA
ATOM     28  C   UNL     1      -1.295  -2.975  24.486  0.00  0.00    +0.337 C 
BRANCH  28   6
ATOM      6  O   UNL     1      -0.472  -2.945  25.570  0.00  0.00    -0.477 OA
ATOM     34  H   UNL     1      -0.015  -2.082  25.658  0.00  0.00    +0.295 HD
ENDBRANCH  28   6
ENDBRANCH  24  28
ENDBRANCH  15  17
ENDBRANCH   8  15
TORSDOF 9
ENDMDL
MODEL 2
REMARK VINA RESULT:      -0.1      2.842      7.051
REMARK  Name = 26744527
REMARK  10 active torsions:
REMARK  status: ('A' for Active; 'I' for Inactive)
REMARK    1  A    between atoms: S_1  and  C_21
REMARK    2  A    between atoms: S_1  and  C_25
REMARK    3  A    between atoms: O_2  and  C_13
REMARK    4  A    between atoms: O_6  and  C_28
REMARK    5  A    between atoms: N_8  and  C_15
REMARK    6  A    between atoms: C_11  and  C_16
REMARK    7  A    between atoms: C_15  and  C_17
REMARK    8  A    between atoms: C_18  and  C_21
REMARK    9  A    between atoms: C_24  and  C_28
REMARK   10  A    between atoms: C_31  and  C_32
REMARK                            x       y       z     vdW  Elec       q    Type
REMARK                         _______ _______ _______ _____ _____    ______ ____
ROOT
ATOM      8  N   UNL     1      -0.195   1.211  24.189  0.00  0.00    -0.285 NA
ATOM     11  C   UNL     1      -0.724   0.335  25.255  0.00  0.00    +0.149 C 
ATOM     12  C   UNL     1      -0.499   1.121  26.559  0.00  0.00    +0.061 C 
ATOM     13  C   UNL     1       0.201   2.405  26.130  0.00  0.00    +0.130 C 
ATOM     14  C   UNL     1       0.843   2.034  24.807  0.00  0.00    +0.116 C 
ENDROOT
BRANCH  11  16
ATOM      3  O   UNL     1      -2.520  -1.322  25.312  0.00  0.00    -0.336 OA
ATOM      9  N   UNL     1      -3.167   0.705  24.614  0.00  0.00    -0.193 NA
ATOM     10  N   UNL     1      -3.889  -1.423  25.038  0.00  0.00    -0.060 NA
ATOM     16  C   UNL     1      -2.176  -0.037  25.038  0.00  0.00    +0.245 A 
ATOM     18  C   UNL     1      -4.198  -0.189  24.632  0.00  0.00    +0.193 A 
BRANCH  18  21
ATOM     21  C   UNL     1      -5.559   0.180  24.228  0.00  0.00    +0.251 C 
BRANCH  21   1
ATOM      1  S   UNL     1      -6.083   1.568  25.196  0.00  0.00    +0.004 S 
ATOM      4  O   UNL     1      -6.228   1.116  26.567  0.00  0.00    -0.169 OA
ATOM      5  O   UNL     1      -7.187   2.216  24.513  0.00  0.00    -0.169 OA
BRANCH   1  25
ATOM     25  C   UNL     1      -4.708   2.675  25.125  0.00  0.00    +0.089 A 
ATOM     26  C   UNL     1      -4.191   3.067  23.890  0.00  0.00    +0.027 A 
ATOM     27  C   UNL     1      -4.138   3.155  26.304  0.00  0.00    +0.027 A 
ATOM     29  C   UNL     1      -3.104   3.938  23.834  0.00  0.00    +0.005 A 
ATOM     30  C   UNL     1      -3.050   4.028  26.248  0.00  0.00    +0.005 A 
ATOM     31  C   UNL     1      -2.533   4.419  25.013  0.00  0.00    -0.050 A 
ATOM     32  C   UNL     1      -1.371   5.351  24.953  0.00  0.00    +0.044 C 
ENDBRANCH   1  25
ENDBRANCH  21   1
ENDBRANCH  18  21
ENDBRANCH  11  16
BRANCH  13   2
ATOM      2  O   UNL     1       1.165   2.795  27.090  0.00  0.00    -0.390 OA
ATOM     33  H   UNL     1       1.598   3.600  26.758  0.00  0.00    +0.210 HD
ENDBRANCH  13   2
BRANCH   8  15
ATOM     15  C   UNL     1       0.303   0.475  23.034  0.00  0.00    +0.120 C 
BRANCH  15  17
ATOM     17  C   UNL     1       1.782   0.212  23.133  0.00  0.00    -0.033 A 
ATOM     19  C   UNL     1       2.693   1.214  22.798  0.00  0.00    +0.006 A 
ATOM     20  C   UNL     1       2.242  -1.035  23.559  0.00  0.00    +0.006 A 
ATOM     22  C   UNL     1       4.063   0.970  22.890  0.00  0.00    +0.015 A 
ATOM     23  C   UNL     1       3.611  -1.279  23.650  0.00  0.00    +0.015 A 
ATOM     24  C   UNL     1       4.522  -0.277  23.316  0.00  0.00    +0.059 A 
BRANCH  24  28
ATOM      7  O   UNL     1       6.781  -0.307  22.524  0.00  0.00    -0.245 OA
ATOM     28  C   UNL     1       5.951  -0.531  23.412  0.00  0.00    +0.337 C 
BRANCH  28   6
ATOM      6  O   UNL     1       6.306  -1.059  24.616  0.00  0.00    -0.477 OA
ATOM     34  H   UNL     1       5.862  -0.601  25.360  0.00  0.00    +0.295 HD
ENDBRANCH  28   6
ENDBRANCH  24  28
ENDBRANCH  15  17
ENDBRANCH   8  15
TORSDOF 9
ENDMDL
MODEL 3
REMARK VINA RESULT:       0.6      2.600      6.469
REMARK  Name = 26744527
REMARK  10 active torsions:
REMARK  status: ('A' for Active; 'I' for Inactive)
REMARK    1  A    between atoms: S_1  and  C_21
REMARK    2  A    between atoms: S_1  and  C_25
REMARK    3  A    between atoms: O_2  and  C_13
REMARK    4  A    between atoms: O_6  and  C_28
REMARK    5  A    between atoms: N_8  and  C_15
REMARK    6  A    between atoms: C_11  and  C_16
REMARK    7  A    between atoms: C_15  and  C_17
REMARK    8  A    between atoms: C_18  and  C_21
REMARK    9  A    between atoms: C_24  and  C_28
REMARK   10  A    between atoms: C_31  and  C_32
REMARK                            x       y       z     vdW  Elec       q    Type
REMARK                         _______ _______ _______ _____ _____    ______ ____
ROOT
ATOM      8  N   UNL     1      -2.940  -1.339  25.558  0.00  0.00    -0.285 NA
ATOM     11  C   UNL     1      -3.100  -0.922  24.150  0.00  0.00    +0.149 C 
ATOM     12  C   UNL     1      -3.817  -2.101  23.468  0.00  0.00    +0.061 C 
ATOM     13  C   UNL     1      -3.978  -3.150  24.562  0.00  0.00    +0.130 C 
ATOM     14  C   UNL     1      -2.884  -2.800  25.552  0.00  0.00    +0.116 C 
ENDROOT
BRANCH  11  16
ATOM      3  O   UNL     1      -3.392   1.257  23.079  0.00  0.00    -0.336 OA
ATOM      9  N   UNL     1      -4.906   0.808  24.667  0.00  0.00    -0.193 NA
ATOM     10  N   UNL     1      -4.238   2.371  23.137  0.00  0.00    -0.060 NA
ATOM     16  C   UNL     1      -3.856   0.383  24.011  0.00  0.00    +0.245 A 
ATOM     18  C   UNL     1      -5.104   2.031  24.095  0.00  0.00    +0.193 A 
BRANCH  18  21
ATOM     21  C   UNL     1      -6.197   2.919  24.508  0.00  0.00    +0.251 C 
BRANCH  21   1
ATOM      1  S   UNL     1      -5.664   3.860  25.911  0.00  0.00    +0.004 S 
ATOM      4  O   UNL     1      -5.784   3.009  27.080  0.00  0.00    -0.169 OA
ATOM      5  O   UNL     1      -6.318   5.155  25.872  0.00  0.00    -0.169 OA
BRANCH   1  25
ATOM     25  C   UNL     1      -3.946   4.136  25.607  0.00  0.00    +0.089 A 
ATOM     26  C   UNL     1      -3.549   5.057  24.638  0.00  0.00    +0.027 A 
ATOM     27  C   UNL     1      -2.987   3.431  26.334  0.00  0.00    +0.027 A 
ATOM     29  C   UNL     1      -2.192   5.274  24.396  0.00  0.00    +0.005 A 
ATOM     30  C   UNL     1      -1.630   3.648  26.093  0.00  0.00    +0.005 A 
ATOM     31  C   UNL     1      -1.232   4.568  25.123  0.00  0.00    -0.050 A 
ATOM     32  C   UNL     1       0.217   4.800  24.865  0.00  0.00    +0.044 C 
ENDBRANCH   1  25
ENDBRANCH  21   1
ENDBRANCH  18  21
ENDBRANCH  11  16
BRANCH  13   2
ATOM      2  O   UNL     1      -3.811  -4.453  24.034  0.00  0.00    -0.390 OA
ATOM     33  H   UNL     1      -3.586  -4.360  23.093  0.00  0.00    +0.210 HD
ENDBRANCH  13   2
BRANCH   8  15
ATOM     15  C   UNL     1      -1.775  -0.748  26.204  0.00  0.00    +0.120 C 
BRANCH  15  17
ATOM     17  C   UNL     1      -0.682  -0.441  25.214  0.00  0.00    -0.033 A 
ATOM     19  C   UNL     1      -0.348   0.884  24.934  0.00  0.00    +0.006 A 
ATOM     20  C   UNL     1      -0.003  -1.481  24.580  0.00  0.00    +0.006 A 
ATOM     22  C   UNL     1       0.665   1.168  24.018  0.00  0.00    +0.015 A 
ATOM     23  C   UNL     1       1.010  -1.197  23.664  0.00  0.00    +0.015 A 
ATOM     24  C   UNL     1       1.344   0.128  23.384  0.00  0.00    +0.059 A 
BRANCH  24  28
ATOM      7  O   UNL     1       3.450   1.025  22.685  0.00  0.00    -0.245 OA
ATOM     28  C   UNL     1       2.401   0.425  22.429  0.00  0.00    +0.337 C 
BRANCH  28   6
ATOM      6  O   UNL     1       2.119  -0.037  21.180  0.00  0.00    -0.477 OA
ATOM     34  H   UNL     1       1.880   0.691  20.568  0.00  0.00    +0.295 HD
ENDBRANCH  28   6
ENDBRANCH  24  28
ENDBRANCH  15  17
ENDBRANCH   8  15
TORSDOF 9
ENDMDL
MODEL 4
REMARK VINA RESULT:       0.9      1.853      4.497
REMARK  Name = 26744527
REMARK  10 active torsions:
REMARK  status: ('A' for Active; 'I' for Inactive)
REMARK    1  A    between atoms: S_1  and  C_21
REMARK    2  A    between atoms: S_1  and  C_25
REMARK    3  A    between atoms: O_2  and  C_13
REMARK    4  A    between atoms: O_6  and  C_28
REMARK    5  A    between atoms: N_8  and  C_15
REMARK    6  A    between atoms: C_11  and  C_16
REMARK    7  A    between atoms: C_15  and  C_17
REMARK    8  A    between atoms: C_18  and  C_21
REMARK    9  A    between atoms: C_24  and  C_28
REMARK   10  A    between atoms: C_31  and  C_32
REMARK                            x       y       z     vdW  Elec       q    Type
REMARK                         _______ _______ _______ _____ _____    ______ ____
ROOT
ATOM      8  N   UNL     1      -4.235  -0.382  24.221  0.00  0.00    -0.285 NA
ATOM     11  C   UNL     1      -3.208  -0.746  25.219  0.00  0.00    +0.149 C 
ATOM     12  C   UNL     1      -3.040  -2.269  25.076  0.00  0.00    +0.061 C 
ATOM     13  C   UNL     1      -4.045  -2.677  24.005  0.00  0.00    +0.130 C 
ATOM     14  C   UNL     1      -5.076  -1.565  24.043  0.00  0.00    +0.116 C 
ENDROOT
BRANCH  11  16
ATOM      3  O   UNL     1      -1.502   0.795  26.052  0.00  0.00    -0.336 OA
ATOM      9  N   UNL     1      -1.107   0.021  23.988  0.00  0.00    -0.193 NA
ATOM     10  N   UNL     1      -0.299   1.381  25.640  0.00  0.00    -0.060 NA
ATOM     16  C   UNL     1      -1.910   0.008  25.022  0.00  0.00    +0.245 A 
ATOM     18  C   UNL     1      -0.133   0.876  24.415  0.00  0.00    +0.193 A 
BRANCH  18  21
ATOM     21  C   UNL     1       1.024   1.222  23.581  0.00  0.00    +0.251 C 
BRANCH  21   1
ATOM      1  S   UNL     1       1.615  -0.250  22.790  0.00  0.00    +0.004 S 
ATOM      4  O   UNL     1       1.426  -0.084  21.361  0.00  0.00    -0.169 OA
ATOM      5  O   UNL     1       1.056  -1.398  23.479  0.00  0.00    -0.169 OA
BRANCH   1  25
ATOM     25  C   UNL     1       3.350  -0.239  23.121  0.00  0.00    +0.089 A 
ATOM     26  C   UNL     1       3.960  -1.362  23.678  0.00  0.00    +0.027 A 
ATOM     27  C   UNL     1       4.109   0.893  22.825  0.00  0.00    +0.027 A 
ATOM     29  C   UNL     1       5.330  -1.353  23.941  0.00  0.00    +0.005 A 
ATOM     30  C   UNL     1       5.480   0.902  23.089  0.00  0.00    +0.005 A 
ATOM     31  C   UNL     1       6.090  -0.221  23.647  0.00  0.00    -0.050 A 
ATOM     32  C   UNL     1       7.554  -0.212  23.928  0.00  0.00    +0.044 C 
ENDBRANCH   1  25
ENDBRANCH  21   1
ENDBRANCH  18  21
ENDBRANCH  11  16
BRANCH  13   2
ATOM      2  O   UNL     1      -4.618  -3.934  24.309  0.00  0.00    -0.390 OA
ATOM     33  H   UNL     1      -5.372  -3.776  24.902  0.00  0.00    +0.210 HD
ENDBRANCH  13   2
BRANCH   8  15
ATOM     15  C   UNL     1      -5.012   0.792  24.598  0.00  0.00    +0.120 C 
BRANCH  15  17
ATOM     17  C   UNL     1      -4.150   2.022  24.710  0.00  0.00    -0.033 A 
ATOM     19  C   UNL     1      -4.146   2.764  25.891  0.00  0.00    +0.006 A 
ATOM     20  C   UNL     1      -3.357   2.418  23.634  0.00  0.00    +0.006 A 
ATOM     22  C   UNL     1      -3.347   3.903  25.995  0.00  0.00    +0.015 A 
ATOM     23  C   UNL     1      -2.558   3.557  23.738  0.00  0.00    +0.015 A 
ATOM     24  C   UNL     1      -2.554   4.299  24.919  0.00  0.00    +0.059 A 
BRANCH  24  28
ATOM      7  O   UNL     1      -2.122   6.621  25.308  0.00  0.00    -0.245 OA
ATOM     28  C   UNL     1      -1.720   5.486  25.028  0.00  0.00    +0.337 C 
BRANCH  28   6
ATOM      6  O   UNL     1      -0.406   5.224  24.784  0.00  0.00    -0.477 OA
ATOM     34  H   UNL     1      -0.236   4.263  24.697  0.00  0.00    +0.295 HD
ENDBRANCH  28   6
ENDBRANCH  24  28
ENDBRANCH  15  17
ENDBRANCH   8  15
TORSDOF 9
ENDMDL
MODEL 5
REMARK VINA RESULT:       1.1      2.575      7.066
REMARK  Name = 26744527
REMARK  10 active torsions:
REMARK  status: ('A' for Active; 'I' for Inactive)
REMARK    1  A    between atoms: S_1  and  C_21
REMARK    2  A    between atoms: S_1  and  C_25
REMARK    3  A    between atoms: O_2  and  C_13
REMARK    4  A    between atoms: O_6  and  C_28
REMARK    5  A    between atoms: N_8  and  C_15
REMARK    6  A    between atoms: C_11  and  C_16
REMARK    7  A    between atoms: C_15  and  C_17
REMARK    8  A    between atoms: C_18  and  C_21
REMARK    9  A    between atoms: C_24  and  C_28
REMARK   10  A    between atoms: C_31  and  C_32
REMARK                            x       y       z     vdW  Elec       q    Type
REMARK                         _______ _______ _______ _____ _____    ______ ____
ROOT
ATOM      8  N   UNL     1      -0.609  -1.241  23.916  0.00  0.00    -0.285 NA
ATOM     11  C   UNL     1      -1.647  -0.237  24.226  0.00  0.00    +0.149 C 
ATOM     12  C   UNL     1      -2.706  -1.002  25.041  0.00  0.00    +0.061 C 
ATOM     13  C   UNL     1      -2.196  -2.437  25.098  0.00  0.00    +0.130 C 
ATOM     14  C   UNL     1      -1.283  -2.538  23.891  0.00  0.00    +0.116 C 
ENDROOT
BRANCH  11  16
ATOM      3  O   UNL     1      -0.710   0.760  26.253  0.00  0.00    -0.336 OA
ATOM      9  N   UNL     1      -0.932   2.193  24.547  0.00  0.00    -0.193 NA
ATOM     10  N   UNL     1      -0.243   1.994  26.719  0.00  0.00    -0.060 NA
ATOM     16  C   UNL     1      -1.094   0.964  24.966  0.00  0.00    +0.245 A 
ATOM     18  C   UNL     1      -0.406   2.788  25.657  0.00  0.00    +0.193 A 
BRANCH  18  21
ATOM     21  C   UNL     1      -0.044   4.210  25.685  0.00  0.00    +0.251 C 
BRANCH  21   1
ATOM      1  S   UNL     1      -1.192   5.107  24.677  0.00  0.00    +0.004 S 
ATOM      4  O   UNL     1      -0.722   5.032  23.306  0.00  0.00    -0.169 OA
ATOM      5  O   UNL     1      -1.444   6.393  25.300  0.00  0.00    -0.169 OA
BRANCH   1  25
ATOM     25  C   UNL     1      -2.684   4.170  24.798  0.00  0.00    +0.089 A 
ATOM     26  C   UNL     1      -3.342   4.062  26.023  0.00  0.00    +0.027 A 
ATOM     27  C   UNL     1      -3.203   3.536  23.670  0.00  0.00    +0.027 A 
ATOM     29  C   UNL     1      -4.518   3.320  26.120  0.00  0.00    +0.005 A 
ATOM     30  C   UNL     1      -4.381   2.793  23.766  0.00  0.00    +0.005 A 
ATOM     31  C   UNL     1      -5.038   2.685  24.991  0.00  0.00    -0.050 A 
ATOM     32  C   UNL     1      -6.296   1.892  25.095  0.00  0.00    +0.044 C 
ENDBRANCH   1  25
ENDBRANCH  21   1
ENDBRANCH  18  21
ENDBRANCH  11  16
BRANCH  13   2
ATOM      2  O   UNL     1      -3.272  -3.354  25.019  0.00  0.00    -0.390 OA
ATOM     33  H   UNL     1      -3.214  -3.938  25.794  0.00  0.00    +0.210 HD
ENDBRANCH  13   2
BRANCH   8  15
ATOM     15  C   UNL     1       0.101  -0.968  22.673  0.00  0.00    +0.120 C 
BRANCH  15  17
ATOM     17  C   UNL     1       1.555  -0.656  22.915  0.00  0.00    -0.033 A 
ATOM     19  C   UNL     1       2.076   0.579  22.533  0.00  0.00    +0.006 A 
ATOM     20  C   UNL     1       2.379  -1.604  23.522  0.00  0.00    +0.006 A 
ATOM     22  C   UNL     1       3.422   0.868  22.758  0.00  0.00    +0.015 A 
ATOM     23  C   UNL     1       3.725  -1.316  23.746  0.00  0.00    +0.015 A 
ATOM     24  C   UNL     1       4.246  -0.080  23.364  0.00  0.00    +0.059 A 
BRANCH  24  28
ATOM      7  O   UNL     1       6.599  -0.232  22.949  0.00  0.00    -0.245 OA
ATOM     28  C   UNL     1       5.650   0.220  23.599  0.00  0.00    +0.337 C 
BRANCH  28   6
ATOM      6  O   UNL     1       5.832   1.079  24.640  0.00  0.00    -0.477 OA
ATOM     34  H   UNL     1       5.080   1.701  24.735  0.00  0.00    +0.295 HD
ENDBRANCH  28   6
ENDBRANCH  24  28
ENDBRANCH  15  17
ENDBRANCH   8  15
TORSDOF 9
ENDMDL
MODEL 6
REMARK VINA RESULT:       1.5      2.609      5.824
REMARK  Name = 26744527
REMARK  10 active torsions:
REMARK  status: ('A' for Active; 'I' for Inactive)
REMARK    1  A    between atoms: S_1  and  C_21
REMARK    2  A    between atoms: S_1  and  C_25
REMARK    3  A    between atoms: O_2  and  C_13
REMARK    4  A    between atoms: O_6  and  C_28
REMARK    5  A    between atoms: N_8  and  C_15
REMARK    6  A    between atoms: C_11  and  C_16
REMARK    7  A    between atoms: C_15  and  C_17
REMARK    8  A    between atoms: C_18  and  C_21
REMARK    9  A    between atoms: C_24  and  C_28
REMARK   10  A    between atoms: C_31  and  C_32
REMARK                            x       y       z     vdW  Elec       q    Type
REMARK                         _______ _______ _______ _____ _____    ______ ____
ROOT
ATOM      8  N   UNL     1      -3.247  -1.511  25.601  0.00  0.00    -0.285 NA
ATOM     11  C   UNL     1      -3.585  -0.727  24.396  0.00  0.00    +0.149 C 
ATOM     12  C   UNL     1      -4.407  -1.687  23.518  0.00  0.00    +0.061 C 
ATOM     13  C   UNL     1      -4.440  -2.998  24.293  0.00  0.00    +0.130 C 
ATOM     14  C   UNL     1      -3.219  -2.913  25.188  0.00  0.00    +0.116 C 
ENDROOT
BRANCH  11  16
ATOM      3  O   UNL     1      -5.311   0.462  25.655  0.00  0.00    -0.336 OA
ATOM      9  N   UNL     1      -4.168   1.754  24.227  0.00  0.00    -0.193 NA
ATOM     10  N   UNL     1      -5.846   1.749  25.782  0.00  0.00    -0.060 NA
ATOM     16  C   UNL     1      -4.329   0.552  24.721  0.00  0.00    +0.245 A 
ATOM     18  C   UNL     1      -5.120   2.454  24.909  0.00  0.00    +0.193 A 
BRANCH  18  21
ATOM     21  C   UNL     1      -5.337   3.889  24.696  0.00  0.00    +0.251 C 
BRANCH  21   1
ATOM      1  S   UNL     1      -3.970   4.540  23.776  0.00  0.00    +0.004 S 
ATOM      4  O   UNL     1      -4.053   5.987  23.834  0.00  0.00    -0.169 OA
ATOM      5  O   UNL     1      -3.909   3.856  22.497  0.00  0.00    -0.169 OA
BRANCH   1  25
ATOM     25  C   UNL     1      -2.556   4.033  24.704  0.00  0.00    +0.089 A 
ATOM     26  C   UNL     1      -1.302   3.986  24.094  0.00  0.00    +0.027 A 
ATOM     27  C   UNL     1      -2.692   3.677  26.046  0.00  0.00    +0.027 A 
ATOM     29  C   UNL     1      -0.185   3.584  24.826  0.00  0.00    +0.005 A 
ATOM     30  C   UNL     1      -1.575   3.274  26.778  0.00  0.00    +0.005 A 
ATOM     31  C   UNL     1      -0.321   3.227  26.169  0.00  0.00    -0.050 A 
ATOM     32  C   UNL     1       0.873   2.798  26.951  0.00  0.00    +0.044 C 
ENDBRANCH   1  25
ENDBRANCH  21   1
ENDBRANCH  18  21
ENDBRANCH  11  16
BRANCH  13   2
ATOM      2  O   UNL     1      -4.369  -4.103  23.412  0.00  0.00    -0.390 OA
ATOM     33  H   UNL     1      -3.577  -3.985  22.859  0.00  0.00    +0.210 HD
ENDBRANCH  13   2
BRANCH   8  15
ATOM     15  C   UNL     1      -1.997  -1.097  26.224  0.00  0.00    +0.120 C 
BRANCH  15  17
ATOM     17  C   UNL     1      -0.932  -0.799  25.201  0.00  0.00    -0.033 A 
ATOM     19  C   UNL     1       0.110  -1.703  24.997  0.00  0.00    +0.006 A 
ATOM     20  C   UNL     1      -0.989   0.380  24.458  0.00  0.00    +0.006 A 
ATOM     22  C   UNL     1       1.096  -1.428  24.049  0.00  0.00    +0.015 A 
ATOM     23  C   UNL     1      -0.004   0.655  23.510  0.00  0.00    +0.015 A 
ATOM     24  C   UNL     1       1.038  -0.249  23.306  0.00  0.00    +0.059 A 
BRANCH  24  28
ATOM      7  O   UNL     1       3.194   0.479  22.562  0.00  0.00    -0.245 OA
ATOM     28  C   UNL     1       2.065   0.038  22.317  0.00  0.00    +0.337 C 
BRANCH  28   6
ATOM      6  O   UNL     1       1.656  -0.232  21.047  0.00  0.00    -0.477 OA
ATOM     34  H   UNL     1       1.927  -1.129  20.760  0.00  0.00    +0.295 HD
ENDBRANCH  28   6
ENDBRANCH  24  28
ENDBRANCH  15  17
ENDBRANCH   8  15
TORSDOF 9
ENDMDL
MODEL 7
REMARK VINA RESULT:       1.7      2.362      7.811
REMARK  Name = 26744527
REMARK  10 active torsions:
REMARK  status: ('A' for Active; 'I' for Inactive)
REMARK    1  A    between atoms: S_1  and  C_21
REMARK    2  A    between atoms: S_1  and  C_25
REMARK    3  A    between atoms: O_2  and  C_13
REMARK    4  A    between atoms: O_6  and  C_28
REMARK    5  A    between atoms: N_8  and  C_15
REMARK    6  A    between atoms: C_11  and  C_16
REMARK    7  A    between atoms: C_15  and  C_17
REMARK    8  A    between atoms: C_18  and  C_21
REMARK    9  A    between atoms: C_24  and  C_28
REMARK   10  A    between atoms: C_31  and  C_32
REMARK                            x       y       z     vdW  Elec       q    Type
REMARK                         _______ _______ _______ _____ _____    ______ ____
ROOT
ATOM      8  N   UNL     1       2.021   1.274  23.591  0.00  0.00    -0.285 NA
ATOM     11  C   UNL     1       1.576  -0.053  23.120  0.00  0.00    +0.149 C 
ATOM     12  C   UNL     1       2.846  -0.924  23.134  0.00  0.00    +0.061 C 
ATOM     13  C   UNL     1       3.960   0.013  23.585  0.00  0.00    +0.130 C 
ATOM     14  C   UNL     1       3.432   1.390  23.228  0.00  0.00    +0.116 C 
ENDROOT
BRANCH  11  16
ATOM      3  O   UNL     1       0.754  -1.755  24.671  0.00  0.00    -0.336 OA
ATOM      9  N   UNL     1      -0.766  -0.204  24.125  0.00  0.00    -0.193 NA
ATOM     10  N   UNL     1      -0.414  -2.094  25.364  0.00  0.00    -0.060 NA
ATOM     16  C   UNL     1       0.461  -0.630  23.967  0.00  0.00    +0.245 A 
ATOM     18  C   UNL     1      -1.264  -1.133  24.991  0.00  0.00    +0.193 A 
BRANCH  18  21
ATOM     21  C   UNL     1      -2.646  -1.084  25.481  0.00  0.00    +0.251 C 
BRANCH  21   1
ATOM      1  S   UNL     1      -3.718  -0.715  24.120  0.00  0.00    +0.004 S 
ATOM      4  O   UNL     1      -4.782  -1.702  24.121  0.00  0.00    -0.169 OA
ATOM      5  O   UNL     1      -2.905  -0.510  22.936  0.00  0.00    -0.169 OA
BRANCH   1  25
ATOM     25  C   UNL     1      -4.419   0.849  24.546  0.00  0.00    +0.089 A 
ATOM     26  C   UNL     1      -5.325   0.942  25.603  0.00  0.00    +0.027 A 
ATOM     27  C   UNL     1      -4.070   1.990  23.825  0.00  0.00    +0.027 A 
ATOM     29  C   UNL     1      -5.881   2.176  25.938  0.00  0.00    +0.005 A 
ATOM     30  C   UNL     1      -4.626   3.226  24.161  0.00  0.00    +0.005 A 
ATOM     31  C   UNL     1      -5.532   3.318  25.217  0.00  0.00    -0.050 A 
ATOM     32  C   UNL     1      -6.126   4.637  25.576  0.00  0.00    +0.044 C 
ENDBRANCH   1  25
ENDBRANCH  21   1
ENDBRANCH  18  21
ENDBRANCH  11  16
BRANCH  13   2
ATOM      2  O   UNL     1       5.166  -0.279  22.905  0.00  0.00    -0.390 OA
ATOM     33  H   UNL     1       4.932  -0.564  22.005  0.00  0.00    +0.210 HD
ENDBRANCH  13   2
BRANCH   8  15
ATOM     15  C   UNL     1       1.225   2.371  23.056  0.00  0.00    +0.120 C 
BRANCH  15  17
ATOM     17  C   UNL     1       0.216   2.871  24.056  0.00  0.00    -0.033 A 
ATOM     19  C   UNL     1      -0.614   3.944  23.732  0.00  0.00    +0.006 A 
ATOM     20  C   UNL     1       0.112   2.261  25.306  0.00  0.00    +0.006 A 
ATOM     22  C   UNL     1      -1.548   4.407  24.658  0.00  0.00    +0.015 A 
ATOM     23  C   UNL     1      -0.823   2.724  26.232  0.00  0.00    +0.015 A 
ATOM     24  C   UNL     1      -1.653   3.797  25.908  0.00  0.00    +0.059 A 
BRANCH  24  28
ATOM      7  O   UNL     1      -2.968   3.689  27.905  0.00  0.00    -0.245 OA
ATOM     28  C   UNL     1      -2.628   4.279  26.874  0.00  0.00    +0.337 C 
BRANCH  28   6
ATOM      6  O   UNL     1      -3.153   5.486  26.526  0.00  0.00    -0.477 OA
ATOM     34  H   UNL     1      -3.449   5.994  27.310  0.00  0.00    +0.295 HD
ENDBRANCH  28   6
ENDBRANCH  24  28
ENDBRANCH  15  17
ENDBRANCH   8  15
TORSDOF 9
ENDMDL
MODEL 8
REMARK VINA RESULT:       1.8      2.685      3.993
REMARK  Name = 26744527
REMARK  10 active torsions:
REMARK  status: ('A' for Active; 'I' for Inactive)
REMARK    1  A    between atoms: S_1  and  C_21
REMARK    2  A    between atoms: S_1  and  C_25
REMARK    3  A    between atoms: O_2  and  C_13
REMARK    4  A    between atoms: O_6  and  C_28
REMARK    5  A    between atoms: N_8  and  C_15
REMARK    6  A    between atoms: C_11  and  C_16
REMARK    7  A    between atoms: C_15  and  C_17
REMARK    8  A    between atoms: C_18  and  C_21
REMARK    9  A    between atoms: C_24  and  C_28
REMARK   10  A    between atoms: C_31  and  C_32
REMARK                            x       y       z     vdW  Elec       q    Type
REMARK                         _______ _______ _______ _____ _____    ______ ____
ROOT
ATOM      8  N   UNL     1      -5.050   1.950  25.446  0.00  0.00    -0.285 NA
ATOM     11  C   UNL     1      -4.973   2.440  24.055  0.00  0.00    +0.149 C 
ATOM     12  C   UNL     1      -5.175   3.963  24.160  0.00  0.00    +0.061 C 
ATOM     13  C   UNL     1      -5.402   4.227  25.644  0.00  0.00    +0.130 C 
ATOM     14  C   UNL     1      -5.899   2.894  26.171  0.00  0.00    +0.116 C 
ENDROOT
BRANCH  11  16
ATOM      3  O   UNL     1      -3.489   2.537  22.115  0.00  0.00    -0.336 OA
ATOM      9  N   UNL     1      -2.677   1.346  23.828  0.00  0.00    -0.193 NA
ATOM     10  N   UNL     1      -2.235   2.068  21.704  0.00  0.00    -0.060 NA
ATOM     16  C   UNL     1      -3.671   2.068  23.377  0.00  0.00    +0.245 A 
ATOM     18  C   UNL     1      -1.820   1.375  22.767  0.00  0.00    +0.193 A 
BRANCH  18  21
ATOM     21  C   UNL     1      -0.524   0.687  22.790  0.00  0.00    +0.251 C 
BRANCH  21   1
ATOM      1  S   UNL     1       0.391   1.246  24.201  0.00  0.00    +0.004 S 
ATOM      4  O   UNL     1       1.752   1.501  23.767  0.00  0.00    -0.169 OA
ATOM      5  O   UNL     1       0.127   0.344  25.307  0.00  0.00    -0.169 OA
BRANCH   1  25
ATOM     25  C   UNL     1      -0.357   2.795  24.603  0.00  0.00    +0.089 A 
ATOM     26  C   UNL     1      -0.074   3.925  23.835  0.00  0.00    +0.027 A 
ATOM     27  C   UNL     1      -1.227   2.889  25.688  0.00  0.00    +0.027 A 
ATOM     29  C   UNL     1      -0.662   5.149  24.154  0.00  0.00    +0.005 A 
ATOM     30  C   UNL     1      -1.816   4.113  26.007  0.00  0.00    +0.005 A 
ATOM     31  C   UNL     1      -1.533   5.243  25.240  0.00  0.00    -0.050 A 
ATOM     32  C   UNL     1      -2.162   6.552  25.580  0.00  0.00    +0.044 C 
ENDBRANCH   1  25
ENDBRANCH  21   1
ENDBRANCH  18  21
ENDBRANCH  11  16
BRANCH  13   2
ATOM      2  O   UNL     1      -6.359   5.254  25.829  0.00  0.00    -0.390 OA
ATOM     33  H   UNL     1      -6.721   5.476  24.954  0.00  0.00    +0.210 HD
ENDBRANCH  13   2
BRANCH   8  15
ATOM     15  C   UNL     1      -5.541   0.582  25.548  0.00  0.00    +0.120 C 
BRANCH  15  17
ATOM     17  C   UNL     1      -4.475  -0.423  25.198  0.00  0.00    -0.033 A 
ATOM     19  C   UNL     1      -4.624  -1.234  24.073  0.00  0.00    +0.006 A 
ATOM     20  C   UNL     1      -3.339  -0.542  25.999  0.00  0.00    +0.006 A 
ATOM     22  C   UNL     1      -3.637  -2.165  23.750  0.00  0.00    +0.015 A 
ATOM     23  C   UNL     1      -2.352  -1.472  25.675  0.00  0.00    +0.015 A 
ATOM     24  C   UNL     1      -2.501  -2.283  24.550  0.00  0.00    +0.059 A 
BRANCH  24  28
ATOM      7  O   UNL     1      -1.479  -3.992  23.221  0.00  0.00    -0.245 OA
ATOM     28  C   UNL     1      -1.471  -3.253  24.212  0.00  0.00    +0.337 C 
BRANCH  28   6
ATOM      6  O   UNL     1      -0.457  -3.274  25.121  0.00  0.00    -0.477 OA
ATOM     34  H   UNL     1      -0.644  -2.694  25.889  0.00  0.00    +0.295 HD
ENDBRANCH  28   6
ENDBRANCH  24  28
ENDBRANCH  15  17
ENDBRANCH   8  15
TORSDOF 9
ENDMDL
MODEL 9
REMARK VINA RESULT:       1.8      2.446      4.052
REMARK  Name = 26744527
REMARK  10 active torsions:
REMARK  status: ('A' for Active; 'I' for Inactive)
REMARK    1  A    between atoms: S_1  and  C_21
REMARK    2  A    between atoms: S_1  and  C_25
REMARK    3  A    between atoms: O_2  and  C_13
REMARK    4  A    between atoms: O_6  and  C_28
REMARK    5  A    between atoms: N_8  and  C_15
REMARK    6  A    between atoms: C_11  and  C_16
REMARK    7  A    between atoms: C_15  and  C_17
REMARK    8  A    between atoms: C_18  and  C_21
REMARK    9  A    between atoms: C_24  and  C_28
REMARK   10  A    between atoms: C_31  and  C_32
REMARK                            x       y       z     vdW  Elec       q    Type
REMARK                         _______ _______ _______ _____ _____    ______ ____
ROOT
ATOM      8  N   UNL     1      -3.590   2.385  24.226  0.00  0.00    -0.285 NA
ATOM     11  C   UNL     1      -3.407   1.343  25.257  0.00  0.00    +0.149 C 
ATOM     12  C   UNL     1      -4.827   0.831  25.557  0.00  0.00    +0.061 C 
ATOM     13  C   UNL     1      -5.744   1.675  24.679  0.00  0.00    +0.130 C 
ATOM     14  C   UNL     1      -4.932   2.930  24.422  0.00  0.00    +0.116 C 
ENDROOT
BRANCH  11  16
ATOM      3  O   UNL     1      -2.996  -1.009  24.731  0.00  0.00    -0.336 OA
ATOM      9  N   UNL     1      -1.202   0.309  24.492  0.00  0.00    -0.193 NA
ATOM     10  N   UNL     1      -1.954  -1.843  24.308  0.00  0.00    -0.060 NA
ATOM     16  C   UNL     1      -2.469   0.241  24.812  0.00  0.00    +0.245 A 
ATOM     18  C   UNL     1      -0.930  -0.994  24.189  0.00  0.00    +0.193 A 
BRANCH  18  21
ATOM     21  C   UNL     1       0.402  -1.436  23.762  0.00  0.00    +0.251 C 
BRANCH  21   1
ATOM      1  S   UNL     1       1.059  -0.244  22.627  0.00  0.00    +0.004 S 
ATOM      4  O   UNL     1       0.497   1.048  22.975  0.00  0.00    -0.169 OA
ATOM      5  O   UNL     1       0.923  -0.768  21.280  0.00  0.00    -0.169 OA
BRANCH   1  25
ATOM     25  C   UNL     1       2.785  -0.212  23.000  0.00  0.00    +0.089 A 
ATOM     26  C   UNL     1       3.535   0.932  22.727  0.00  0.00    +0.027 A 
ATOM     27  C   UNL     1       3.397  -1.329  23.566  0.00  0.00    +0.027 A 
ATOM     29  C   UNL     1       4.898   0.958  23.020  0.00  0.00    +0.005 A 
ATOM     30  C   UNL     1       4.762  -1.304  23.859  0.00  0.00    +0.005 A 
ATOM     31  C   UNL     1       5.512  -0.161  23.586  0.00  0.00    -0.050 A 
ATOM     32  C   UNL     1       6.970  -0.133  23.899  0.00  0.00    +0.044 C 
ENDBRANCH   1  25
ENDBRANCH  21   1
ENDBRANCH  18  21
ENDBRANCH  11  16
BRANCH  13   2
ATOM      2  O   UNL     1      -6.955   1.963  25.351  0.00  0.00    -0.390 OA
ATOM     33  H   UNL     1      -7.098   1.260  26.009  0.00  0.00    +0.210 HD
ENDBRANCH  13   2
BRANCH   8  15
ATOM     15  C   UNL     1      -2.566   3.420  24.267  0.00  0.00    +0.120 C 
BRANCH  15  17
ATOM     17  C   UNL     1      -1.593   3.202  25.395  0.00  0.00    -0.033 A 
ATOM     19  C   UNL     1      -0.261   2.892  25.118  0.00  0.00    +0.006 A 
ATOM     20  C   UNL     1      -2.023   3.310  26.718  0.00  0.00    +0.006 A 
ATOM     22  C   UNL     1       0.640   2.690  26.163  0.00  0.00    +0.015 A 
ATOM     23  C   UNL     1      -1.122   3.108  27.763  0.00  0.00    +0.015 A 
ATOM     24  C   UNL     1       0.209   2.798  27.486  0.00  0.00    +0.059 A 
BRANCH  24  28
ATOM      7  O   UNL     1       0.844   2.364  29.752  0.00  0.00    -0.245 OA
ATOM     28  C   UNL     1       1.149   2.588  28.576  0.00  0.00    +0.337 C 
BRANCH  28   6
ATOM      6  O   UNL     1       2.446   2.664  28.168  0.00  0.00    -0.477 OA
ATOM     34  H   UNL     1       3.067   2.389  28.874  0.00  0.00    +0.295 HD
ENDBRANCH  28   6
ENDBRANCH  24  28
ENDBRANCH  15  17
ENDBRANCH   8  15
TORSDOF 9
ENDMDL
MODEL 10
REMARK VINA RESULT:       1.9      2.531      6.834
REMARK  Name = 26744527
REMARK  10 active torsions:
REMARK  status: ('A' for Active; 'I' for Inactive)
REMARK    1  A    between atoms: S_1  and  C_21
REMARK    2  A    between atoms: S_1  and  C_25
REMARK    3  A    between atoms: O_2  and  C_13
REMARK    4  A    between atoms: O_6  and  C_28
REMARK    5  A    between atoms: N_8  and  C_15
REMARK    6  A    between atoms: C_11  and  C_16
REMARK    7  A    between atoms: C_15  and  C_17
REMARK    8  A    between atoms: C_18  and  C_21
REMARK    9  A    between atoms: C_24  and  C_28
REMARK   10  A    between atoms: C_31  and  C_32
REMARK                            x       y       z     vdW  Elec       q    Type
REMARK                         _______ _______ _______ _____ _____    ______ ____
ROOT
ATOM      8  N   UNL     1      -1.530  -0.154  24.341  0.00  0.00    -0.285 NA
ATOM     11  C   UNL     1      -2.762  -0.843  23.904  0.00  0.00    +0.149 C 
ATOM     12  C   UNL     1      -2.738  -2.197  24.637  0.00  0.00    +0.061 C 
ATOM     13  C   UNL     1      -1.433  -2.194  25.425  0.00  0.00    +0.130 C 
ATOM     14  C   UNL     1      -0.567  -1.201  24.674  0.00  0.00    +0.116 C 
ENDROOT
BRANCH  11  16
ATOM      3  O   UNL     1      -5.066  -0.727  24.713  0.00  0.00    -0.336 OA
ATOM      9  N   UNL     1      -4.241   1.236  24.020  0.00  0.00    -0.193 NA
ATOM     10  N   UNL     1      -6.089   0.211  24.894  0.00  0.00    -0.060 NA
ATOM     16  C   UNL     1      -4.013  -0.041  24.197  0.00  0.00    +0.245 A 
ATOM     18  C   UNL     1      -5.526   1.344  24.463  0.00  0.00    +0.193 A 
BRANCH  18  21
ATOM     21  C   UNL     1      -6.248   2.621  24.464  0.00  0.00    +0.251 C 
BRANCH  21   1
ATOM      1  S   UNL     1      -5.706   3.579  25.852  0.00  0.00    +0.004 S 
ATOM      4  O   UNL     1      -5.779   2.728  27.026  0.00  0.00    -0.169 OA
ATOM      5  O   UNL     1      -6.391   4.857  25.825  0.00  0.00    -0.169 OA
BRANCH   1  25
ATOM     25  C   UNL     1      -4.003   3.894  25.509  0.00  0.00    +0.089 A 
ATOM     26  C   UNL     1      -3.018   3.425  26.379  0.00  0.00    +0.027 A 
ATOM     27  C   UNL     1      -3.642   4.613  24.369  0.00  0.00    +0.027 A 
ATOM     29  C   UNL     1      -1.673   3.676  26.109  0.00  0.00    +0.005 A 
ATOM     30  C   UNL     1      -2.296   4.864  24.099  0.00  0.00    +0.005 A 
ATOM     31  C   UNL     1      -1.311   4.396  24.969  0.00  0.00    -0.050 A 
ATOM     32  C   UNL     1       0.127   4.663  24.682  0.00  0.00    +0.044 C 
ENDBRANCH   1  25
ENDBRANCH  21   1
ENDBRANCH  18  21
ENDBRANCH  11  16
BRANCH  13   2
ATOM      2  O   UNL     1      -0.856  -3.486  25.442  0.00  0.00    -0.390 OA
ATOM     33  H   UNL     1      -1.582  -4.129  25.525  0.00  0.00    +0.210 HD
ENDBRANCH  13   2
BRANCH   8  15
ATOM     15  C   UNL     1      -1.009   0.775  23.346  0.00  0.00    +0.120 C 
BRANCH  15  17
ATOM     17  C   UNL     1       0.491   0.691  23.233  0.00  0.00    -0.033 A 
ATOM     19  C   UNL     1       1.294   1.597  23.924  0.00  0.00    +0.006 A 
ATOM     20  C   UNL     1       1.076  -0.294  22.436  0.00  0.00    +0.006 A 
ATOM     22  C   UNL     1       2.683   1.519  23.819  0.00  0.00    +0.015 A 
ATOM     23  C   UNL     1       2.464  -0.372  22.331  0.00  0.00    +0.015 A 
ATOM     24  C   UNL     1       3.268   0.534  23.023  0.00  0.00    +0.059 A 
BRANCH  24  28
ATOM      7  O   UNL     1       5.339   0.078  21.915  0.00  0.00    -0.245 OA
ATOM     28  C   UNL     1       4.716   0.452  22.914  0.00  0.00    +0.337 C 
BRANCH  28   6
ATOM      6  O   UNL     1       5.347   0.839  24.057  0.00  0.00    -0.477 OA
ATOM     34  H   UNL     1       5.741   0.078  24.531  0.00  0.00    +0.295 HD
ENDBRANCH  28   6
ENDBRANCH  24  28
ENDBRANCH  15  17
ENDBRANCH   8  15
TORSDOF 9
ENDMDL
