MODEL 1
REMARK VINA RESULT:       7.8      0.000      0.000
REMARK  Name = 11886090
REMARK  8 active torsions:
REMARK  status: ('A' for Active; 'I' for Inactive)
REMARK    1  A    between atoms: O_3  and  C_16
REMARK    2  A    between atoms: O_3  and  C_21
REMARK    3  A    between atoms: N_6  and  C_15
REMARK    4  A    between atoms: N_10  and  C_32
REMARK    5  A    between atoms: N_11  and  C_25
REMARK    6  A    between atoms: C_19  and  C_20
REMARK    7  A    between atoms: C_24  and  C_25
REMARK    8  A    between atoms: C_35  and  C_38
REMARK                            x       y       z     vdW  Elec       q    Type
REMARK                         _______ _______ _______ _____ _____    ______ ____
ROOT
ATOM      1  O   UNL     1      -1.465   5.829  24.222  0.00  0.00    -0.368 OA
ATOM      2  O   UNL     1      -1.863   3.058  26.304  0.00  0.00    -0.368 OA
ATOM     13  C   UNL     1      -2.276   4.381  25.948  0.00  0.00    +0.177 C 
ATOM     14  C   UNL     1      -1.068   5.107  25.385  0.00  0.00    +0.192 C 
ATOM     15  C   UNL     1      -3.258   4.382  24.786  0.00  0.00    +0.168 C 
ATOM     16  C   UNL     1      -0.079   3.998  25.092  0.00  0.00    +0.235 C 
ATOM     17  C   UNL     1      -2.880   5.660  24.045  0.00  0.00    +0.190 C 
ATOM     18  C   UNL     1      -0.432   2.986  26.162  0.00  0.00    +0.207 C 
ENDROOT
BRANCH  15   6
ATOM      6  N   UNL     1      -4.661   4.281  25.163  0.00  0.00    -0.217 N 
ATOM      7  N   UNL     1      -5.371   5.376  25.462  0.00  0.00    -0.043 NA
ATOM      8  N   UNL     1      -6.648   3.559  25.643  0.00  0.00    -0.108 NA
ATOM      9  N   UNL     1      -6.586   4.929  25.754  0.00  0.00    -0.023 NA
ATOM     19  C   UNL     1      -5.446   3.178  25.275  0.00  0.00    +0.182 A 
BRANCH  19  20
ATOM     20  C   UNL     1      -5.002   1.831  25.026  0.00  0.00    +0.021 A 
ATOM     22  C   UNL     1      -4.306   1.532  23.854  0.00  0.00    +0.012 A 
ATOM     23  C   UNL     1      -5.269   0.825  25.954  0.00  0.00    +0.012 A 
ATOM     24  C   UNL     1      -4.143  -0.779  24.540  0.00  0.00    -0.033 A 
ATOM     26  C   UNL     1      -3.876   0.227  23.611  0.00  0.00    +0.005 A 
ATOM     27  C   UNL     1      -4.840  -0.480  25.711  0.00  0.00    +0.005 A 
BRANCH  24  25
ATOM     25  C   UNL     1      -3.684  -2.174  24.281  0.00  0.00    +0.119 C 
BRANCH  25  11
ATOM      5  O   UNL     1       0.324  -2.045  25.519  0.00  0.00    -0.377 OA
ATOM     11  N   UNL     1      -2.434  -2.485  24.971  0.00  0.00    -0.294 NA
ATOM     28  C   UNL     1      -1.983  -1.342  25.777  0.00  0.00    +0.113 C 
ATOM     29  C   UNL     1      -1.388  -2.866  24.011  0.00  0.00    +0.113 C 
ATOM     30  C   UNL     1      -0.672  -1.686  26.477  0.00  0.00    +0.175 C 
ATOM     31  C   UNL     1      -0.092  -3.176  24.752  0.00  0.00    +0.175 C 
ENDBRANCH  25  11
ENDBRANCH  24  25
ENDBRANCH  19  20
ENDBRANCH  15   6
BRANCH  16   3
ATOM      3  O   UNL     1      -0.323   3.425  23.811  0.00  0.00    -0.442 OA
BRANCH   3  21
ATOM      4  O   UNL     1      -0.708   1.184  23.568  0.00  0.00    -0.226 OA
ATOM     10  N   UNL     1       1.457   2.073  23.517  0.00  0.00    -0.251 N 
ATOM     21  C   UNL     1       0.081   2.120  23.624  0.00  0.00    +0.405 C 
ATOM     39  H   UNL     1       1.944   2.963  23.587  0.00  0.00    +0.158 HD
BRANCH  10  32
ATOM     32  C   UNL     1       2.277   0.938  23.320  0.00  0.00    +0.038 A 
ATOM     33  C   UNL     1       3.662   1.048  23.439  0.00  0.00    +0.042 A 
ATOM     34  C   UNL     1       1.699  -0.292  23.005  0.00  0.00    +0.023 A 
ATOM     35  C   UNL     1       4.470  -0.072  23.244  0.00  0.00    +0.054 A 
ATOM     36  C   UNL     1       2.507  -1.412  22.811  0.00  0.00    +0.003 A 
ATOM     37  C   UNL     1       3.892  -1.302  22.929  0.00  0.00    +0.019 A 
BRANCH  35  38
ATOM     12  N   UNL     1       7.043   0.131  23.464  0.00  0.00    -0.191 NA
ATOM     38  C   UNL     1       5.889   0.041  23.366  0.00  0.00    +0.099 C 
ENDBRANCH  35  38
ENDBRANCH  10  32
ENDBRANCH   3  21
ENDBRANCH  16   3
TORSDOF 8
ENDMDL
MODEL 2
REMARK VINA RESULT:       8.5      2.483      5.614
REMARK  Name = 11886090
REMARK  8 active torsions:
REMARK  status: ('A' for Active; 'I' for Inactive)
REMARK    1  A    between atoms: O_3  and  C_16
REMARK    2  A    between atoms: O_3  and  C_21
REMARK    3  A    between atoms: N_6  and  C_15
REMARK    4  A    between atoms: N_10  and  C_32
REMARK    5  A    between atoms: N_11  and  C_25
REMARK    6  A    between atoms: C_19  and  C_20
REMARK    7  A    between atoms: C_24  and  C_25
REMARK    8  A    between atoms: C_35  and  C_38
REMARK                            x       y       z     vdW  Elec       q    Type
REMARK                         _______ _______ _______ _____ _____    ______ ____
ROOT
ATOM      1  O   UNL     1      -4.081   1.862  26.329  0.00  0.00    -0.368 OA
ATOM      2  O   UNL     1      -5.337   4.918  25.210  0.00  0.00    -0.368 OA
ATOM     13  C   UNL     1      -4.362   4.215  25.986  0.00  0.00    +0.177 C 
ATOM     14  C   UNL     1      -5.005   2.935  26.487  0.00  0.00    +0.192 C 
ATOM     15  C   UNL     1      -3.204   3.714  25.136  0.00  0.00    +0.168 C 
ATOM     16  C   UNL     1      -6.245   2.789  25.628  0.00  0.00    +0.235 C 
ATOM     17  C   UNL     1      -2.851   2.395  25.814  0.00  0.00    +0.190 C 
ATOM     18  C   UNL     1      -6.596   4.236  25.355  0.00  0.00    +0.207 C 
ENDROOT
BRANCH  15   6
ATOM      6  N   UNL     1      -2.095   4.648  24.991  0.00  0.00    -0.217 N 
ATOM      7  N   UNL     1      -2.242   5.941  25.309  0.00  0.00    -0.043 NA
ATOM      8  N   UNL     1      -0.169   5.557  24.586  0.00  0.00    -0.108 NA
ATOM      9  N   UNL     1      -1.061   6.492  25.061  0.00  0.00    -0.023 NA
ATOM     19  C   UNL     1      -0.830   4.423  24.551  0.00  0.00    +0.182 A 
BRANCH  19  20
ATOM     20  C   UNL     1      -0.329   3.141  24.126  0.00  0.00    +0.021 A 
ATOM     22  C   UNL     1      -0.964   2.453  23.091  0.00  0.00    +0.012 A 
ATOM     23  C   UNL     1       0.789   2.587  24.748  0.00  0.00    +0.012 A 
ATOM     24  C   UNL     1       0.639   0.658  23.301  0.00  0.00    -0.033 A 
ATOM     26  C   UNL     1      -0.480   1.212  22.678  0.00  0.00    +0.005 A 
ATOM     27  C   UNL     1       1.273   1.346  24.336  0.00  0.00    +0.005 A 
BRANCH  24  25
ATOM     25  C   UNL     1       1.157  -0.669  22.860  0.00  0.00    +0.119 C 
BRANCH  25  11
ATOM      5  O   UNL     1       5.234  -0.054  23.644  0.00  0.00    -0.377 OA
ATOM     11  N   UNL     1       2.613  -0.683  22.731  0.00  0.00    -0.294 NA
ATOM     28  C   UNL     1       3.230  -1.404  23.852  0.00  0.00    +0.113 C 
ATOM     29  C   UNL     1       3.144   0.686  22.660  0.00  0.00    +0.113 C 
ATOM     30  C   UNL     1       4.748  -1.396  23.703  0.00  0.00    +0.175 C 
ATOM     31  C   UNL     1       4.664   0.645  22.537  0.00  0.00    +0.175 C 
ENDBRANCH  25  11
ENDBRANCH  24  25
ENDBRANCH  19  20
ENDBRANCH  15   6
BRANCH  16   3
ATOM      3  O   UNL     1      -5.936   2.143  24.397  0.00  0.00    -0.442 OA
BRANCH   3  21
ATOM      4  O   UNL     1      -6.668  -0.014  24.590  0.00  0.00    -0.226 OA
ATOM     10  N   UNL     1      -4.403   0.493  24.286  0.00  0.00    -0.251 N 
ATOM     21  C   UNL     1      -5.746   0.778  24.439  0.00  0.00    +0.405 C 
ATOM     39  H   UNL     1      -3.784   1.292  24.170  0.00  0.00    +0.158 HD
BRANCH  10  32
ATOM     32  C   UNL     1      -3.779  -0.776  24.269  0.00  0.00    +0.038 A 
ATOM     33  C   UNL     1      -2.492  -0.927  24.787  0.00  0.00    +0.042 A 
ATOM     34  C   UNL     1      -4.450  -1.875  23.735  0.00  0.00    +0.023 A 
ATOM     35  C   UNL     1      -1.877  -2.179  24.770  0.00  0.00    +0.054 A 
ATOM     36  C   UNL     1      -3.834  -3.127  23.718  0.00  0.00    +0.003 A 
ATOM     37  C   UNL     1      -2.548  -3.278  24.235  0.00  0.00    +0.019 A 
BRANCH  35  38
ATOM     12  N   UNL     1       0.512  -2.461  25.730  0.00  0.00    -0.191 NA
ATOM     38  C   UNL     1      -0.559  -2.334  25.300  0.00  0.00    +0.099 C 
ENDBRANCH  35  38
ENDBRANCH  10  32
ENDBRANCH   3  21
ENDBRANCH  16   3
TORSDOF 8
ENDMDL
MODEL 3
REMARK VINA RESULT:       8.9      2.568      5.974
REMARK  Name = 11886090
REMARK  8 active torsions:
REMARK  status: ('A' for Active; 'I' for Inactive)
REMARK    1  A    between atoms: O_3  and  C_16
REMARK    2  A    between atoms: O_3  and  C_21
REMARK    3  A    between atoms: N_6  and  C_15
REMARK    4  A    between atoms: N_10  and  C_32
REMARK    5  A    between atoms: N_11  and  C_25
REMARK    6  A    between atoms: C_19  and  C_20
REMARK    7  A    between atoms: C_24  and  C_25
REMARK    8  A    between atoms: C_35  and  C_38
REMARK                            x       y       z     vdW  Elec       q    Type
REMARK                         _______ _______ _______ _____ _____    ______ ____
ROOT
ATOM      1  O   UNL     1      -3.649   2.799  22.755  0.00  0.00    -0.368 OA
ATOM      2  O   UNL     1      -4.593   1.817  25.966  0.00  0.00    -0.368 OA
ATOM     13  C   UNL     1      -4.494   1.494  24.575  0.00  0.00    +0.177 C 
ATOM     14  C   UNL     1      -4.628   2.786  23.791  0.00  0.00    +0.192 C 
ATOM     15  C   UNL     1      -3.106   0.998  24.199  0.00  0.00    +0.168 C 
ATOM     16  C   UNL     1      -4.415   3.868  24.829  0.00  0.00    +0.235 C 
ATOM     17  C   UNL     1      -2.934   1.553  22.790  0.00  0.00    +0.190 C 
ATOM     18  C   UNL     1      -4.961   3.204  26.075  0.00  0.00    +0.207 C 
ENDROOT
BRANCH  15   6
ATOM      6  N   UNL     1      -2.908  -0.439  24.323  0.00  0.00    -0.217 N 
ATOM      7  N   UNL     1      -3.912  -1.238  24.710  0.00  0.00    -0.043 NA
ATOM      8  N   UNL     1      -2.073  -2.440  24.336  0.00  0.00    -0.108 NA
ATOM      9  N   UNL     1      -3.396  -2.460  24.715  0.00  0.00    -0.023 NA
ATOM     19  C   UNL     1      -1.792  -1.179  24.097  0.00  0.00    +0.182 A 
BRANCH  19  20
ATOM     20  C   UNL     1      -0.527  -0.639  23.668  0.00  0.00    +0.021 A 
ATOM     22  C   UNL     1       0.107  -1.163  22.541  0.00  0.00    +0.012 A 
ATOM     23  C   UNL     1       0.063   0.405  24.378  0.00  0.00    +0.012 A 
ATOM     24  C   UNL     1       1.922   0.404  22.835  0.00  0.00    -0.033 A 
ATOM     26  C   UNL     1       1.332  -0.641  22.124  0.00  0.00    +0.005 A 
ATOM     27  C   UNL     1       1.288   0.926  23.962  0.00  0.00    +0.005 A 
BRANCH  24  25
ATOM     25  C   UNL     1       3.232   0.962  22.391  0.00  0.00    +0.119 C 
BRANCH  25  11
ATOM      5  O   UNL     1       6.027  -1.114  24.734  0.00  0.00    -0.377 OA
ATOM     11  N   UNL     1       4.359   0.120  22.785  0.00  0.00    -0.294 NA
ATOM     28  C   UNL     1       3.898  -1.032  23.573  0.00  0.00    +0.113 C 
ATOM     29  C   UNL     1       5.344   0.893  23.555  0.00  0.00    +0.113 C 
ATOM     30  C   UNL     1       5.092  -1.890  23.984  0.00  0.00    +0.175 C 
ATOM     31  C   UNL     1       6.504  -0.010  23.965  0.00  0.00    +0.175 C 
ENDBRANCH  25  11
ENDBRANCH  24  25
ENDBRANCH  19  20
ENDBRANCH  15   6
BRANCH  16   3
ATOM      3  O   UNL     1      -3.027   4.131  25.011  0.00  0.00    -0.442 OA
BRANCH   3  21
ATOM      4  O   UNL     1      -3.141   4.662  27.233  0.00  0.00    -0.226 OA
ATOM     10  N   UNL     1      -1.368   3.408  26.357  0.00  0.00    -0.251 N 
ATOM     21  C   UNL     1      -2.554   4.115  26.307  0.00  0.00    +0.405 C 
ATOM     39  H   UNL     1      -1.037   3.023  25.476  0.00  0.00    +0.158 HD
BRANCH  10  32
ATOM     32  C   UNL     1      -0.554   3.152  27.485  0.00  0.00    +0.038 A 
ATOM     33  C   UNL     1       0.815   2.938  27.324  0.00  0.00    +0.042 A 
ATOM     34  C   UNL     1      -1.122   3.114  28.758  0.00  0.00    +0.023 A 
ATOM     35  C   UNL     1       1.616   2.685  28.437  0.00  0.00    +0.054 A 
ATOM     36  C   UNL     1      -0.319   2.861  29.871  0.00  0.00    +0.003 A 
ATOM     37  C   UNL     1       1.049   2.646  29.710  0.00  0.00    +0.019 A 
BRANCH  35  38
ATOM     12  N   UNL     1       4.157   2.284  28.137  0.00  0.00    -0.191 NA
ATOM     38  C   UNL     1       3.018   2.464  28.272  0.00  0.00    +0.099 C 
ENDBRANCH  35  38
ENDBRANCH  10  32
ENDBRANCH   3  21
ENDBRANCH  16   3
TORSDOF 8
ENDMDL
MODEL 4
REMARK VINA RESULT:       9.1      2.281      5.338
REMARK  Name = 11886090
REMARK  8 active torsions:
REMARK  status: ('A' for Active; 'I' for Inactive)
REMARK    1  A    between atoms: O_3  and  C_16
REMARK    2  A    between atoms: O_3  and  C_21
REMARK    3  A    between atoms: N_6  and  C_15
REMARK    4  A    between atoms: N_10  and  C_32
REMARK    5  A    between atoms: N_11  and  C_25
REMARK    6  A    between atoms: C_19  and  C_20
REMARK    7  A    between atoms: C_24  and  C_25
REMARK    8  A    between atoms: C_35  and  C_38
REMARK                            x       y       z     vdW  Elec       q    Type
REMARK                         _______ _______ _______ _____ _____    ______ ____
ROOT
ATOM      1  O   UNL     1      -5.718   3.960  26.354  0.00  0.00    -0.368 OA
ATOM      2  O   UNL     1      -4.000   2.751  23.568  0.00  0.00    -0.368 OA
ATOM     13  C   UNL     1      -4.419   3.878  24.344  0.00  0.00    +0.177 C 
ATOM     14  C   UNL     1      -5.742   3.523  24.997  0.00  0.00    +0.192 C 
ATOM     15  C   UNL     1      -3.501   4.132  25.529  0.00  0.00    +0.168 C 
ATOM     16  C   UNL     1      -5.829   2.018  24.854  0.00  0.00    +0.235 C 
ATOM     17  C   UNL     1      -4.472   4.636  26.590  0.00  0.00    +0.190 C 
ATOM     18  C   UNL     1      -5.075   1.792  23.560  0.00  0.00    +0.207 C 
ENDROOT
BRANCH  15   6
ATOM      6  N   UNL     1      -2.373   5.014  25.259  0.00  0.00    -0.217 N 
ATOM      7  N   UNL     1      -2.466   6.332  25.478  0.00  0.00    -0.043 NA
ATOM      8  N   UNL     1      -0.442   5.823  24.695  0.00  0.00    -0.108 NA
ATOM      9  N   UNL     1      -1.281   6.822  25.133  0.00  0.00    -0.023 NA
ATOM     19  C   UNL     1      -1.138   4.712  24.782  0.00  0.00    +0.182 A 
BRANCH  19  20
ATOM     20  C   UNL     1      -0.696   3.384  24.439  0.00  0.00    +0.021 A 
ATOM     22  C   UNL     1       0.138   2.680  25.308  0.00  0.00    +0.012 A 
ATOM     23  C   UNL     1      -1.102   2.803  23.238  0.00  0.00    +0.012 A 
ATOM     24  C   UNL     1       0.159   0.813  23.775  0.00  0.00    -0.033 A 
ATOM     26  C   UNL     1       0.565   1.395  24.976  0.00  0.00    +0.005 A 
ATOM     27  C   UNL     1      -0.673   1.518  22.906  0.00  0.00    +0.005 A 
BRANCH  24  25
ATOM     25  C   UNL     1       0.617  -0.561  23.420  0.00  0.00    +0.119 C 
BRANCH  25  11
ATOM      5  O   UNL     1       4.768   0.039  23.271  0.00  0.00    -0.377 OA
ATOM     11  N   UNL     1       2.007  -0.586  22.971  0.00  0.00    -0.294 NA
ATOM     28  C   UNL     1       2.855  -1.296  23.939  0.00  0.00    +0.113 C 
ATOM     29  C   UNL     1       2.514   0.778  22.764  0.00  0.00    +0.113 C 
ATOM     30  C   UNL     1       4.303  -1.299  23.456  0.00  0.00    +0.175 C 
ATOM     31  C   UNL     1       3.969   0.726  22.307  0.00  0.00    +0.175 C 
ENDBRANCH  25  11
ENDBRANCH  24  25
ENDBRANCH  19  20
ENDBRANCH  15   6
BRANCH  16   3
ATOM      3  O   UNL     1      -5.138   1.367  25.916  0.00  0.00    -0.442 OA
BRANCH   3  21
ATOM      4  O   UNL     1      -2.886   1.054  25.667  0.00  0.00    -0.226 OA
ATOM     10  N   UNL     1      -4.427  -0.626  25.135  0.00  0.00    -0.251 N 
ATOM     21  C   UNL     1      -4.028   0.622  25.574  0.00  0.00    +0.405 C 
ATOM     39  H   UNL     1      -5.429  -0.802  25.130  0.00  0.00    +0.158 HD
BRANCH  10  32
ATOM     32  C   UNL     1      -3.614  -1.694  24.691  0.00  0.00    +0.038 A 
ATOM     33  C   UNL     1      -2.314  -1.830  25.177  0.00  0.00    +0.042 A 
ATOM     34  C   UNL     1      -4.113  -2.611  23.765  0.00  0.00    +0.023 A 
ATOM     35  C   UNL     1      -1.512  -2.883  24.738  0.00  0.00    +0.054 A 
ATOM     36  C   UNL     1      -3.310  -3.664  23.327  0.00  0.00    +0.003 A 
ATOM     37  C   UNL     1      -2.010  -3.800  23.813  0.00  0.00    +0.019 A 
BRANCH  35  38
ATOM     12  N   UNL     1       0.903  -3.134  25.639  0.00  0.00    -0.191 NA
ATOM     38  C   UNL     1      -0.180  -3.022  25.236  0.00  0.00    +0.099 C 
ENDBRANCH  35  38
ENDBRANCH  10  32
ENDBRANCH   3  21
ENDBRANCH  16   3
TORSDOF 8
ENDMDL
MODEL 5
REMARK VINA RESULT:      11.2      2.565      5.624
REMARK  Name = 11886090
REMARK  8 active torsions:
REMARK  status: ('A' for Active; 'I' for Inactive)
REMARK    1  A    between atoms: O_3  and  C_16
REMARK    2  A    between atoms: O_3  and  C_21
REMARK    3  A    between atoms: N_6  and  C_15
REMARK    4  A    between atoms: N_10  and  C_32
REMARK    5  A    between atoms: N_11  and  C_25
REMARK    6  A    between atoms: C_19  and  C_20
REMARK    7  A    between atoms: C_24  and  C_25
REMARK    8  A    between atoms: C_35  and  C_38
REMARK                            x       y       z     vdW  Elec       q    Type
REMARK                         _______ _______ _______ _____ _____    ______ ____
ROOT
ATOM      1  O   UNL     1      -4.748   3.050  23.449  0.00  0.00    -0.368 OA
ATOM      2  O   UNL     1      -3.642   2.962  26.757  0.00  0.00    -0.368 OA
ATOM     13  C   UNL     1      -4.444   2.376  25.727  0.00  0.00    +0.177 C 
ATOM     14  C   UNL     1      -4.889   3.491  24.798  0.00  0.00    +0.192 C 
ATOM     15  C   UNL     1      -3.635   1.464  24.817  0.00  0.00    +0.168 C 
ATOM     16  C   UNL     1      -3.973   4.646  25.148  0.00  0.00    +0.235 C 
ATOM     17  C   UNL     1      -4.298   1.685  23.463  0.00  0.00    +0.190 C 
ATOM     18  C   UNL     1      -3.716   4.393  26.619  0.00  0.00    +0.207 C 
ENDROOT
BRANCH  15   6
ATOM      6  N   UNL     1      -3.558   0.074  25.246  0.00  0.00    -0.217 N 
ATOM      7  N   UNL     1      -4.572  -0.494  25.911  0.00  0.00    -0.043 NA
ATOM      8  N   UNL     1      -2.919  -1.962  25.628  0.00  0.00    -0.108 NA
ATOM      9  N   UNL     1      -4.176  -1.740  26.142  0.00  0.00    -0.023 NA
ATOM     19  C   UNL     1      -2.555  -0.826  25.078  0.00  0.00    +0.182 A 
BRANCH  19  20
ATOM     20  C   UNL     1      -1.313  -0.548  24.403  0.00  0.00    +0.021 A 
ATOM     22  C   UNL     1      -1.125   0.679  23.766  0.00  0.00    +0.012 A 
ATOM     23  C   UNL     1      -0.300  -1.506  24.386  0.00  0.00    +0.012 A 
ATOM     24  C   UNL     1       1.092  -0.010  23.096  0.00  0.00    -0.033 A 
ATOM     26  C   UNL     1       0.078   0.948  23.113  0.00  0.00    +0.005 A 
ATOM     27  C   UNL     1       0.902  -1.237  23.732  0.00  0.00    +0.005 A 
BRANCH  24  25
ATOM     25  C   UNL     1       2.378   0.277  22.397  0.00  0.00    +0.119 C 
BRANCH  25  11
ATOM      5  O   UNL     1       6.272  -0.520  23.743  0.00  0.00    -0.377 OA
ATOM     11  N   UNL     1       3.536   0.107  23.271  0.00  0.00    -0.294 NA
ATOM     28  C   UNL     1       4.613   1.034  22.897  0.00  0.00    +0.113 C 
ATOM     29  C   UNL     1       4.027  -1.278  23.226  0.00  0.00    +0.113 C 
ATOM     30  C   UNL     1       5.815   0.831  23.814  0.00  0.00    +0.175 C 
ATOM     31  C   UNL     1       5.242  -1.427  24.137  0.00  0.00    +0.175 C 
ENDBRANCH  25  11
ENDBRANCH  24  25
ENDBRANCH  19  20
ENDBRANCH  15   6
BRANCH  16   3
ATOM      3  O   UNL     1      -2.743   4.553  24.437  0.00  0.00    -0.442 OA
BRANCH   3  21
ATOM      4  O   UNL     1      -0.932   5.676  25.267  0.00  0.00    -0.226 OA
ATOM     10  N   UNL     1      -1.319   3.422  25.770  0.00  0.00    -0.251 N 
ATOM     21  C   UNL     1      -1.585   4.643  25.180  0.00  0.00    +0.405 C 
ATOM     39  H   UNL     1      -1.983   2.676  25.579  0.00  0.00    +0.158 HD
BRANCH  10  32
ATOM     32  C   UNL     1      -0.234   3.079  26.610  0.00  0.00    +0.038 A 
ATOM     33  C   UNL     1      -0.398   3.072  27.995  0.00  0.00    +0.042 A 
ATOM     34  C   UNL     1       1.001   2.748  26.051  0.00  0.00    +0.023 A 
ATOM     35  C   UNL     1       0.673   2.734  28.822  0.00  0.00    +0.054 A 
ATOM     36  C   UNL     1       2.071   2.409  26.880  0.00  0.00    +0.003 A 
ATOM     37  C   UNL     1       1.907   2.404  28.264  0.00  0.00    +0.019 A 
BRANCH  35  38
ATOM     12  N   UNL     1       0.368   2.722  31.394  0.00  0.00    -0.191 NA
ATOM     38  C   UNL     1       0.505   2.728  30.241  0.00  0.00    +0.099 C 
ENDBRANCH  35  38
ENDBRANCH  10  32
ENDBRANCH   3  21
ENDBRANCH  16   3
TORSDOF 8
ENDMDL
MODEL 6
REMARK VINA RESULT:      11.4      2.454      5.553
REMARK  Name = 11886090
REMARK  8 active torsions:
REMARK  status: ('A' for Active; 'I' for Inactive)
REMARK    1  A    between atoms: O_3  and  C_16
REMARK    2  A    between atoms: O_3  and  C_21
REMARK    3  A    between atoms: N_6  and  C_15
REMARK    4  A    between atoms: N_10  and  C_32
REMARK    5  A    between atoms: N_11  and  C_25
REMARK    6  A    between atoms: C_19  and  C_20
REMARK    7  A    between atoms: C_24  and  C_25
REMARK    8  A    between atoms: C_35  and  C_38
REMARK                            x       y       z     vdW  Elec       q    Type
REMARK                         _______ _______ _______ _____ _____    ______ ____
ROOT
ATOM      1  O   UNL     1      -4.277   4.760  24.737  0.00  0.00    -0.368 OA
ATOM      2  O   UNL     1      -2.220   2.049  23.969  0.00  0.00    -0.368 OA
ATOM     13  C   UNL     1      -2.351   3.351  24.550  0.00  0.00    +0.177 C 
ATOM     14  C   UNL     1      -3.446   4.084  23.797  0.00  0.00    +0.192 C 
ATOM     15  C   UNL     1      -2.883   3.293  25.974  0.00  0.00    +0.168 C 
ATOM     16  C   UNL     1      -4.166   2.988  23.040  0.00  0.00    +0.235 C 
ATOM     17  C   UNL     1      -3.737   4.554  26.052  0.00  0.00    +0.190 C 
ATOM     18  C   UNL     1      -3.043   2.004  22.789  0.00  0.00    +0.207 C 
ENDROOT
BRANCH  15   6
ATOM      6  N   UNL     1      -1.866   3.173  27.009  0.00  0.00    -0.217 N 
ATOM      7  N   UNL     1      -2.077   3.665  28.237  0.00  0.00    -0.043 NA
ATOM      8  N   UNL     1      -0.059   2.725  28.121  0.00  0.00    -0.108 NA
ATOM      9  N   UNL     1      -0.969   3.387  28.913  0.00  0.00    -0.023 NA
ATOM     19  C   UNL     1      -0.635   2.602  26.947  0.00  0.00    +0.182 A 
BRANCH  19  20
ATOM     20  C   UNL     1      -0.084   1.976  25.773  0.00  0.00    +0.021 A 
ATOM     22  C   UNL     1       0.694   2.720  24.885  0.00  0.00    +0.012 A 
ATOM     23  C   UNL     1      -0.328   0.626  25.523  0.00  0.00    +0.012 A 
ATOM     24  C   UNL     1       0.984   0.763  23.499  0.00  0.00    -0.033 A 
ATOM     26  C   UNL     1       1.228   2.114  23.748  0.00  0.00    +0.005 A 
ATOM     27  C   UNL     1       0.206   0.020  24.386  0.00  0.00    +0.005 A 
BRANCH  24  25
ATOM     25  C   UNL     1       1.554   0.115  22.283  0.00  0.00    +0.119 C 
BRANCH  25  11
ATOM      5  O   UNL     1       5.334  -0.484  24.007  0.00  0.00    -0.377 OA
ATOM     11  N   UNL     1       2.952  -0.274  22.463  0.00  0.00    -0.294 NA
ATOM     28  C   UNL     1       3.084  -1.262  23.543  0.00  0.00    +0.113 C 
ATOM     29  C   UNL     1       3.787   0.901  22.752  0.00  0.00    +0.113 C 
ATOM     30  C   UNL     1       4.550  -1.643  23.722  0.00  0.00    +0.175 C 
ATOM     31  C   UNL     1       5.237   0.469  22.947  0.00  0.00    +0.175 C 
ENDBRANCH  25  11
ENDBRANCH  24  25
ENDBRANCH  19  20
ENDBRANCH  15   6
BRANCH  16   3
ATOM      3  O   UNL     1      -5.153   2.370  23.859  0.00  0.00    -0.442 OA
BRANCH   3  21
ATOM      4  O   UNL     1      -4.822   1.140  25.758  0.00  0.00    -0.226 OA
ATOM     10  N   UNL     1      -4.362   0.270  23.634  0.00  0.00    -0.251 N 
ATOM     21  C   UNL     1      -4.775   1.230  24.538  0.00  0.00    +0.405 C 
ATOM     39  H   UNL     1      -4.396   0.533  22.652  0.00  0.00    +0.158 HD
BRANCH  10  32
ATOM     32  C   UNL     1      -3.895  -1.037  23.905  0.00  0.00    +0.038 A 
ATOM     33  C   UNL     1      -2.615  -1.227  24.426  0.00  0.00    +0.042 A 
ATOM     34  C   UNL     1      -4.716  -2.136  23.651  0.00  0.00    +0.023 A 
ATOM     35  C   UNL     1      -2.156  -2.517  24.694  0.00  0.00    +0.054 A 
ATOM     36  C   UNL     1      -4.256  -3.425  23.919  0.00  0.00    +0.003 A 
ATOM     37  C   UNL     1      -2.976  -3.616  24.439  0.00  0.00    +0.019 A 
BRANCH  35  38
ATOM     12  N   UNL     1       0.221  -2.870  25.658  0.00  0.00    -0.191 NA
ATOM     38  C   UNL     1      -0.845  -2.712  25.226  0.00  0.00    +0.099 C 
ENDBRANCH  35  38
ENDBRANCH  10  32
ENDBRANCH   3  21
ENDBRANCH  16   3
TORSDOF 8
ENDMDL
