MODEL 1
REMARK VINA RESULT:       5.4      0.000      0.000
REMARK  Name = 26744892
REMARK  6 active torsions:
REMARK  status: ('A' for Active; 'I' for Inactive)
REMARK    1  A    between atoms: O_2  and  C_30
REMARK    2  A    between atoms: N_4  and  C_14
REMARK    3  A    between atoms: C_9  and  C_15
REMARK    4  A    between atoms: C_14  and  C_16
REMARK    5  A    between atoms: C_20  and  C_21
REMARK    6  A    between atoms: C_24  and  C_30
REMARK                            x       y       z     vdW  Elec       q    Type
REMARK                         _______ _______ _______ _____ _____    ______ ____
ROOT
ATOM      4  N   UNL     1       2.353   1.163  23.495  0.00  0.00    -0.281 NA
ATOM      5  N   UNL     1       5.995   0.280  23.353  0.00  0.00    -0.347 N 
ATOM      6  N   UNL     1       5.314  -1.766  23.941  0.00  0.00    -0.240 NA
ATOM      9  C   UNL     1       1.897  -0.236  23.185  0.00  0.00    +0.152 C 
ATOM     10  C   UNL     1       2.817  -1.325  23.841  0.00  0.00    +0.086 C 
ATOM     11  C   UNL     1       3.736   1.430  23.003  0.00  0.00    +0.140 C 
ATOM     12  C   UNL     1       4.634   0.309  23.350  0.00  0.00    +0.053 A 
ATOM     13  C   UNL     1       4.241  -0.954  23.706  0.00  0.00    +0.065 A 
ATOM     17  C   UNL     1       6.358  -0.994  23.716  0.00  0.00    +0.197 A 
ATOM     35  H   UNL     1       6.621   1.043  23.128  0.00  0.00    +0.167 HD
ENDROOT
BRANCH   9  15
ATOM      1  O   UNL     1       0.175  -1.811  23.939  0.00  0.00    -0.336 OA
ATOM      7  N   UNL     1      -0.561   0.290  23.689  0.00  0.00    -0.190 NA
ATOM      8  N   UNL     1      -1.184  -1.830  24.281  0.00  0.00    -0.056 NA
ATOM     15  C   UNL     1       0.460  -0.525  23.603  0.00  0.00    +0.245 A 
ATOM     20  C   UNL     1      -1.546  -0.555  24.109  0.00  0.00    +0.202 A 
BRANCH  20  21
ATOM     21  C   UNL     1      -2.884  -0.094  24.348  0.00  0.00    +0.023 A 
ATOM     25  C   UNL     1      -3.111   1.244  24.674  0.00  0.00    +0.020 A 
ATOM     26  C   UNL     1      -3.952  -0.981  24.253  0.00  0.00    +0.012 A 
ATOM     27  C   UNL     1      -4.415   1.711  24.911  0.00  0.00    -0.017 A 
ATOM     28  C   UNL     1      -5.501   0.809  24.815  0.00  0.00    -0.018 A 
ATOM     29  C   UNL     1      -5.254  -0.534  24.485  0.00  0.00    +0.009 A 
ATOM     31  C   UNL     1      -4.663   3.053  25.240  0.00  0.00    +0.008 A 
ATOM     32  C   UNL     1      -6.805   1.276  25.051  0.00  0.00    +0.008 A 
ATOM     33  C   UNL     1      -5.964   3.500  25.472  0.00  0.00    +0.001 A 
ATOM     34  C   UNL     1      -7.033   2.614  25.377  0.00  0.00    +0.001 A 
ENDBRANCH  20  21
ENDBRANCH   9  15
BRANCH   4  14
ATOM     14  C   UNL     1       1.460   2.181  22.923  0.00  0.00    +0.120 C 
BRANCH  14  16
ATOM     16  C   UNL     1       0.484   2.706  23.941  0.00  0.00    -0.033 A 
ATOM     18  C   UNL     1      -0.449   3.677  23.576  0.00  0.00    +0.006 A 
ATOM     19  C   UNL     1       0.512   2.223  25.249  0.00  0.00    +0.006 A 
ATOM     22  C   UNL     1      -1.355   4.163  24.518  0.00  0.00    +0.015 A 
ATOM     23  C   UNL     1      -0.394   2.709  26.192  0.00  0.00    +0.015 A 
ATOM     24  C   UNL     1      -1.327   3.680  25.826  0.00  0.00    +0.059 A 
BRANCH  24  30
ATOM      3  O   UNL     1      -2.490   3.684  27.916  0.00  0.00    -0.245 OA
ATOM     30  C   UNL     1      -2.271   4.187  26.810  0.00  0.00    +0.337 C 
BRANCH  30   2
ATOM      2  O   UNL     1      -2.914   5.308  26.385  0.00  0.00    -0.477 OA
ATOM     36  H   UNL     1      -3.864   5.300  26.631  0.00  0.00    +0.295 HD
ENDBRANCH  30   2
ENDBRANCH  24  30
ENDBRANCH  14  16
ENDBRANCH   4  14
TORSDOF 6
ENDMDL
MODEL 2
REMARK VINA RESULT:       7.6      2.891      8.386
REMARK  Name = 26744892
REMARK  6 active torsions:
REMARK  status: ('A' for Active; 'I' for Inactive)
REMARK    1  A    between atoms: O_2  and  C_30
REMARK    2  A    between atoms: N_4  and  C_14
REMARK    3  A    between atoms: C_9  and  C_15
REMARK    4  A    between atoms: C_14  and  C_16
REMARK    5  A    between atoms: C_20  and  C_21
REMARK    6  A    between atoms: C_24  and  C_30
REMARK                            x       y       z     vdW  Elec       q    Type
REMARK                         _______ _______ _______ _____ _____    ______ ____
ROOT
ATOM      4  N   UNL     1      -4.462   1.277  24.947  0.00  0.00    -0.281 NA
ATOM      5  N   UNL     1      -6.639   4.147  25.992  0.00  0.00    -0.347 N 
ATOM      6  N   UNL     1      -5.018   5.425  25.132  0.00  0.00    -0.240 NA
ATOM      9  C   UNL     1      -3.815   2.044  23.826  0.00  0.00    +0.152 C 
ATOM     10  C   UNL     1      -3.589   3.555  24.185  0.00  0.00    +0.086 C 
ATOM     11  C   UNL     1      -5.800   1.828  25.310  0.00  0.00    +0.140 C 
ATOM     12  C   UNL     1      -5.744   3.301  25.411  0.00  0.00    +0.053 A 
ATOM     13  C   UNL     1      -4.767   4.105  24.886  0.00  0.00    +0.065 A 
ATOM     17  C   UNL     1      -6.156   5.419  25.797  0.00  0.00    +0.197 A 
ATOM     35  H   UNL     1      -7.494   3.895  26.470  0.00  0.00    +0.167 HD
ENDROOT
BRANCH   9  15
ATOM      1  O   UNL     1      -2.525   0.537  22.382  0.00  0.00    -0.336 OA
ATOM      7  N   UNL     1      -1.271   1.732  23.802  0.00  0.00    -0.190 NA
ATOM      8  N   UNL     1      -1.197   0.160  22.141  0.00  0.00    -0.056 NA
ATOM     15  C   UNL     1      -2.479   1.466  23.373  0.00  0.00    +0.245 A 
ATOM     20  C   UNL     1      -0.519   0.908  23.017  0.00  0.00    +0.202 A 
BRANCH  20  21
ATOM     21  C   UNL     1       0.911   0.855  23.132  0.00  0.00    +0.023 A 
ATOM     25  C   UNL     1       1.550  -0.370  23.323  0.00  0.00    +0.020 A 
ATOM     26  C   UNL     1       1.658   2.027  23.052  0.00  0.00    +0.012 A 
ATOM     27  C   UNL     1       2.948  -0.438  23.438  0.00  0.00    -0.017 A 
ATOM     28  C   UNL     1       3.708   0.753  23.357  0.00  0.00    -0.018 A 
ATOM     29  C   UNL     1       3.048   1.977  23.164  0.00  0.00    +0.009 A 
ATOM     31  C   UNL     1       3.608  -1.663  23.630  0.00  0.00    +0.008 A 
ATOM     32  C   UNL     1       5.106   0.685  23.471  0.00  0.00    +0.008 A 
ATOM     33  C   UNL     1       4.998  -1.712  23.742  0.00  0.00    +0.001 A 
ATOM     34  C   UNL     1       5.745  -0.541  23.662  0.00  0.00    +0.001 A 
ENDBRANCH  20  21
ENDBRANCH   9  15
BRANCH   4  14
ATOM     14  C   UNL     1      -4.625  -0.148  24.628  0.00  0.00    +0.120 C 
BRANCH  14  16
ATOM     16  C   UNL     1      -3.360  -0.926  24.873  0.00  0.00    -0.033 A 
ATOM     18  C   UNL     1      -2.434  -0.472  25.811  0.00  0.00    +0.006 A 
ATOM     19  C   UNL     1      -3.115  -2.101  24.161  0.00  0.00    +0.006 A 
ATOM     22  C   UNL     1      -1.262  -1.193  26.039  0.00  0.00    +0.015 A 
ATOM     23  C   UNL     1      -1.942  -2.822  24.389  0.00  0.00    +0.015 A 
ATOM     24  C   UNL     1      -1.016  -2.367  25.328  0.00  0.00    +0.059 A 
BRANCH  24  30
ATOM      3  O   UNL     1       0.293  -4.351  25.597  0.00  0.00    -0.245 OA
ATOM     30  C   UNL     1       0.206  -3.120  25.565  0.00  0.00    +0.337 C 
BRANCH  30   2
ATOM      2  O   UNL     1       1.286  -2.313  25.755  0.00  0.00    -0.477 OA
ATOM     36  H   UNL     1       1.447  -1.731  24.981  0.00  0.00    +0.295 HD
ENDBRANCH  30   2
ENDBRANCH  24  30
ENDBRANCH  14  16
ENDBRANCH   4  14
TORSDOF 6
ENDMDL
