MODEL 1
REMARK VINA RESULT:      -4.2      0.000      0.000
REMARK  Name = 45783446
REMARK  11 active torsions:
REMARK  status: ('A' for Active; 'I' for Inactive)
REMARK    1  A    between atoms: O_2  and  C_19
REMARK    2  A    between atoms: O_2  and  C_26
REMARK    3  A    between atoms: O_3  and  C_24
REMARK    4  A    between atoms: O_3  and  C_28
REMARK    5  A    between atoms: O_4  and  C_29
REMARK    6  A    between atoms: O_4  and  C_30
REMARK    7  A    between atoms: N_5  and  C_13
REMARK    8  A    between atoms: C_9  and  C_14
REMARK    9  A    between atoms: C_13  and  C_15
REMARK   10  A    between atoms: C_18  and  C_22
REMARK   11  A    between atoms: C_28  and  C_29
REMARK                            x       y       z     vdW  Elec       q    Type
REMARK                         _______ _______ _______ _____ _____    ______ ____
ROOT
ATOM      1  O   UNL     1      -1.896   2.720  25.448  0.00  0.00    -0.336 OA
ATOM      6  N   UNL     1      -1.961   1.631  23.493  0.00  0.00    -0.189 NA
ATOM      7  N   UNL     1      -0.583   2.304  25.191  0.00  0.00    -0.054 NA
ATOM     14  C   UNL     1      -2.641   2.283  24.401  0.00  0.00    +0.245 A 
ATOM     18  C   UNL     1      -0.703   1.669  24.021  0.00  0.00    +0.221 A 
ENDROOT
BRANCH  18  22
ATOM      8  N   UNL     1       0.121  -0.005  22.578  0.00  0.00    -0.252 NA
ATOM     22  C   UNL     1       0.413   1.062  23.355  0.00  0.00    +0.115 A 
ATOM     23  C   UNL     1       1.691   1.569  23.527  0.00  0.00    +0.077 A 
ATOM     24  C   UNL     1       2.736   0.942  22.859  0.00  0.00    +0.124 A 
ATOM     25  C   UNL     1       1.162  -0.589  21.943  0.00  0.00    +0.115 A 
ATOM     27  C   UNL     1       2.475  -0.159  22.050  0.00  0.00    +0.065 A 
BRANCH  24   3
ATOM      3  O   UNL     1       4.008   1.402  22.996  0.00  0.00    -0.490 OA
BRANCH   3  28
ATOM     28  C   UNL     1       5.059   0.439  22.921  0.00  0.00    +0.257 C 
BRANCH  28  29
ATOM     29  C   UNL     1       5.736   0.339  24.274  0.00  0.00    +0.200 C 
BRANCH  29   4
ATOM      4  O   UNL     1       5.688  -1.011  24.719  0.00  0.00    -0.380 OA
ATOM     30  C   UNL     1       4.792  -1.786  23.933  0.00  0.00    +0.194 C 
ENDBRANCH  29   4
ENDBRANCH  28  29
ENDBRANCH   3  28
ENDBRANCH  24   3
ENDBRANCH  18  22
BRANCH  14   9
ATOM      5  N   UNL     1      -4.900   1.627  25.215  0.00  0.00    -0.287 NA
ATOM      9  C   UNL     1      -4.119   2.611  24.440  0.00  0.00    +0.146 C 
ATOM     10  C   UNL     1      -4.410   3.964  25.118  0.00  0.00    +0.030 C 
ATOM     11  C   UNL     1      -5.408   3.648  26.221  0.00  0.00    +0.017 C 
ATOM     12  C   UNL     1      -6.046   2.351  25.765  0.00  0.00    +0.085 C 
BRANCH   5  13
ATOM     13  C   UNL     1      -5.309   0.471  24.429  0.00  0.00    +0.120 C 
BRANCH  13  15
ATOM     15  C   UNL     1      -4.303  -0.647  24.512  0.00  0.00    -0.030 A 
ATOM     16  C   UNL     1      -3.125  -0.473  25.240  0.00  0.00    +0.050 A 
ATOM     17  C   UNL     1      -4.548  -1.856  23.861  0.00  0.00    +0.005 A 
ATOM     19  C   UNL     1      -2.193  -1.508  25.316  0.00  0.00    +0.120 A 
ATOM     20  C   UNL     1      -3.616  -2.891  23.937  0.00  0.00    +0.004 A 
ATOM     21  C   UNL     1      -2.439  -2.717  24.666  0.00  0.00    +0.045 A 
BRANCH  19   2
ATOM      2  O   UNL     1      -1.045  -1.338  26.025  0.00  0.00    -0.495 OA
ATOM     26  C   UNL     1       0.122  -2.002  25.541  0.00  0.00    +0.277 C 
ENDBRANCH  19   2
ENDBRANCH  13  15
ENDBRANCH   5  13
ENDBRANCH  14   9
TORSDOF 9
ENDMDL
MODEL 2
REMARK VINA RESULT:      -3.8     17.013     19.508
REMARK  Name = 45783446
REMARK  11 active torsions:
REMARK  status: ('A' for Active; 'I' for Inactive)
REMARK    1  A    between atoms: O_2  and  C_19
REMARK    2  A    between atoms: O_2  and  C_26
REMARK    3  A    between atoms: O_3  and  C_24
REMARK    4  A    between atoms: O_3  and  C_28
REMARK    5  A    between atoms: O_4  and  C_29
REMARK    6  A    between atoms: O_4  and  C_30
REMARK    7  A    between atoms: N_5  and  C_13
REMARK    8  A    between atoms: C_9  and  C_14
REMARK    9  A    between atoms: C_13  and  C_15
REMARK   10  A    between atoms: C_18  and  C_22
REMARK   11  A    between atoms: C_28  and  C_29
REMARK                            x       y       z     vdW  Elec       q    Type
REMARK                         _______ _______ _______ _____ _____    ______ ____
ROOT
ATOM      1  O   UNL     1      16.953  -7.649  24.545  0.00  0.00    -0.336 OA
ATOM      6  N   UNL     1      16.942  -6.602  26.525  0.00  0.00    -0.189 NA
ATOM      7  N   UNL     1      17.063  -6.282  24.263  0.00  0.00    -0.054 NA
ATOM     14  C   UNL     1      16.886  -7.750  25.898  0.00  0.00    +0.245 A 
ATOM     18  C   UNL     1      17.051  -5.731  25.480  0.00  0.00    +0.221 A 
ENDROOT
BRANCH  18  22
ATOM      8  N   UNL     1      17.135  -3.558  24.566  0.00  0.00    -0.252 NA
ATOM     22  C   UNL     1      17.142  -4.314  25.687  0.00  0.00    +0.115 A 
ATOM     23  C   UNL     1      17.230  -3.799  26.969  0.00  0.00    +0.077 A 
ATOM     24  C   UNL     1      17.317  -2.419  27.112  0.00  0.00    +0.124 A 
ATOM     25  C   UNL     1      17.221  -2.220  24.744  0.00  0.00    +0.115 A 
ATOM     27  C   UNL     1      17.313  -1.607  25.983  0.00  0.00    +0.065 A 
BRANCH  24   3
ATOM      3  O   UNL     1      17.405  -1.864  28.351  0.00  0.00    -0.490 OA
BRANCH   3  28
ATOM     28  C   UNL     1      17.078  -2.699  29.462  0.00  0.00    +0.257 C 
BRANCH  28  29
ATOM     29  C   UNL     1      16.351  -1.872  30.505  0.00  0.00    +0.200 C 
BRANCH  29   4
ATOM      4  O   UNL     1      16.527  -2.476  31.780  0.00  0.00    -0.380 OA
ATOM     30  C   UNL     1      15.433  -3.322  32.110  0.00  0.00    +0.194 C 
ENDBRANCH  29   4
ENDBRANCH  28  29
ENDBRANCH   3  28
ENDBRANCH  24   3
ENDBRANCH  18  22
BRANCH  14   9
ATOM      5  N   UNL     1      16.072  -9.172  27.772  0.00  0.00    -0.287 NA
ATOM      9  C   UNL     1      16.762  -9.148  26.467  0.00  0.00    +0.146 C 
ATOM     10  C   UNL     1      15.933 -10.084  25.568  0.00  0.00    +0.030 C 
ATOM     11  C   UNL     1      14.837 -10.632  26.469  0.00  0.00    +0.017 C 
ATOM     12  C   UNL     1      15.408 -10.473  27.864  0.00  0.00    +0.085 C 
BRANCH   5  13
ATOM     13  C   UNL     1      16.964  -8.931  28.898  0.00  0.00    +0.120 C 
BRANCH  13  15
ATOM     15  C   UNL     1      16.264  -8.220  30.025  0.00  0.00    -0.030 A 
ATOM     16  C   UNL     1      15.156  -7.414  29.761  0.00  0.00    +0.050 A 
ATOM     17  C   UNL     1      16.724  -8.366  31.334  0.00  0.00    +0.005 A 
ATOM     19  C   UNL     1      14.508  -6.754  30.805  0.00  0.00    +0.120 A 
ATOM     20  C   UNL     1      16.076  -7.706  32.379  0.00  0.00    +0.004 A 
ATOM     21  C   UNL     1      14.968  -6.901  32.114  0.00  0.00    +0.045 A 
BRANCH  19   2
ATOM      2  O   UNL     1      13.429  -5.968  30.547  0.00  0.00    -0.495 OA
ATOM     26  C   UNL     1      12.142  -6.579  30.641  0.00  0.00    +0.277 C 
ENDBRANCH  19   2
ENDBRANCH  13  15
ENDBRANCH   5  13
ENDBRANCH  14   9
TORSDOF 9
ENDMDL
MODEL 3
REMARK VINA RESULT:      -3.2     17.973     19.621
REMARK  Name = 45783446
REMARK  11 active torsions:
REMARK  status: ('A' for Active; 'I' for Inactive)
REMARK    1  A    between atoms: O_2  and  C_19
REMARK    2  A    between atoms: O_2  and  C_26
REMARK    3  A    between atoms: O_3  and  C_24
REMARK    4  A    between atoms: O_3  and  C_28
REMARK    5  A    between atoms: O_4  and  C_29
REMARK    6  A    between atoms: O_4  and  C_30
REMARK    7  A    between atoms: N_5  and  C_13
REMARK    8  A    between atoms: C_9  and  C_14
REMARK    9  A    between atoms: C_13  and  C_15
REMARK   10  A    between atoms: C_18  and  C_22
REMARK   11  A    between atoms: C_28  and  C_29
REMARK                            x       y       z     vdW  Elec       q    Type
REMARK                         _______ _______ _______ _____ _____    ______ ____
ROOT
ATOM      1  O   UNL     1      17.204  -9.249  26.249  0.00  0.00    -0.336 OA
ATOM      6  N   UNL     1      17.067  -7.215  27.177  0.00  0.00    -0.189 NA
ATOM      7  N   UNL     1      17.279  -8.333  25.192  0.00  0.00    -0.054 NA
ATOM     14  C   UNL     1      17.080  -8.508  27.381  0.00  0.00    +0.245 A 
ATOM     18  C   UNL     1      17.192  -7.156  25.819  0.00  0.00    +0.221 A 
ENDROOT
BRANCH  18  22
ATOM      8  N   UNL     1      17.181  -5.987  23.770  0.00  0.00    -0.252 NA
ATOM     22  C   UNL     1      17.224  -5.905  25.119  0.00  0.00    +0.115 A 
ATOM     23  C   UNL     1      17.295  -4.712  25.821  0.00  0.00    +0.077 A 
ATOM     24  C   UNL     1      17.323  -3.529  25.093  0.00  0.00    +0.124 A 
ATOM     25  C   UNL     1      17.211  -4.816  23.095  0.00  0.00    +0.115 A 
ATOM     27  C   UNL     1      17.281  -3.573  23.703  0.00  0.00    +0.065 A 
BRANCH  24   3
ATOM      3  O   UNL     1      17.393  -2.332  25.736  0.00  0.00    -0.490 OA
BRANCH   3  28
ATOM     28  C   UNL     1      16.279  -1.451  25.591  0.00  0.00    +0.257 C 
BRANCH  28  29
ATOM     29  C   UNL     1      16.698  -0.258  24.754  0.00  0.00    +0.200 C 
BRANCH  29   4
ATOM      4  O   UNL     1      17.388  -0.720  23.600  0.00  0.00    -0.380 OA
ATOM     30  C   UNL     1      16.493  -0.984  22.528  0.00  0.00    +0.194 C 
ENDBRANCH  29   4
ENDBRANCH  28  29
ENDBRANCH   3  28
ENDBRANCH  24   3
ENDBRANCH  18  22
BRANCH  14   9
ATOM      5  N   UNL     1      16.180  -8.565  29.700  0.00  0.00    -0.287 NA
ATOM      9  C   UNL     1      16.980  -9.275  28.683  0.00  0.00    +0.146 C 
ATOM     10  C   UNL     1      16.283 -10.638  28.517  0.00  0.00    +0.030 C 
ATOM     11  C   UNL     1      15.142 -10.626  29.524  0.00  0.00    +0.017 C 
ATOM     12  C   UNL     1      15.580  -9.597  30.547  0.00  0.00    +0.085 C 
BRANCH   5  13
ATOM     13  C   UNL     1      16.956  -7.605  30.474  0.00  0.00    +0.120 C 
BRANCH  13  15
ATOM     15  C   UNL     1      16.121  -6.428  30.906  0.00  0.00    -0.030 A 
ATOM     16  C   UNL     1      16.703  -5.166  31.025  0.00  0.00    +0.050 A 
ATOM     17  C   UNL     1      14.766  -6.602  31.189  0.00  0.00    +0.005 A 
ATOM     19  C   UNL     1      15.930  -4.077  31.426  0.00  0.00    +0.120 A 
ATOM     20  C   UNL     1      13.992  -5.512  31.590  0.00  0.00    +0.004 A 
ATOM     21  C   UNL     1      14.574  -4.250  31.707  0.00  0.00    +0.045 A 
BRANCH  19   2
ATOM      2  O   UNL     1      16.497  -2.846  31.542  0.00  0.00    -0.495 OA
ATOM     26  C   UNL     1      16.509  -2.023  30.376  0.00  0.00    +0.277 C 
ENDBRANCH  19   2
ENDBRANCH  13  15
ENDBRANCH   5  13
ENDBRANCH  14   9
TORSDOF 9
ENDMDL
MODEL 4
REMARK VINA RESULT:      -1.3      2.007      3.488
REMARK  Name = 45783446
REMARK  11 active torsions:
REMARK  status: ('A' for Active; 'I' for Inactive)
REMARK    1  A    between atoms: O_2  and  C_19
REMARK    2  A    between atoms: O_2  and  C_26
REMARK    3  A    between atoms: O_3  and  C_24
REMARK    4  A    between atoms: O_3  and  C_28
REMARK    5  A    between atoms: O_4  and  C_29
REMARK    6  A    between atoms: O_4  and  C_30
REMARK    7  A    between atoms: N_5  and  C_13
REMARK    8  A    between atoms: C_9  and  C_14
REMARK    9  A    between atoms: C_13  and  C_15
REMARK   10  A    between atoms: C_18  and  C_22
REMARK   11  A    between atoms: C_28  and  C_29
REMARK                            x       y       z     vdW  Elec       q    Type
REMARK                         _______ _______ _______ _____ _____    ______ ____
ROOT
ATOM      1  O   UNL     1      -3.220   2.141  23.151  0.00  0.00    -0.336 OA
ATOM      6  N   UNL     1      -1.887   0.847  24.402  0.00  0.00    -0.189 NA
ATOM      7  N   UNL     1      -2.069   1.914  22.386  0.00  0.00    -0.054 NA
ATOM     14  C   UNL     1      -3.031   1.478  24.322  0.00  0.00    +0.245 A 
ATOM     18  C   UNL     1      -1.332   1.143  23.191  0.00  0.00    +0.221 A 
ENDROOT
BRANCH  18  22
ATOM      8  N   UNL     1      -0.029  -0.390  21.960  0.00  0.00    -0.252 NA
ATOM     22  C   UNL     1      -0.036   0.655  22.817  0.00  0.00    +0.115 A 
ATOM     23  C   UNL     1       1.109   1.247  23.325  0.00  0.00    +0.077 A 
ATOM     24  C   UNL     1       2.338   0.734  22.929  0.00  0.00    +0.124 A 
ATOM     25  C   UNL     1       1.184  -0.863  21.597  0.00  0.00    +0.115 A 
ATOM     27  C   UNL     1       2.386  -0.342  22.050  0.00  0.00    +0.065 A 
BRANCH  24   3
ATOM      3  O   UNL     1       3.491   1.281  23.401  0.00  0.00    -0.490 OA
BRANCH   3  28
ATOM     28  C   UNL     1       4.713   0.648  23.022  0.00  0.00    +0.257 C 
BRANCH  28  29
ATOM     29  C   UNL     1       5.613   0.541  24.238  0.00  0.00    +0.200 C 
BRANCH  29   4
ATOM      4  O   UNL     1       5.691  -0.821  24.639  0.00  0.00    -0.380 OA
ATOM     30  C   UNL     1       4.821  -1.641  23.869  0.00  0.00    +0.194 C 
ENDBRANCH  29   4
ENDBRANCH  28  29
ENDBRANCH   3  28
ENDBRANCH  24   3
ENDBRANCH  18  22
BRANCH  14   9
ATOM      5  N   UNL     1      -4.704   2.931  25.456  0.00  0.00    -0.287 NA
ATOM      9  C   UNL     1      -4.151   1.567  25.337  0.00  0.00    +0.146 C 
ATOM     10  C   UNL     1      -5.359   0.685  24.968  0.00  0.00    +0.030 C 
ATOM     11  C   UNL     1      -6.552   1.629  24.963  0.00  0.00    +0.017 C 
ATOM     12  C   UNL     1      -6.105   2.775  25.848  0.00  0.00    +0.085 C 
BRANCH   5  13
ATOM     13  C   UNL     1      -3.964   3.771  26.389  0.00  0.00    +0.120 C 
BRANCH  13  15
ATOM     15  C   UNL     1      -2.544   3.991  25.939  0.00  0.00    -0.030 A 
ATOM     16  C   UNL     1      -1.521   3.184  26.437  0.00  0.00    +0.050 A 
ATOM     17  C   UNL     1      -2.251   5.004  25.025  0.00  0.00    +0.005 A 
ATOM     19  C   UNL     1      -0.206   3.389  26.021  0.00  0.00    +0.120 A 
ATOM     20  C   UNL     1      -0.936   5.208  24.609  0.00  0.00    +0.004 A 
ATOM     21  C   UNL     1       0.087   4.400  25.106  0.00  0.00    +0.045 A 
BRANCH  19   2
ATOM      2  O   UNL     1       0.791   2.601  26.508  0.00  0.00    -0.495 OA
ATOM     26  C   UNL     1       0.876   2.462  27.926  0.00  0.00    +0.277 C 
ENDBRANCH  19   2
ENDBRANCH  13  15
ENDBRANCH   5  13
ENDBRANCH  14   9
TORSDOF 9
ENDMDL
