MODEL 1
REMARK VINA RESULT:      -5.7      0.000      0.000
REMARK  Name = 11942509
REMARK  11 active torsions:
REMARK  status: ('A' for Active; 'I' for Inactive)
REMARK    1  A    between atoms: N_4  and  C_16
REMARK    2  A    between atoms: N_5  and  C_19
REMARK    3  A    between atoms: N_8  and  C_21
REMARK    4  A    between atoms: C_10  and  C_16
REMARK    5  A    between atoms: C_11  and  C_17
REMARK    6  A    between atoms: C_19  and  C_21
REMARK    7  A    between atoms: C_20  and  C_22
REMARK    8  A    between atoms: C_22  and  C_23
REMARK    9  A    between atoms: C_23  and  C_24
REMARK   10  A    between atoms: C_24  and  C_26
REMARK   11  A    between atoms: C_25  and  C_27
REMARK                            x       y       z     vdW  Elec       q    Type
REMARK                         _______ _______ _______ _____ _____    ______ ____
ROOT
ATOM      3  N   UNL     1      -2.283  -1.178  23.641  0.00  0.00    -0.297 NA
ATOM      9  C   UNL     1      -3.486  -0.951  25.937  0.00  0.00    +0.005 C 
ATOM     10  C   UNL     1      -1.379  -0.526  24.625  0.00  0.00    +0.078 C 
ATOM     11  C   UNL     1      -4.344  -0.367  24.798  0.00  0.00    +0.092 C 
ATOM     12  C   UNL     1      -2.118  -0.240  25.950  0.00  0.00    +0.025 C 
ATOM     13  C   UNL     1      -3.231  -2.428  25.590  0.00  0.00    +0.020 C 
ATOM     14  C   UNL     1      -3.533  -0.393  23.490  0.00  0.00    +0.097 C 
ATOM     15  C   UNL     1      -2.641  -2.519  24.170  0.00  0.00    +0.085 C 
ENDROOT
BRANCH  11  17
ATOM      1  O   UNL     1      -5.749   1.209  25.909  0.00  0.00    -0.275 OA
ATOM      5  N   UNL     1      -4.114   1.990  24.449  0.00  0.00    -0.314 N 
ATOM     17  C   UNL     1      -4.820   1.014  25.131  0.00  0.00    +0.218 C 
ATOM     28  H   UNL     1      -3.366   1.716  23.819  0.00  0.00    +0.149 HD
BRANCH   5  19
ATOM     19  C   UNL     1      -4.392   3.402  24.576  0.00  0.00    +0.123 C 
BRANCH  19  21
ATOM     21  C   UNL     1      -3.642   4.032  25.736  0.00  0.00    +0.123 C 
BRANCH  21   8
ATOM      2  O   UNL     1      -0.986   4.942  24.996  0.00  0.00    -0.276 OA
ATOM      8  N   UNL     1      -2.390   3.373  25.991  0.00  0.00    -0.314 N 
ATOM     25  C   UNL     1      -1.161   3.887  25.598  0.00  0.00    +0.210 C 
ATOM     27  C   UNL     1      -0.011   3.009  26.014  0.00  0.00    +0.109 C 
ATOM     29  H   UNL     1      -2.417   2.497  26.506  0.00  0.00    +0.149 HD
ENDBRANCH  21   8
ENDBRANCH  19  21
ENDBRANCH   5  19
ENDBRANCH  11  17
BRANCH  10  16
ATOM     16  C   UNL     1      -0.715   0.732  24.061  0.00  0.00    +0.164 C 
BRANCH  16   4
ATOM      4  N   UNL     1       0.475   0.417  23.288  0.00  0.00    -0.250 N 
ATOM      6  N   UNL     1       0.414  -0.477  22.296  0.00  0.00    -0.065 NA
ATOM      7  N   UNL     1       1.635  -0.562  21.781  0.00  0.00    -0.135 NA
ATOM     18  C   UNL     1       1.716   0.932  23.447  0.00  0.00    +0.133 A 
ATOM     20  C   UNL     1       2.445   0.294  22.475  0.00  0.00    +0.083 A 
BRANCH  20  22
ATOM     22  C   UNL     1       3.869   0.434  22.145  0.00  0.00    +0.059 C 
BRANCH  22  23
ATOM     23  C   UNL     1       4.743   0.827  23.355  0.00  0.00    +0.006 C 
BRANCH  23  24
ATOM     24  C   UNL     1       5.620  -0.329  23.838  0.00  0.00    -0.003 C 
ATOM     26  C   UNL     1       4.822  -1.615  23.973  0.00  0.00    +0.004 C 
ENDBRANCH  23  24
ENDBRANCH  22  23
ENDBRANCH  20  22
ENDBRANCH  16   4
ENDBRANCH  10  16
TORSDOF 9
ENDMDL
MODEL 2
REMARK VINA RESULT:      -4.9      1.569      4.218
REMARK  Name = 11942509
REMARK  11 active torsions:
REMARK  status: ('A' for Active; 'I' for Inactive)
REMARK    1  A    between atoms: N_4  and  C_16
REMARK    2  A    between atoms: N_5  and  C_19
REMARK    3  A    between atoms: N_8  and  C_21
REMARK    4  A    between atoms: C_10  and  C_16
REMARK    5  A    between atoms: C_11  and  C_17
REMARK    6  A    between atoms: C_19  and  C_21
REMARK    7  A    between atoms: C_20  and  C_22
REMARK    8  A    between atoms: C_22  and  C_23
REMARK    9  A    between atoms: C_23  and  C_24
REMARK   10  A    between atoms: C_24  and  C_26
REMARK   11  A    between atoms: C_25  and  C_27
REMARK                            x       y       z     vdW  Elec       q    Type
REMARK                         _______ _______ _______ _____ _____    ______ ____
ROOT
ATOM      3  N   UNL     1      -1.339   3.984  25.676  0.00  0.00    -0.297 NA
ATOM      9  C   UNL     1      -3.402   4.069  24.092  0.00  0.00    +0.005 C 
ATOM     10  C   UNL     1      -1.160   3.021  24.558  0.00  0.00    +0.078 C 
ATOM     11  C   UNL     1      -3.832   3.861  25.558  0.00  0.00    +0.092 C 
ATOM     12  C   UNL     1      -2.433   2.939  23.688  0.00  0.00    +0.025 C 
ATOM     13  C   UNL     1      -2.612   5.388  24.044  0.00  0.00    +0.020 C 
ATOM     14  C   UNL     1      -2.579   3.672  26.431  0.00  0.00    +0.097 C 
ATOM     15  C   UNL     1      -1.483   5.340  25.091  0.00  0.00    +0.085 C 
ENDROOT
BRANCH  11  17
ATOM      1  O   UNL     1      -5.841   2.803  26.294  0.00  0.00    -0.275 OA
ATOM      5  N   UNL     1      -4.296   1.563  25.073  0.00  0.00    -0.314 N 
ATOM     17  C   UNL     1      -4.779   2.706  25.686  0.00  0.00    +0.218 C 
ATOM     28  H   UNL     1      -3.396   1.590  24.603  0.00  0.00    +0.149 HD
BRANCH   5  19
ATOM     19  C   UNL     1      -5.007   0.305  25.073  0.00  0.00    +0.123 C 
BRANCH  19  21
ATOM     21  C   UNL     1      -4.443  -0.673  24.056  0.00  0.00    +0.123 C 
BRANCH  21   8
ATOM      2  O   UNL     1      -3.467  -3.228  25.028  0.00  0.00    -0.276 OA
ATOM      8  N   UNL     1      -3.083  -1.033  24.351  0.00  0.00    -0.314 N 
ATOM     25  C   UNL     1      -2.707  -2.287  24.813  0.00  0.00    +0.210 C 
ATOM     27  C   UNL     1      -1.221  -2.404  25.015  0.00  0.00    +0.109 C 
ATOM     29  H   UNL     1      -2.366  -0.332  24.186  0.00  0.00    +0.149 HD
ENDBRANCH  21   8
ENDBRANCH  19  21
ENDBRANCH   5  19
ENDBRANCH  11  17
BRANCH  10  16
ATOM     16  C   UNL     1      -0.714   1.640  25.044  0.00  0.00    +0.164 C 
BRANCH  16   4
ATOM      4  N   UNL     1       0.171   0.991  24.090  0.00  0.00    -0.250 N 
ATOM      6  N   UNL     1      -0.295   0.030  23.287  0.00  0.00    -0.065 NA
ATOM      7  N   UNL     1       0.725  -0.375  22.539  0.00  0.00    -0.135 NA
ATOM     18  C   UNL     1       1.487   1.237  23.894  0.00  0.00    +0.133 A 
ATOM     20  C   UNL     1       1.825   0.354  22.899  0.00  0.00    +0.083 A 
BRANCH  20  22
ATOM     22  C   UNL     1       3.126   0.145  22.251  0.00  0.00    +0.059 C 
BRANCH  22  23
ATOM     23  C   UNL     1       4.252   1.021  22.838  0.00  0.00    +0.006 C 
BRANCH  23  24
ATOM     24  C   UNL     1       5.381   0.188  23.445  0.00  0.00    -0.003 C 
ATOM     26  C   UNL     1       4.874  -1.155  23.946  0.00  0.00    +0.004 C 
ENDBRANCH  23  24
ENDBRANCH  22  23
ENDBRANCH  20  22
ENDBRANCH  16   4
ENDBRANCH  10  16
TORSDOF 9
ENDMDL
MODEL 3
REMARK VINA RESULT:      -4.1      2.038      5.918
REMARK  Name = 11942509
REMARK  11 active torsions:
REMARK  status: ('A' for Active; 'I' for Inactive)
REMARK    1  A    between atoms: N_4  and  C_16
REMARK    2  A    between atoms: N_5  and  C_19
REMARK    3  A    between atoms: N_8  and  C_21
REMARK    4  A    between atoms: C_10  and  C_16
REMARK    5  A    between atoms: C_11  and  C_17
REMARK    6  A    between atoms: C_19  and  C_21
REMARK    7  A    between atoms: C_20  and  C_22
REMARK    8  A    between atoms: C_22  and  C_23
REMARK    9  A    between atoms: C_23  and  C_24
REMARK   10  A    between atoms: C_24  and  C_26
REMARK   11  A    between atoms: C_25  and  C_27
REMARK                            x       y       z     vdW  Elec       q    Type
REMARK                         _______ _______ _______ _____ _____    ______ ____
ROOT
ATOM      3  N   UNL     1      -3.587  -0.113  25.749  0.00  0.00    -0.297 NA
ATOM      9  C   UNL     1      -2.310  -1.777  24.210  0.00  0.00    +0.005 C 
ATOM     10  C   UNL     1      -4.328  -0.294  24.473  0.00  0.00    +0.078 C 
ATOM     11  C   UNL     1      -1.384  -0.647  24.699  0.00  0.00    +0.092 C 
ATOM     12  C   UNL     1      -3.518  -1.156  23.480  0.00  0.00    +0.025 C 
ATOM     13  C   UNL     1      -2.849  -2.486  25.465  0.00  0.00    +0.020 C 
ATOM     14  C   UNL     1      -2.215   0.385  25.482  0.00  0.00    +0.097 C 
ATOM     15  C   UNL     1      -3.478  -1.440  26.405  0.00  0.00    +0.085 C 
ENDROOT
BRANCH  11  17
ATOM      1  O   UNL     1      -1.120   0.919  22.919  0.00  0.00    -0.275 OA
ATOM      5  N   UNL     1       0.572  -0.629  23.318  0.00  0.00    -0.314 N 
ATOM     17  C   UNL     1      -0.647  -0.017  23.556  0.00  0.00    +0.218 C 
ATOM     28  H   UNL     1       0.863  -1.406  23.903  0.00  0.00    +0.149 HD
BRANCH   5  19
ATOM     19  C   UNL     1       1.465  -0.225  22.256  0.00  0.00    +0.123 C 
BRANCH  19  21
ATOM     21  C   UNL     1       2.690   0.501  22.783  0.00  0.00    +0.123 C 
BRANCH  21   8
ATOM      2  O   UNL     1       5.342   1.155  23.767  0.00  0.00    -0.276 OA
ATOM      8  N   UNL     1       3.699  -0.412  23.250  0.00  0.00    -0.314 N 
ATOM     25  C   UNL     1       4.945  -0.006  23.706  0.00  0.00    +0.210 C 
ATOM     27  C   UNL     1       5.796  -1.161  24.160  0.00  0.00    +0.109 C 
ATOM     29  H   UNL     1       3.466  -1.401  23.263  0.00  0.00    +0.149 HD
ENDBRANCH  21   8
ENDBRANCH  19  21
ENDBRANCH   5  19
ENDBRANCH  11  17
BRANCH  10  16
ATOM     16  C   UNL     1      -4.754   1.039  23.852  0.00  0.00    +0.164 C 
BRANCH  16   4
ATOM      4  N   UNL     1      -4.294   2.173  24.636  0.00  0.00    -0.250 N 
ATOM      6  N   UNL     1      -4.979   2.567  25.715  0.00  0.00    -0.065 NA
ATOM      7  N   UNL     1      -4.334   3.612  26.219  0.00  0.00    -0.135 NA
ATOM     18  C   UNL     1      -3.201   2.937  24.409  0.00  0.00    +0.133 A 
ATOM     20  C   UNL     1      -3.243   3.852  25.430  0.00  0.00    +0.083 A 
BRANCH  20  22
ATOM     22  C   UNL     1      -2.315   4.953  25.725  0.00  0.00    +0.059 C 
BRANCH  22  23
ATOM     23  C   UNL     1      -0.987   4.861  24.943  0.00  0.00    +0.006 C 
BRANCH  23  24
ATOM     24  C   UNL     1      -0.484   3.423  24.817  0.00  0.00    -0.003 C 
ATOM     26  C   UNL     1       0.122   2.929  26.120  0.00  0.00    +0.004 C 
ENDBRANCH  23  24
ENDBRANCH  22  23
ENDBRANCH  20  22
ENDBRANCH  16   4
ENDBRANCH  10  16
TORSDOF 9
ENDMDL
MODEL 4
REMARK VINA RESULT:      -4.0      2.354      6.375
REMARK  Name = 11942509
REMARK  11 active torsions:
REMARK  status: ('A' for Active; 'I' for Inactive)
REMARK    1  A    between atoms: N_4  and  C_16
REMARK    2  A    between atoms: N_5  and  C_19
REMARK    3  A    between atoms: N_8  and  C_21
REMARK    4  A    between atoms: C_10  and  C_16
REMARK    5  A    between atoms: C_11  and  C_17
REMARK    6  A    between atoms: C_19  and  C_21
REMARK    7  A    between atoms: C_20  and  C_22
REMARK    8  A    between atoms: C_22  and  C_23
REMARK    9  A    between atoms: C_23  and  C_24
REMARK   10  A    between atoms: C_24  and  C_26
REMARK   11  A    between atoms: C_25  and  C_27
REMARK                            x       y       z     vdW  Elec       q    Type
REMARK                         _______ _______ _______ _____ _____    ______ ____
ROOT
ATOM      3  N   UNL     1      -2.730   4.236  24.347  0.00  0.00    -0.297 NA
ATOM      9  C   UNL     1      -0.929   2.824  25.586  0.00  0.00    +0.005 C 
ATOM     10  C   UNL     1      -3.387   3.191  25.175  0.00  0.00    +0.078 C 
ATOM     11  C   UNL     1      -0.639   2.895  24.074  0.00  0.00    +0.092 C 
ATOM     12  C   UNL     1      -2.341   2.242  25.800  0.00  0.00    +0.025 C 
ATOM     13  C   UNL     1      -0.948   4.273  26.103  0.00  0.00    +0.020 C 
ATOM     14  C   UNL     1      -1.804   3.613  23.369  0.00  0.00    +0.097 C 
ATOM     15  C   UNL     1      -1.931   5.100  25.253  0.00  0.00    +0.085 C 
ENDROOT
BRANCH  11  17
ATOM      1  O   UNL     1      -1.288   0.901  22.933  0.00  0.00    -0.275 OA
ATOM      5  N   UNL     1       0.893   1.089  23.723  0.00  0.00    -0.314 N 
ATOM     17  C   UNL     1      -0.401   1.529  23.503  0.00  0.00    +0.218 C 
ATOM     28  H   UNL     1       1.548   1.689  24.216  0.00  0.00    +0.149 HD
BRANCH   5  19
ATOM     19  C   UNL     1       1.372  -0.205  23.293  0.00  0.00    +0.123 C 
BRANCH  19  21
ATOM     21  C   UNL     1       2.486  -0.092  22.267  0.00  0.00    +0.123 C 
BRANCH  21   8
ATOM      2  O   UNL     1       4.394  -1.620  23.832  0.00  0.00    -0.276 OA
ATOM      8  N   UNL     1       3.712   0.379  22.851  0.00  0.00    -0.314 N 
ATOM     25  C   UNL     1       4.568  -0.429  23.588  0.00  0.00    +0.210 C 
ATOM     27  C   UNL     1       5.791   0.308  24.061  0.00  0.00    +0.109 C 
ATOM     29  H   UNL     1       3.966   1.350  22.691  0.00  0.00    +0.149 HD
ENDBRANCH  21   8
ENDBRANCH  19  21
ENDBRANCH   5  19
ENDBRANCH  11  17
BRANCH  10  16
ATOM     16  C   UNL     1      -4.459   2.422  24.400  0.00  0.00    +0.164 C 
BRANCH  16   4
ATOM      4  N   UNL     1      -4.351   0.987  24.604  0.00  0.00    -0.250 N 
ATOM      6  N   UNL     1      -4.516   0.468  25.825  0.00  0.00    -0.065 NA
ATOM      7  N   UNL     1      -4.358  -0.846  25.708  0.00  0.00    -0.135 NA
ATOM     18  C   UNL     1      -4.085   0.044  23.671  0.00  0.00    +0.133 A 
ATOM     20  C   UNL     1      -4.093  -1.122  24.394  0.00  0.00    +0.083 A 
BRANCH  20  22
ATOM     22  C   UNL     1      -3.868  -2.498  23.934  0.00  0.00    +0.059 C 
BRANCH  22  23
ATOM     23  C   UNL     1      -2.647  -3.174  24.595  0.00  0.00    +0.006 C 
BRANCH  23  24
ATOM     24  C   UNL     1      -1.342  -2.434  24.300  0.00  0.00    -0.003 C 
ATOM     26  C   UNL     1      -0.877  -1.626  25.500  0.00  0.00    +0.004 C 
ENDBRANCH  23  24
ENDBRANCH  22  23
ENDBRANCH  20  22
ENDBRANCH  16   4
ENDBRANCH  10  16
TORSDOF 9
ENDMDL
MODEL 5
REMARK VINA RESULT:      -2.5      1.556      2.258
REMARK  Name = 11942509
REMARK  11 active torsions:
REMARK  status: ('A' for Active; 'I' for Inactive)
REMARK    1  A    between atoms: N_4  and  C_16
REMARK    2  A    between atoms: N_5  and  C_19
REMARK    3  A    between atoms: N_8  and  C_21
REMARK    4  A    between atoms: C_10  and  C_16
REMARK    5  A    between atoms: C_11  and  C_17
REMARK    6  A    between atoms: C_19  and  C_21
REMARK    7  A    between atoms: C_20  and  C_22
REMARK    8  A    between atoms: C_22  and  C_23
REMARK    9  A    between atoms: C_23  and  C_24
REMARK   10  A    between atoms: C_24  and  C_26
REMARK   11  A    between atoms: C_25  and  C_27
REMARK                            x       y       z     vdW  Elec       q    Type
REMARK                         _______ _______ _______ _____ _____    ______ ____
ROOT
ATOM      3  N   UNL     1      -2.728  -2.195  24.112  0.00  0.00    -0.297 NA
ATOM      9  C   UNL     1      -2.512  -0.339  25.922  0.00  0.00    +0.005 C 
ATOM     10  C   UNL     1      -1.298  -1.995  24.464  0.00  0.00    +0.078 C 
ATOM     11  C   UNL     1      -3.344   0.149  24.720  0.00  0.00    +0.092 C 
ATOM     12  C   UNL     1      -1.127  -0.796  25.422  0.00  0.00    +0.025 C 
ATOM     13  C   UNL     1      -3.228  -1.579  26.484  0.00  0.00    +0.020 C 
ATOM     14  C   UNL     1      -3.320  -0.926  23.619  0.00  0.00    +0.097 C 
ATOM     15  C   UNL     1      -3.451  -2.593  25.346  0.00  0.00    +0.085 C 
ENDROOT
BRANCH  11  17
ATOM      1  O   UNL     1      -3.095   1.868  23.083  0.00  0.00    -0.275 OA
ATOM      5  N   UNL     1      -2.083   2.136  25.161  0.00  0.00    -0.314 N 
ATOM     17  C   UNL     1      -2.846   1.471  24.217  0.00  0.00    +0.218 C 
ATOM     28  H   UNL     1      -1.932   1.711  26.071  0.00  0.00    +0.149 HD
BRANCH   5  19
ATOM     19  C   UNL     1      -1.467   3.420  24.917  0.00  0.00    +0.123 C 
BRANCH  19  21
ATOM     21  C   UNL     1      -2.172   4.544  25.657  0.00  0.00    +0.123 C 
BRANCH  21   8
ATOM      2  O   UNL     1      -4.541   4.392  23.985  0.00  0.00    -0.276 OA
ATOM      8  N   UNL     1      -3.503   4.174  26.058  0.00  0.00    -0.314 N 
ATOM     25  C   UNL     1      -4.580   4.128  25.184  0.00  0.00    +0.210 C 
ATOM     27  C   UNL     1      -5.850   3.685  25.859  0.00  0.00    +0.109 C 
ATOM     29  H   UNL     1      -3.644   3.914  27.030  0.00  0.00    +0.149 HD
ENDBRANCH  21   8
ENDBRANCH  19  21
ENDBRANCH   5  19
ENDBRANCH  11  17
BRANCH  10  16
ATOM     16  C   UNL     1      -0.405  -1.866  23.228  0.00  0.00    +0.164 C 
BRANCH  16   4
ATOM      4  N   UNL     1       0.438  -0.683  23.290  0.00  0.00    -0.250 N 
ATOM      6  N   UNL     1      -0.036   0.454  23.810  0.00  0.00    -0.065 NA
ATOM      7  N   UNL     1       0.941   1.349  23.730  0.00  0.00    -0.135 NA
ATOM     18  C   UNL     1       1.716  -0.565  22.863  0.00  0.00    +0.133 A 
ATOM     20  C   UNL     1       2.021   0.742  23.152  0.00  0.00    +0.083 A 
BRANCH  20  22
ATOM     22  C   UNL     1       3.275   1.472  22.923  0.00  0.00    +0.059 C 
BRANCH  22  23
ATOM     23  C   UNL     1       4.457   0.555  22.542  0.00  0.00    +0.006 C 
BRANCH  23  24
ATOM     24  C   UNL     1       5.425   0.340  23.706  0.00  0.00    -0.003 C 
ATOM     26  C   UNL     1       5.377  -1.092  24.213  0.00  0.00    +0.004 C 
ENDBRANCH  23  24
ENDBRANCH  22  23
ENDBRANCH  20  22
ENDBRANCH  16   4
ENDBRANCH  10  16
TORSDOF 9
ENDMDL
MODEL 6
REMARK VINA RESULT:      -2.0      2.554      4.192
REMARK  Name = 11942509
REMARK  11 active torsions:
REMARK  status: ('A' for Active; 'I' for Inactive)
REMARK    1  A    between atoms: N_4  and  C_16
REMARK    2  A    between atoms: N_5  and  C_19
REMARK    3  A    between atoms: N_8  and  C_21
REMARK    4  A    between atoms: C_10  and  C_16
REMARK    5  A    between atoms: C_11  and  C_17
REMARK    6  A    between atoms: C_19  and  C_21
REMARK    7  A    between atoms: C_20  and  C_22
REMARK    8  A    between atoms: C_22  and  C_23
REMARK    9  A    between atoms: C_23  and  C_24
REMARK   10  A    between atoms: C_24  and  C_26
REMARK   11  A    between atoms: C_25  and  C_27
REMARK                            x       y       z     vdW  Elec       q    Type
REMARK                         _______ _______ _______ _____ _____    ______ ____
ROOT
ATOM      3  N   UNL     1      -2.281  -2.433  24.042  0.00  0.00    -0.297 NA
ATOM      9  C   UNL     1      -3.424  -0.665  25.571  0.00  0.00    +0.005 C 
ATOM     10  C   UNL     1      -1.269  -1.798  24.926  0.00  0.00    +0.078 C 
ATOM     11  C   UNL     1      -3.774  -0.430  24.089  0.00  0.00    +0.092 C 
ATOM     12  C   UNL     1      -1.891  -0.639  25.736  0.00  0.00    +0.025 C 
ATOM     13  C   UNL     1      -3.897  -2.087  25.919  0.00  0.00    +0.020 C 
ATOM     14  C   UNL     1      -2.963  -1.405  23.217  0.00  0.00    +0.097 C 
ATOM     15  C   UNL     1      -3.299  -3.081  24.906  0.00  0.00    +0.085 C 
ENDROOT
BRANCH  11  17
ATOM      1  O   UNL     1      -2.718   1.304  22.835  0.00  0.00    -0.275 OA
ATOM      5  N   UNL     1      -4.317   1.878  24.426  0.00  0.00    -0.314 N 
ATOM     17  C   UNL     1      -3.537   0.997  23.696  0.00  0.00    +0.218 C 
ATOM     28  H   UNL     1      -4.959   1.515  25.124  0.00  0.00    +0.149 HD
BRANCH   5  19
ATOM     19  C   UNL     1      -4.261   3.312  24.255  0.00  0.00    +0.123 C 
BRANCH  19  21
ATOM     21  C   UNL     1      -5.179   4.040  25.221  0.00  0.00    +0.123 C 
BRANCH  21   8
ATOM      2  O   UNL     1      -6.919   1.728  24.979  0.00  0.00    -0.276 OA
ATOM      8  N   UNL     1      -5.643   3.181  26.277  0.00  0.00    -0.314 N 
ATOM     25  C   UNL     1      -6.477   2.092  26.066  0.00  0.00    +0.210 C 
ATOM     27  C   UNL     1      -6.787   1.349  27.338  0.00  0.00    +0.109 C 
ATOM     29  H   UNL     1      -5.318   3.379  27.219  0.00  0.00    +0.149 HD
ENDBRANCH  21   8
ENDBRANCH  19  21
ENDBRANCH   5  19
ENDBRANCH  11  17
BRANCH  10  16
ATOM     16  C   UNL     1      -0.023  -1.351  24.159  0.00  0.00    +0.164 C 
BRANCH  16   4
ATOM      4  N   UNL     1       0.215   0.076  24.299  0.00  0.00    -0.250 N 
ATOM      6  N   UNL     1       1.003   0.715  23.427  0.00  0.00    -0.065 NA
ATOM      7  N   UNL     1       1.039   1.988  23.803  0.00  0.00    -0.135 NA
ATOM     18  C   UNL     1      -0.277   0.900  25.252  0.00  0.00    +0.133 A 
ATOM     20  C   UNL     1       0.260   2.118  24.920  0.00  0.00    +0.083 A 
BRANCH  20  22
ATOM     22  C   UNL     1       0.090   3.417  25.584  0.00  0.00    +0.059 C 
BRANCH  22  23
ATOM     23  C   UNL     1      -1.368   3.707  26.001  0.00  0.00    +0.006 C 
BRANCH  23  24
ATOM     24  C   UNL     1      -1.916   4.979  25.354  0.00  0.00    -0.003 C 
ATOM     26  C   UNL     1      -0.822   5.754  24.638  0.00  0.00    +0.004 C 
ENDBRANCH  23  24
ENDBRANCH  22  23
ENDBRANCH  20  22
ENDBRANCH  16   4
ENDBRANCH  10  16
TORSDOF 9
ENDMDL
