MODEL 1
REMARK VINA RESULT:       1.1      0.000      0.000
REMARK  Name = 56775859
REMARK  6 active torsions:
REMARK  status: ('A' for Active; 'I' for Inactive)
REMARK    1  A    between atoms: O_3  and  C_27
REMARK    2  A    between atoms: N_5  and  C_11
REMARK    3  A    between atoms: C_8  and  C_13
REMARK    4  A    between atoms: C_11  and  C_14
REMARK    5  A    between atoms: C_15  and  C_19
REMARK    6  A    between atoms: C_22  and  C_27
REMARK                            x       y       z     vdW  Elec       q    Type
REMARK                         _______ _______ _______ _____ _____    ______ ____
ROOT
ATOM      2  O   UNL     1      -3.084  -3.604  24.039  0.00  0.00    -0.377 OA
ATOM      5  N   UNL     1      -2.517  -1.042  25.186  0.00  0.00    -0.285 NA
ATOM      8  C   UNL     1      -1.457  -1.845  24.523  0.00  0.00    +0.149 C 
ATOM      9  C   UNL     1      -3.577  -1.926  25.702  0.00  0.00    +0.113 C 
ATOM     10  C   UNL     1      -2.081  -2.770  23.460  0.00  0.00    +0.186 C 
ATOM     12  C   UNL     1      -4.130  -2.811  24.594  0.00  0.00    +0.175 C 
ENDROOT
BRANCH   8  13
ATOM      6  N   UNL     1       0.953  -1.253  24.083  0.00  0.00    -0.341 N 
ATOM      7  N   UNL     1      -0.551   0.021  23.060  0.00  0.00    -0.238 NA
ATOM     13  C   UNL     1      -0.373  -1.000  23.868  0.00  0.00    +0.127 A 
ATOM     15  C   UNL     1       1.667  -0.334  23.365  0.00  0.00    +0.066 A 
ATOM     16  C   UNL     1       0.717   0.441  22.744  0.00  0.00    +0.139 A 
ATOM     29  H   UNL     1       1.329  -1.995  24.660  0.00  0.00    +0.167 HD
BRANCH  15  19
ATOM      1 CL   UNL     1       7.612  -0.140  23.289  0.00  0.00    -0.084 Cl
ATOM     19  C   UNL     1       3.105  -0.288  23.347  0.00  0.00    -0.000 A 
ATOM     23  C   UNL     1       3.759   0.834  22.836  0.00  0.00    +0.011 A 
ATOM     24  C   UNL     1       3.844  -1.363  23.840  0.00  0.00    +0.011 A 
ATOM     25  C   UNL     1       5.153   0.880  22.818  0.00  0.00    +0.020 A 
ATOM     26  C   UNL     1       5.238  -1.316  23.823  0.00  0.00    +0.020 A 
ATOM     28  C   UNL     1       5.892  -0.195  23.311  0.00  0.00    +0.041 A 
ENDBRANCH  15  19
ENDBRANCH   8  13
BRANCH   5  11
ATOM     11  C   UNL     1      -1.988  -0.231  26.289  0.00  0.00    +0.120 C 
BRANCH  11  14
ATOM     14  C   UNL     1      -1.746   1.195  25.870  0.00  0.00    -0.033 A 
ATOM     17  C   UNL     1      -0.504   1.787  26.099  0.00  0.00    +0.006 A 
ATOM     18  C   UNL     1      -2.763   1.923  25.254  0.00  0.00    +0.006 A 
ATOM     20  C   UNL     1      -0.279   3.108  25.712  0.00  0.00    +0.015 A 
ATOM     21  C   UNL     1      -2.538   3.244  24.866  0.00  0.00    +0.015 A 
ATOM     22  C   UNL     1      -1.296   3.836  25.095  0.00  0.00    +0.059 A 
BRANCH  22  27
ATOM      4  O   UNL     1      -1.676   6.198  25.116  0.00  0.00    -0.245 OA
ATOM     27  C   UNL     1      -1.062   5.213  24.690  0.00  0.00    +0.337 C 
BRANCH  27   3
ATOM      3  O   UNL     1      -0.071   5.323  23.765  0.00  0.00    -0.477 OA
ATOM     30  H   UNL     1       0.601   5.989  24.027  0.00  0.00    +0.295 HD
ENDBRANCH  27   3
ENDBRANCH  22  27
ENDBRANCH  11  14
ENDBRANCH   5  11
TORSDOF 6
ENDMDL
MODEL 2
REMARK VINA RESULT:       1.3      2.031      2.599
REMARK  Name = 56775859
REMARK  6 active torsions:
REMARK  status: ('A' for Active; 'I' for Inactive)
REMARK    1  A    between atoms: O_3  and  C_27
REMARK    2  A    between atoms: N_5  and  C_11
REMARK    3  A    between atoms: C_8  and  C_13
REMARK    4  A    between atoms: C_11  and  C_14
REMARK    5  A    between atoms: C_15  and  C_19
REMARK    6  A    between atoms: C_22  and  C_27
REMARK                            x       y       z     vdW  Elec       q    Type
REMARK                         _______ _______ _______ _____ _____    ______ ____
ROOT
ATOM      2  O   UNL     1      -2.722  -2.702  26.009  0.00  0.00    -0.377 OA
ATOM      5  N   UNL     1      -2.882  -1.301  23.516  0.00  0.00    -0.285 NA
ATOM      8  C   UNL     1      -2.066  -0.784  24.644  0.00  0.00    +0.149 C 
ATOM      9  C   UNL     1      -3.979  -2.143  24.025  0.00  0.00    +0.113 C 
ATOM     10  C   UNL     1      -1.605  -1.947  25.542  0.00  0.00    +0.186 C 
ATOM     12  C   UNL     1      -3.440  -3.258  24.909  0.00  0.00    +0.175 C 
ENDROOT
BRANCH   8  13
ATOM      6  N   UNL     1       0.389  -0.570  24.113  0.00  0.00    -0.341 N 
ATOM      7  N   UNL     1      -0.813   1.280  23.860  0.00  0.00    -0.238 NA
ATOM     13  C   UNL     1      -0.846   0.011  24.199  0.00  0.00    +0.127 A 
ATOM     15  C   UNL     1       1.265   0.392  23.692  0.00  0.00    +0.066 A 
ATOM     16  C   UNL     1       0.500   1.524  23.543  0.00  0.00    +0.139 A 
ATOM     29  H   UNL     1       0.604  -1.538  24.315  0.00  0.00    +0.167 HD
BRANCH  15  19
ATOM      1 CL   UNL     1       7.067  -0.613  22.842  0.00  0.00    -0.084 Cl
ATOM     19  C   UNL     1       2.668   0.148  23.486  0.00  0.00    -0.000 A 
ATOM     23  C   UNL     1       3.474   1.142  22.931  0.00  0.00    +0.011 A 
ATOM     24  C   UNL     1       3.223  -1.081  23.844  0.00  0.00    +0.011 A 
ATOM     25  C   UNL     1       4.834   0.907  22.731  0.00  0.00    +0.020 A 
ATOM     26  C   UNL     1       4.583  -1.316  23.645  0.00  0.00    +0.020 A 
ATOM     28  C   UNL     1       5.389  -0.322  23.088  0.00  0.00    +0.041 A 
ENDBRANCH  15  19
ENDBRANCH   8  13
BRANCH   5  11
ATOM     11  C   UNL     1      -3.444  -0.221  22.697  0.00  0.00    +0.120 C 
BRANCH  11  14
ATOM     14  C   UNL     1      -3.894   0.944  23.539  0.00  0.00    -0.033 A 
ATOM     17  C   UNL     1      -4.711   0.726  24.649  0.00  0.00    +0.006 A 
ATOM     18  C   UNL     1      -3.495   2.239  23.210  0.00  0.00    +0.006 A 
ATOM     20  C   UNL     1      -5.128   1.804  25.429  0.00  0.00    +0.015 A 
ATOM     21  C   UNL     1      -3.912   3.316  23.990  0.00  0.00    +0.015 A 
ATOM     22  C   UNL     1      -4.729   3.099  25.100  0.00  0.00    +0.059 A 
BRANCH  22  27
ATOM      4  O   UNL     1      -6.247   4.807  25.808  0.00  0.00    -0.245 OA
ATOM     27  C   UNL     1      -5.162   4.224  25.914  0.00  0.00    +0.337 C 
BRANCH  27   3
ATOM      3  O   UNL     1      -4.231   4.590  26.836  0.00  0.00    -0.477 OA
ATOM     30  H   UNL     1      -3.672   3.832  27.112  0.00  0.00    +0.295 HD
ENDBRANCH  27   3
ENDBRANCH  22  27
ENDBRANCH  11  14
ENDBRANCH   5  11
TORSDOF 6
ENDMDL
MODEL 3
REMARK VINA RESULT:       1.4      4.075      6.914
REMARK  Name = 56775859
REMARK  6 active torsions:
REMARK  status: ('A' for Active; 'I' for Inactive)
REMARK    1  A    between atoms: O_3  and  C_27
REMARK    2  A    between atoms: N_5  and  C_11
REMARK    3  A    between atoms: C_8  and  C_13
REMARK    4  A    between atoms: C_11  and  C_14
REMARK    5  A    between atoms: C_15  and  C_19
REMARK    6  A    between atoms: C_22  and  C_27
REMARK                            x       y       z     vdW  Elec       q    Type
REMARK                         _______ _______ _______ _____ _____    ______ ____
ROOT
ATOM      2  O   UNL     1       2.983   0.583  22.343  0.00  0.00    -0.377 OA
ATOM      5  N   UNL     1       0.428  -0.278  23.311  0.00  0.00    -0.285 NA
ATOM      8  C   UNL     1       1.268   0.675  24.082  0.00  0.00    +0.149 C 
ATOM      9  C   UNL     1       1.276  -1.121  22.449  0.00  0.00    +0.113 C 
ATOM     10  C   UNL     1       2.183   1.466  23.129  0.00  0.00    +0.186 C 
ATOM     12  C   UNL     1       2.154  -0.263  21.549  0.00  0.00    +0.175 C 
ENDROOT
BRANCH   8  13
ATOM      6  N   UNL     1      -0.801   2.033  24.558  0.00  0.00    -0.341 N 
ATOM      7  N   UNL     1       0.844   2.239  26.036  0.00  0.00    -0.238 NA
ATOM     13  C   UNL     1       0.461   1.657  24.921  0.00  0.00    +0.127 A 
ATOM     15  C   UNL     1      -1.253   2.913  25.502  0.00  0.00    +0.066 A 
ATOM     16  C   UNL     1      -0.221   3.025  26.402  0.00  0.00    +0.139 A 
ATOM     29  H   UNL     1      -1.306   1.707  23.744  0.00  0.00    +0.167 HD
BRANCH  15  19
ATOM      1 CL   UNL     1      -6.629   5.453  25.295  0.00  0.00    -0.084 Cl
ATOM     19  C   UNL     1      -2.554   3.528  25.453  0.00  0.00    -0.000 A 
ATOM     23  C   UNL     1      -3.119   3.864  24.222  0.00  0.00    +0.011 A 
ATOM     24  C   UNL     1      -3.249   3.786  26.634  0.00  0.00    +0.011 A 
ATOM     25  C   UNL     1      -4.379   4.459  24.173  0.00  0.00    +0.020 A 
ATOM     26  C   UNL     1      -4.510   4.381  26.585  0.00  0.00    +0.020 A 
ATOM     28  C   UNL     1      -5.074   4.718  25.354  0.00  0.00    +0.041 A 
ENDBRANCH  15  19
ENDBRANCH   8  13
BRANCH   5  11
ATOM     11  C   UNL     1      -0.376  -1.139  24.185  0.00  0.00    +0.120 C 
BRANCH  11  14
ATOM     14  C   UNL     1      -1.746  -0.564  24.432  0.00  0.00    -0.033 A 
ATOM     17  C   UNL     1      -2.346  -0.706  25.684  0.00  0.00    +0.006 A 
ATOM     18  C   UNL     1      -2.415   0.111  23.411  0.00  0.00    +0.006 A 
ATOM     20  C   UNL     1      -3.614  -0.174  25.913  0.00  0.00    +0.015 A 
ATOM     21  C   UNL     1      -3.683   0.643  23.641  0.00  0.00    +0.015 A 
ATOM     22  C   UNL     1      -4.282   0.501  24.893  0.00  0.00    +0.059 A 
BRANCH  22  27
ATOM      4  O   UNL     1      -6.408   1.393  24.254  0.00  0.00    -0.245 OA
ATOM     27  C   UNL     1      -5.604   1.058  25.131  0.00  0.00    +0.337 C 
BRANCH  27   3
ATOM      3  O   UNL     1      -5.887   1.181  26.457  0.00  0.00    -0.477 OA
ATOM     30  H   UNL     1      -5.523   2.011  26.832  0.00  0.00    +0.295 HD
ENDBRANCH  27   3
ENDBRANCH  22  27
ENDBRANCH  11  14
ENDBRANCH   5  11
TORSDOF 6
ENDMDL
MODEL 4
REMARK VINA RESULT:       1.6      1.610      5.193
REMARK  Name = 56775859
REMARK  6 active torsions:
REMARK  status: ('A' for Active; 'I' for Inactive)
REMARK    1  A    between atoms: O_3  and  C_27
REMARK    2  A    between atoms: N_5  and  C_11
REMARK    3  A    between atoms: C_8  and  C_13
REMARK    4  A    between atoms: C_11  and  C_14
REMARK    5  A    between atoms: C_15  and  C_19
REMARK    6  A    between atoms: C_22  and  C_27
REMARK                            x       y       z     vdW  Elec       q    Type
REMARK                         _______ _______ _______ _____ _____    ______ ____
ROOT
ATOM      2  O   UNL     1      -1.356   5.441  25.294  0.00  0.00    -0.377 OA
ATOM      5  N   UNL     1      -2.786   3.028  24.716  0.00  0.00    -0.285 NA
ATOM      8  C   UNL     1      -1.487   3.333  24.064  0.00  0.00    +0.149 C 
ATOM      9  C   UNL     1      -3.462   4.277  25.112  0.00  0.00    +0.113 C 
ATOM     10  C   UNL     1      -0.642   4.249  24.970  0.00  0.00    +0.186 C 
ATOM     12  C   UNL     1      -2.557   5.125  25.993  0.00  0.00    +0.175 C 
ENDROOT
BRANCH   8  13
ATOM      6  N   UNL     1       0.693   2.103  23.762  0.00  0.00    -0.341 N 
ATOM      7  N   UNL     1      -1.142   0.920  23.353  0.00  0.00    -0.238 NA
ATOM     13  C   UNL     1      -0.673   2.093  23.718  0.00  0.00    +0.127 A 
ATOM     15  C   UNL     1       1.124   0.857  23.402  0.00  0.00    +0.066 A 
ATOM     16  C   UNL     1      -0.026   0.146  23.154  0.00  0.00    +0.139 A 
ATOM     29  H   UNL     1       1.271   2.891  24.025  0.00  0.00    +0.167 HD
BRANCH  15  19
ATOM      1 CL   UNL     1       6.869  -0.660  23.112  0.00  0.00    -0.084 Cl
ATOM     19  C   UNL     1       2.513   0.489  23.332  0.00  0.00    -0.000 A 
ATOM     23  C   UNL     1       3.460   1.423  22.911  0.00  0.00    +0.011 A 
ATOM     24  C   UNL     1       2.913  -0.800  23.685  0.00  0.00    +0.011 A 
ATOM     25  C   UNL     1       4.807   1.068  22.843  0.00  0.00    +0.020 A 
ATOM     26  C   UNL     1       4.260  -1.154  23.618  0.00  0.00    +0.020 A 
ATOM     28  C   UNL     1       5.207  -0.220  23.196  0.00  0.00    +0.041 A 
ENDBRANCH  15  19
ENDBRANCH   8  13
BRANCH   5  11
ATOM     11  C   UNL     1      -3.676   2.255  23.842  0.00  0.00    +0.120 C 
BRANCH  11  14
ATOM     14  C   UNL     1      -3.644   0.785  24.168  0.00  0.00    -0.033 A 
ATOM     17  C   UNL     1      -3.981  -0.152  23.191  0.00  0.00    +0.006 A 
ATOM     18  C   UNL     1      -3.279   0.361  25.445  0.00  0.00    +0.006 A 
ATOM     20  C   UNL     1      -3.952  -1.513  23.493  0.00  0.00    +0.015 A 
ATOM     21  C   UNL     1      -3.249  -1.000  25.746  0.00  0.00    +0.015 A 
ATOM     22  C   UNL     1      -3.585  -1.937  24.769  0.00  0.00    +0.059 A 
BRANCH  22  27
ATOM      4  O   UNL     1      -3.216  -3.841  26.171  0.00  0.00    -0.245 OA
ATOM     27  C   UNL     1      -3.553  -3.357  25.084  0.00  0.00    +0.337 C 
BRANCH  27   3
ATOM      3  O   UNL     1      -3.943  -4.133  24.037  0.00  0.00    -0.477 OA
ATOM     30  H   UNL     1      -3.300  -4.096  23.296  0.00  0.00    +0.295 HD
ENDBRANCH  27   3
ENDBRANCH  22  27
ENDBRANCH  11  14
ENDBRANCH   5  11
TORSDOF 6
ENDMDL
MODEL 5
REMARK VINA RESULT:       1.8      1.363      4.781
REMARK  Name = 56775859
REMARK  6 active torsions:
REMARK  status: ('A' for Active; 'I' for Inactive)
REMARK    1  A    between atoms: O_3  and  C_27
REMARK    2  A    between atoms: N_5  and  C_11
REMARK    3  A    between atoms: C_8  and  C_13
REMARK    4  A    between atoms: C_11  and  C_14
REMARK    5  A    between atoms: C_15  and  C_19
REMARK    6  A    between atoms: C_22  and  C_27
REMARK                            x       y       z     vdW  Elec       q    Type
REMARK                         _______ _______ _______ _____ _____    ______ ____
ROOT
ATOM      2  O   UNL     1      -2.199   4.456  24.045  0.00  0.00    -0.377 OA
ATOM      5  N   UNL     1      -0.886   2.542  25.722  0.00  0.00    -0.285 NA
ATOM      8  C   UNL     1      -1.199   2.241  24.301  0.00  0.00    +0.149 C 
ATOM      9  C   UNL     1      -1.828   3.545  26.249  0.00  0.00    +0.113 C 
ATOM     10  C   UNL     1      -1.255   3.545  23.483  0.00  0.00    +0.186 C 
ATOM     12  C   UNL     1      -1.829   4.795  25.379  0.00  0.00    +0.175 C 
ENDROOT
BRANCH   8  13
ATOM      6  N   UNL     1       1.129   1.349  23.930  0.00  0.00    -0.341 N 
ATOM      7  N   UNL     1      -0.480   0.343  22.776  0.00  0.00    -0.238 NA
ATOM     13  C   UNL     1      -0.206   1.289  23.647  0.00  0.00    +0.127 A 
ATOM     15  C   UNL     1       1.748   0.378  23.193  0.00  0.00    +0.066 A 
ATOM     16  C   UNL     1       0.735  -0.228  22.488  0.00  0.00    +0.139 A 
ATOM     29  H   UNL     1       1.570   1.990  24.577  0.00  0.00    +0.167 HD
BRANCH  15  19
ATOM      1 CL   UNL     1       7.613  -0.610  23.345  0.00  0.00    -0.084 Cl
ATOM     19  C   UNL     1       3.167   0.140  23.229  0.00  0.00    -0.000 A 
ATOM     23  C   UNL     1       3.655  -1.098  23.650  0.00  0.00    +0.011 A 
ATOM     24  C   UNL     1       4.053   1.145  22.844  0.00  0.00    +0.011 A 
ATOM     25  C   UNL     1       5.029  -1.330  23.687  0.00  0.00    +0.020 A 
ATOM     26  C   UNL     1       5.428   0.913  22.879  0.00  0.00    +0.020 A 
ATOM     28  C   UNL     1       5.916  -0.325  23.301  0.00  0.00    +0.041 A 
ENDBRANCH  15  19
ENDBRANCH   8  13
BRANCH   5  11
ATOM     11  C   UNL     1      -0.938   1.342  26.566  0.00  0.00    +0.120 C 
BRANCH  11  14
ATOM     14  C   UNL     1      -1.717   0.231  25.913  0.00  0.00    -0.033 A 
ATOM     17  C   UNL     1      -1.123  -1.017  25.723  0.00  0.00    +0.006 A 
ATOM     18  C   UNL     1      -3.030   0.449  25.498  0.00  0.00    +0.006 A 
ATOM     20  C   UNL     1      -1.843  -2.046  25.118  0.00  0.00    +0.015 A 
ATOM     21  C   UNL     1      -3.750  -0.581  24.894  0.00  0.00    +0.015 A 
ATOM     22  C   UNL     1      -3.157  -1.829  24.704  0.00  0.00    +0.059 A 
BRANCH  22  27
ATOM      4  O   UNL     1      -3.570  -4.090  24.042  0.00  0.00    -0.245 OA
ATOM     27  C   UNL     1      -3.909  -2.902  24.075  0.00  0.00    +0.337 C 
BRANCH  27   3
ATOM      3  O   UNL     1      -5.064  -2.464  23.503  0.00  0.00    -0.477 OA
ATOM     30  H   UNL     1      -4.895  -1.962  22.677  0.00  0.00    +0.295 HD
ENDBRANCH  27   3
ENDBRANCH  22  27
ENDBRANCH  11  14
ENDBRANCH   5  11
TORSDOF 6
ENDMDL
MODEL 6
REMARK VINA RESULT:       2.4      2.899      5.327
REMARK  Name = 56775859
REMARK  6 active torsions:
REMARK  status: ('A' for Active; 'I' for Inactive)
REMARK    1  A    between atoms: O_3  and  C_27
REMARK    2  A    between atoms: N_5  and  C_11
REMARK    3  A    between atoms: C_8  and  C_13
REMARK    4  A    between atoms: C_11  and  C_14
REMARK    5  A    between atoms: C_15  and  C_19
REMARK    6  A    between atoms: C_22  and  C_27
REMARK                            x       y       z     vdW  Elec       q    Type
REMARK                         _______ _______ _______ _____ _____    ______ ____
ROOT
ATOM      2  O   UNL     1      -6.168   3.972  25.812  0.00  0.00    -0.377 OA
ATOM      5  N   UNL     1      -5.016   1.377  25.432  0.00  0.00    -0.285 NA
ATOM      8  C   UNL     1      -4.962   2.412  24.368  0.00  0.00    +0.149 C 
ATOM      9  C   UNL     1      -6.179   1.610  26.308  0.00  0.00    +0.113 C 
ATOM     10  C   UNL     1      -5.008   3.819  24.994  0.00  0.00    +0.186 C 
ATOM     12  C   UNL     1      -6.154   3.022  26.875  0.00  0.00    +0.175 C 
ENDROOT
BRANCH   8  13
ATOM      6  N   UNL     1      -2.582   1.711  23.921  0.00  0.00    -0.341 N 
ATOM      7  N   UNL     1      -3.608   2.749  22.247  0.00  0.00    -0.238 NA
ATOM     13  C   UNL     1      -3.729   2.308  23.479  0.00  0.00    +0.127 A 
ATOM     15  C   UNL     1      -1.669   1.776  22.905  0.00  0.00    +0.066 A 
ATOM     16  C   UNL     1      -2.325   2.421  21.884  0.00  0.00    +0.139 A 
ATOM     29  H   UNL     1      -2.445   1.291  24.832  0.00  0.00    +0.167 HD
BRANCH  15  19
ATOM      1 CL   UNL     1       3.848  -0.412  23.318  0.00  0.00    -0.084 Cl
ATOM     19  C   UNL     1      -0.334   1.247  23.006  0.00  0.00    -0.000 A 
ATOM     23  C   UNL     1       0.008   0.085  22.314  0.00  0.00    +0.011 A 
ATOM     24  C   UNL     1       0.617   1.897  23.792  0.00  0.00    +0.011 A 
ATOM     25  C   UNL     1       1.301  -0.429  22.411  0.00  0.00    +0.020 A 
ATOM     26  C   UNL     1       1.910   1.383  23.888  0.00  0.00    +0.020 A 
ATOM     28  C   UNL     1       2.252   0.221  23.198  0.00  0.00    +0.041 A 
ENDBRANCH  15  19
ENDBRANCH   8  13
BRANCH   5  11
ATOM     11  C   UNL     1      -5.094   0.020  24.880  0.00  0.00    +0.120 C 
BRANCH  11  14
ATOM     14  C   UNL     1      -3.784  -0.712  25.006  0.00  0.00    -0.033 A 
ATOM     17  C   UNL     1      -2.828  -0.276  25.924  0.00  0.00    +0.006 A 
ATOM     18  C   UNL     1      -3.526  -1.824  24.205  0.00  0.00    +0.006 A 
ATOM     20  C   UNL     1      -1.615  -0.954  26.041  0.00  0.00    +0.015 A 
ATOM     21  C   UNL     1      -2.313  -2.501  24.322  0.00  0.00    +0.015 A 
ATOM     22  C   UNL     1      -1.357  -2.066  25.241  0.00  0.00    +0.059 A 
BRANCH  22  27
ATOM      4  O   UNL     1       0.037  -4.002  25.423  0.00  0.00    -0.245 OA
ATOM     27  C   UNL     1      -0.093  -2.774  25.362  0.00  0.00    +0.337 C 
BRANCH  27   3
ATOM      3  O   UNL     1       0.975  -1.931  25.406  0.00  0.00    -0.477 OA
ATOM     30  H   UNL     1       1.509  -2.060  26.219  0.00  0.00    +0.295 HD
ENDBRANCH  27   3
ENDBRANCH  22  27
ENDBRANCH  11  14
ENDBRANCH   5  11
TORSDOF 6
ENDMDL
MODEL 7
REMARK VINA RESULT:       3.0      3.769      6.363
REMARK  Name = 56775859
REMARK  6 active torsions:
REMARK  status: ('A' for Active; 'I' for Inactive)
REMARK    1  A    between atoms: O_3  and  C_27
REMARK    2  A    between atoms: N_5  and  C_11
REMARK    3  A    between atoms: C_8  and  C_13
REMARK    4  A    between atoms: C_11  and  C_14
REMARK    5  A    between atoms: C_15  and  C_19
REMARK    6  A    between atoms: C_22  and  C_27
REMARK                            x       y       z     vdW  Elec       q    Type
REMARK                         _______ _______ _______ _____ _____    ______ ____
ROOT
ATOM      2  O   UNL     1      -0.136  -3.918  25.426  0.00  0.00    -0.377 OA
ATOM      5  N   UNL     1      -0.234  -1.188  24.565  0.00  0.00    -0.285 NA
ATOM      8  C   UNL     1      -1.356  -2.124  24.299  0.00  0.00    +0.149 C 
ATOM      9  C   UNL     1       1.030  -1.933  24.699  0.00  0.00    +0.113 C 
ATOM     10  C   UNL     1      -1.387  -3.232  25.369  0.00  0.00    +0.186 C 
ATOM     12  C   UNL     1       0.911  -3.012  25.766  0.00  0.00    +0.175 C 
ENDROOT
BRANCH   8  13
ATOM      6  N   UNL     1      -2.875  -0.137  24.617  0.00  0.00    -0.341 N 
ATOM      7  N   UNL     1      -3.856  -1.988  23.878  0.00  0.00    -0.238 NA
ATOM     13  C   UNL     1      -2.718  -1.445  24.252  0.00  0.00    +0.127 A 
ATOM     15  C   UNL     1      -4.197   0.174  24.467  0.00  0.00    +0.066 A 
ATOM     16  C   UNL     1      -4.782  -0.983  24.012  0.00  0.00    +0.139 A 
ATOM     29  H   UNL     1      -2.138   0.483  24.929  0.00  0.00    +0.167 HD
BRANCH  15  19
ATOM      1 CL   UNL     1      -6.451   5.545  25.681  0.00  0.00    -0.084 Cl
ATOM     19  C   UNL     1      -4.742   1.474  24.760  0.00  0.00    -0.000 A 
ATOM     23  C   UNL     1      -5.653   1.628  25.806  0.00  0.00    +0.011 A 
ATOM     24  C   UNL     1      -4.359   2.579  24.000  0.00  0.00    +0.011 A 
ATOM     25  C   UNL     1      -6.182   2.886  26.091  0.00  0.00    +0.020 A 
ATOM     26  C   UNL     1      -4.888   3.838  24.285  0.00  0.00    +0.020 A 
ATOM     28  C   UNL     1      -5.799   3.991  25.330  0.00  0.00    +0.041 A 
ENDBRANCH  15  19
ENDBRANCH   8  13
BRANCH   5  11
ATOM     11  C   UNL     1      -0.090  -0.182  23.507  0.00  0.00    +0.120 C 
BRANCH  11  14
ATOM     14  C   UNL     1      -0.478   1.193  23.983  0.00  0.00    -0.033 A 
ATOM     17  C   UNL     1      -0.319   1.536  25.326  0.00  0.00    +0.006 A 
ATOM     18  C   UNL     1      -0.997   2.123  23.082  0.00  0.00    +0.006 A 
ATOM     20  C   UNL     1      -0.679   2.808  25.767  0.00  0.00    +0.015 A 
ATOM     21  C   UNL     1      -1.356   3.395  23.524  0.00  0.00    +0.015 A 
ATOM     22  C   UNL     1      -1.197   3.738  24.867  0.00  0.00    +0.059 A 
BRANCH  22  27
ATOM      4  O   UNL     1      -1.074   6.127  24.930  0.00  0.00    -0.245 OA
ATOM     27  C   UNL     1      -1.571   5.067  25.326  0.00  0.00    +0.337 C 
BRANCH  27   3
ATOM      3  O   UNL     1      -2.555   5.035  26.266  0.00  0.00    -0.477 OA
ATOM     30  H   UNL     1      -2.444   4.283  26.887  0.00  0.00    +0.295 HD
ENDBRANCH  27   3
ENDBRANCH  22  27
ENDBRANCH  11  14
ENDBRANCH   5  11
TORSDOF 6
ENDMDL
MODEL 8
REMARK VINA RESULT:       3.5      1.404      2.068
REMARK  Name = 56775859
REMARK  6 active torsions:
REMARK  status: ('A' for Active; 'I' for Inactive)
REMARK    1  A    between atoms: O_3  and  C_27
REMARK    2  A    between atoms: N_5  and  C_11
REMARK    3  A    between atoms: C_8  and  C_13
REMARK    4  A    between atoms: C_11  and  C_14
REMARK    5  A    between atoms: C_15  and  C_19
REMARK    6  A    between atoms: C_22  and  C_27
REMARK                            x       y       z     vdW  Elec       q    Type
REMARK                         _______ _______ _______ _____ _____    ______ ____
ROOT
ATOM      2  O   UNL     1      -2.612  -1.521  26.710  0.00  0.00    -0.377 OA
ATOM      5  N   UNL     1      -3.037  -0.604  24.030  0.00  0.00    -0.285 NA
ATOM      8  C   UNL     1      -1.728  -0.428  24.710  0.00  0.00    +0.149 C 
ATOM      9  C   UNL     1      -4.121  -0.678  25.026  0.00  0.00    +0.113 C 
ATOM     10  C   UNL     1      -1.533  -1.524  25.775  0.00  0.00    +0.186 C 
ATOM     12  C   UNL     1      -3.846  -1.775  26.044  0.00  0.00    +0.175 C 
ENDROOT
BRANCH   8  13
ATOM      6  N   UNL     1       0.742  -0.329  24.217  0.00  0.00    -0.341 N 
ATOM      7  N   UNL     1      -0.581  -0.573  22.450  0.00  0.00    -0.238 NA
ATOM     13  C   UNL     1      -0.540  -0.448  23.758  0.00  0.00    +0.127 A 
ATOM     15  C   UNL     1       1.573  -0.382  23.132  0.00  0.00    +0.066 A 
ATOM     16  C   UNL     1       0.733  -0.532  22.054  0.00  0.00    +0.139 A 
ATOM     29  H   UNL     1       1.018  -0.231  25.186  0.00  0.00    +0.167 HD
BRANCH  15  19
ATOM      1 CL   UNL     1       7.496   0.009  23.524  0.00  0.00    -0.084 Cl
ATOM     19  C   UNL     1       3.005  -0.287  23.227  0.00  0.00    -0.000 A 
ATOM     23  C   UNL     1       3.744  -1.363  23.720  0.00  0.00    +0.011 A 
ATOM     24  C   UNL     1       3.655   0.881  22.826  0.00  0.00    +0.011 A 
ATOM     25  C   UNL     1       5.132  -1.272  23.812  0.00  0.00    +0.020 A 
ATOM     26  C   UNL     1       5.044   0.971  22.918  0.00  0.00    +0.020 A 
ATOM     28  C   UNL     1       5.782  -0.105  23.411  0.00  0.00    +0.041 A 
ENDBRANCH  15  19
ENDBRANCH   8  13
BRANCH   5  11
ATOM     11  C   UNL     1      -3.322   0.485  23.089  0.00  0.00    +0.120 C 
BRANCH  11  14
ATOM     14  C   UNL     1      -2.823   1.811  23.598  0.00  0.00    -0.033 A 
ATOM     17  C   UNL     1      -3.642   2.600  24.408  0.00  0.00    +0.006 A 
ATOM     18  C   UNL     1      -1.544   2.253  23.261  0.00  0.00    +0.006 A 
ATOM     20  C   UNL     1      -3.180   3.828  24.879  0.00  0.00    +0.015 A 
ATOM     21  C   UNL     1      -1.083   3.481  23.733  0.00  0.00    +0.015 A 
ATOM     22  C   UNL     1      -1.901   4.268  24.543  0.00  0.00    +0.059 A 
BRANCH  22  27
ATOM      4  O   UNL     1      -0.251   5.950  24.961  0.00  0.00    -0.245 OA
ATOM     27  C   UNL     1      -1.418   5.549  25.035  0.00  0.00    +0.337 C 
BRANCH  27   3
ATOM      3  O   UNL     1      -2.404   6.293  25.606  0.00  0.00    -0.477 OA
ATOM     30  H   UNL     1      -3.227   5.774  25.734  0.00  0.00    +0.295 HD
ENDBRANCH  27   3
ENDBRANCH  22  27
ENDBRANCH  11  14
ENDBRANCH   5  11
TORSDOF 6
ENDMDL
MODEL 9
REMARK VINA RESULT:       3.6      3.621      6.462
REMARK  Name = 56775859
REMARK  6 active torsions:
REMARK  status: ('A' for Active; 'I' for Inactive)
REMARK    1  A    between atoms: O_3  and  C_27
REMARK    2  A    between atoms: N_5  and  C_11
REMARK    3  A    between atoms: C_8  and  C_13
REMARK    4  A    between atoms: C_11  and  C_14
REMARK    5  A    between atoms: C_15  and  C_19
REMARK    6  A    between atoms: C_22  and  C_27
REMARK                            x       y       z     vdW  Elec       q    Type
REMARK                         _______ _______ _______ _____ _____    ______ ____
ROOT
ATOM      2  O   UNL     1       4.151  -1.042  23.149  0.00  0.00    -0.377 OA
ATOM      5  N   UNL     1       2.271   1.083  23.543  0.00  0.00    -0.285 NA
ATOM      8  C   UNL     1       1.825  -0.294  23.208  0.00  0.00    +0.149 C 
ATOM      9  C   UNL     1       3.635   1.314  23.034  0.00  0.00    +0.113 C 
ATOM     10  C   UNL     1       2.863  -1.321  23.697  0.00  0.00    +0.186 C 
ATOM     12  C   UNL     1       4.593   0.252  23.554  0.00  0.00    +0.175 C 
ENDROOT
BRANCH   8  13
ATOM      6  N   UNL     1      -0.587   0.220  23.733  0.00  0.00    -0.341 N 
ATOM      7  N   UNL     1       0.135  -1.775  24.390  0.00  0.00    -0.238 NA
ATOM     13  C   UNL     1       0.464  -0.652  23.791  0.00  0.00    +0.127 A 
ATOM     15  C   UNL     1      -1.655  -0.385  24.335  0.00  0.00    +0.066 A 
ATOM     16  C   UNL     1      -1.185  -1.614  24.732  0.00  0.00    +0.139 A 
ATOM     29  H   UNL     1      -0.571   1.140  23.311  0.00  0.00    +0.167 HD
BRANCH  15  19
ATOM      1 CL   UNL     1      -6.994   2.183  24.877  0.00  0.00    -0.084 Cl
ATOM     19  C   UNL     1      -2.947   0.236  24.465  0.00  0.00    -0.000 A 
ATOM     23  C   UNL     1      -3.840  -0.213  25.438  0.00  0.00    +0.011 A 
ATOM     24  C   UNL     1      -3.304   1.287  23.621  0.00  0.00    +0.011 A 
ATOM     25  C   UNL     1      -5.092   0.389  25.565  0.00  0.00    +0.020 A 
ATOM     26  C   UNL     1      -4.556   1.889  23.749  0.00  0.00    +0.020 A 
ATOM     28  C   UNL     1      -5.449   1.440  24.721  0.00  0.00    +0.041 A 
ENDBRANCH  15  19
ENDBRANCH   8  13
BRANCH   5  11
ATOM     11  C   UNL     1       1.373   2.105  22.994  0.00  0.00    +0.120 C 
BRANCH  11  14
ATOM     14  C   UNL     1       0.351   2.555  24.004  0.00  0.00    -0.033 A 
ATOM     17  C   UNL     1      -0.677   3.416  23.620  0.00  0.00    +0.006 A 
ATOM     18  C   UNL     1       0.432   2.111  25.324  0.00  0.00    +0.006 A 
ATOM     20  C   UNL     1      -1.623   3.833  24.555  0.00  0.00    +0.015 A 
ATOM     21  C   UNL     1      -0.515   2.528  26.259  0.00  0.00    +0.015 A 
ATOM     22  C   UNL     1      -1.543   3.389  25.874  0.00  0.00    +0.059 A 
BRANCH  22  27
ATOM      4  O   UNL     1      -2.358   3.858  28.074  0.00  0.00    -0.245 OA
ATOM     27  C   UNL     1      -2.530   3.823  26.850  0.00  0.00    +0.337 C 
BRANCH  27   3
ATOM      3  O   UNL     1      -3.703   4.200  26.273  0.00  0.00    -0.477 OA
ATOM     30  H   UNL     1      -4.065   5.016  26.681  0.00  0.00    +0.295 HD
ENDBRANCH  27   3
ENDBRANCH  22  27
ENDBRANCH  11  14
ENDBRANCH   5  11
TORSDOF 6
ENDMDL
MODEL 10
REMARK VINA RESULT:       3.7      2.685      5.342
REMARK  Name = 56775859
REMARK  6 active torsions:
REMARK  status: ('A' for Active; 'I' for Inactive)
REMARK    1  A    between atoms: O_3  and  C_27
REMARK    2  A    between atoms: N_5  and  C_11
REMARK    3  A    between atoms: C_8  and  C_13
REMARK    4  A    between atoms: C_11  and  C_14
REMARK    5  A    between atoms: C_15  and  C_19
REMARK    6  A    between atoms: C_22  and  C_27
REMARK                            x       y       z     vdW  Elec       q    Type
REMARK                         _______ _______ _______ _____ _____    ______ ____
ROOT
ATOM      2  O   UNL     1      -6.181   4.031  25.969  0.00  0.00    -0.377 OA
ATOM      5  N   UNL     1      -4.725   1.745  25.042  0.00  0.00    -0.285 NA
ATOM      8  C   UNL     1      -4.268   3.127  24.745  0.00  0.00    +0.149 C 
ATOM      9  C   UNL     1      -6.184   1.726  25.251  0.00  0.00    +0.113 C 
ATOM     10  C   UNL     1      -4.761   4.094  25.838  0.00  0.00    +0.186 C 
ATOM     12  C   UNL     1      -6.587   2.715  26.337  0.00  0.00    +0.175 C 
ENDROOT
BRANCH   8  13
ATOM      6  N   UNL     1      -1.995   2.235  24.117  0.00  0.00    -0.341 N 
ATOM      7  N   UNL     1      -2.022   4.292  24.953  0.00  0.00    -0.238 NA
ATOM     13  C   UNL     1      -2.756   3.254  24.618  0.00  0.00    +0.127 A 
ATOM     15  C   UNL     1      -0.692   2.650  24.132  0.00  0.00    +0.066 A 
ATOM     16  C   UNL     1      -0.735   3.922  24.653  0.00  0.00    +0.139 A 
ATOM     29  H   UNL     1      -2.342   1.344  23.786  0.00  0.00    +0.167 HD
BRANCH  15  19
ATOM      1 CL   UNL     1       3.835  -0.716  22.244  0.00  0.00    -0.084 Cl
ATOM     19  C   UNL     1       0.403   1.836  23.676  0.00  0.00    -0.000 A 
ATOM     23  C   UNL     1       0.161   0.551  23.190  0.00  0.00    +0.011 A 
ATOM     24  C   UNL     1       1.706   2.333  23.718  0.00  0.00    +0.011 A 
ATOM     25  C   UNL     1       1.222  -0.239  22.748  0.00  0.00    +0.020 A 
ATOM     26  C   UNL     1       2.767   1.543  23.274  0.00  0.00    +0.020 A 
ATOM     28  C   UNL     1       2.524   0.258  22.790  0.00  0.00    +0.041 A 
ENDBRANCH  15  19
ENDBRANCH   8  13
BRANCH   5  11
ATOM     11  C   UNL     1      -4.382   0.806  23.968  0.00  0.00    +0.120 C 
BRANCH  11  14
ATOM     14  C   UNL     1      -3.305  -0.158  24.390  0.00  0.00    -0.033 A 
ATOM     17  C   UNL     1      -2.545   0.102  25.531  0.00  0.00    +0.006 A 
ATOM     18  C   UNL     1      -3.066  -1.310  23.641  0.00  0.00    +0.006 A 
ATOM     20  C   UNL     1      -1.547  -0.790  25.922  0.00  0.00    +0.015 A 
ATOM     21  C   UNL     1      -2.069  -2.202  24.033  0.00  0.00    +0.015 A 
ATOM     22  C   UNL     1      -1.310  -1.942  25.174  0.00  0.00    +0.059 A 
BRANCH  22  27
ATOM      4  O   UNL     1      -0.365  -4.107  25.557  0.00  0.00    -0.245 OA
ATOM     27  C   UNL     1      -0.270  -2.874  25.582  0.00  0.00    +0.337 C 
BRANCH  27   3
ATOM      3  O   UNL     1       0.858  -2.244  26.008  0.00  0.00    -0.477 OA
ATOM     30  H   UNL     1       0.766  -1.267  25.974  0.00  0.00    +0.295 HD
ENDBRANCH  27   3
ENDBRANCH  22  27
ENDBRANCH  11  14
ENDBRANCH   5  11
TORSDOF 6
ENDMDL
