MODEL 1
REMARK VINA RESULT:       5.7      0.000      0.000
REMARK  Name = 25389028
REMARK  8 active torsions:
REMARK  status: ('A' for Active; 'I' for Inactive)
REMARK    1  A    between atoms: O_3  and  C_32
REMARK    2  A    between atoms: O_3  and  C_33
REMARK    3  A    between atoms: N_5  and  C_19
REMARK    4  A    between atoms: N_6  and  C_16
REMARK    5  A    between atoms: C_9  and  C_15
REMARK    6  A    between atoms: C_10  and  C_16
REMARK    7  A    between atoms: C_18  and  C_21
REMARK    8  A    between atoms: C_20  and  C_22
REMARK                            x       y       z     vdW  Elec       q    Type
REMARK                         _______ _______ _______ _____ _____    ______ ____
ROOT
ATOM      4  N   UNL     1      -4.119   2.687  25.561  0.00  0.00    -0.297 NA
ATOM      8  C   UNL     1      -3.974   1.080  23.517  0.00  0.00    +0.002 C 
ATOM      9  C   UNL     1      -3.124   0.535  24.699  0.00  0.00    +0.055 C 
ATOM     10  C   UNL     1      -3.786   3.456  24.332  0.00  0.00    +0.074 C 
ATOM     11  C   UNL     1      -3.493   2.501  23.156  0.00  0.00    +0.024 C 
ATOM     12  C   UNL     1      -5.423   1.209  24.033  0.00  0.00    +0.019 C 
ATOM     13  C   UNL     1      -3.097   1.637  25.796  0.00  0.00    +0.094 C 
ATOM     14  C   UNL     1      -5.425   2.020  25.340  0.00  0.00    +0.085 C 
ENDROOT
BRANCH   9  15
ATOM      5  N   UNL     1      -1.450  -1.345  24.372  0.00  0.00    -0.270 N 
ATOM      7  N   UNL     1      -0.167  -1.620  24.084  0.00  0.00    -0.171 NA
ATOM     15  C   UNL     1      -1.736  -0.011  24.394  0.00  0.00    +0.044 A 
ATOM     17  C   UNL     1      -0.558   0.631  24.099  0.00  0.00    +0.053 A 
ATOM     18  C   UNL     1       0.373  -0.410  23.917  0.00  0.00    +0.093 A 
ATOM     19  C   UNL     1      -2.366  -2.432  24.625  0.00  0.00    +0.172 C 
BRANCH  18  21
ATOM      1  F   UNL     1       5.768   0.136  22.652  0.00  0.00    -0.205 F 
ATOM     21  C   UNL     1       1.768  -0.269  23.590  0.00  0.00    +0.002 A 
ATOM     23  C   UNL     1       2.649  -1.326  23.819  0.00  0.00    +0.013 A 
ATOM     24  C   UNL     1       2.239   0.925  23.044  0.00  0.00    +0.013 A 
ATOM     27  C   UNL     1       4.000  -1.189  23.502  0.00  0.00    +0.039 A 
ATOM     28  C   UNL     1       3.590   1.061  22.727  0.00  0.00    +0.039 A 
ATOM     29  C   UNL     1       4.470   0.005  22.956  0.00  0.00    +0.123 A 
ENDBRANCH  18  21
ENDBRANCH   9  15
BRANCH  10  16
ATOM     16  C   UNL     1      -2.645   4.450  24.558  0.00  0.00    +0.123 C 
BRANCH  16   6
ATOM      2  O   UNL     1       0.020   3.391  24.407  0.00  0.00    -0.270 OA
ATOM      6  N   UNL     1      -1.824   4.044  25.657  0.00  0.00    -0.310 N 
ATOM     20  C   UNL     1      -0.535   3.538  25.493  0.00  0.00    +0.244 C 
ATOM     34  H   UNL     1      -2.245   4.080  26.578  0.00  0.00    +0.149 HD
BRANCH  20  22
ATOM     22  C   UNL     1       0.177   3.135  26.732  0.00  0.00    +0.037 A 
ATOM     25  C   UNL     1      -0.544   2.700  27.843  0.00  0.00    +0.016 A 
ATOM     26  C   UNL     1       1.570   3.194  26.786  0.00  0.00    +0.016 A 
ATOM     30  C   UNL     1       0.125   2.325  29.008  0.00  0.00    +0.046 A 
ATOM     31  C   UNL     1       2.240   2.818  27.949  0.00  0.00    +0.046 A 
ATOM     32  C   UNL     1       1.518   2.383  29.060  0.00  0.00    +0.120 A 
BRANCH  32   3
ATOM      3  O   UNL     1       2.172   2.016  30.196  0.00  0.00    -0.495 OA
ATOM     33  C   UNL     1       1.401   1.945  31.395  0.00  0.00    +0.277 C 
ENDBRANCH  32   3
ENDBRANCH  20  22
ENDBRANCH  16   6
ENDBRANCH  10  16
TORSDOF 6
ENDMDL
MODEL 2
REMARK VINA RESULT:       6.5      3.042      4.482
REMARK  Name = 25389028
REMARK  8 active torsions:
REMARK  status: ('A' for Active; 'I' for Inactive)
REMARK    1  A    between atoms: O_3  and  C_32
REMARK    2  A    between atoms: O_3  and  C_33
REMARK    3  A    between atoms: N_5  and  C_19
REMARK    4  A    between atoms: N_6  and  C_16
REMARK    5  A    between atoms: C_9  and  C_15
REMARK    6  A    between atoms: C_10  and  C_16
REMARK    7  A    between atoms: C_18  and  C_21
REMARK    8  A    between atoms: C_20  and  C_22
REMARK                            x       y       z     vdW  Elec       q    Type
REMARK                         _______ _______ _______ _____ _____    ______ ____
ROOT
ATOM      4  N   UNL     1      -4.232   4.594  24.358  0.00  0.00    -0.297 NA
ATOM      8  C   UNL     1      -1.819   4.688  25.334  0.00  0.00    +0.002 C 
ATOM      9  C   UNL     1      -1.799   4.122  23.887  0.00  0.00    +0.055 C 
ATOM     10  C   UNL     1      -4.203   3.962  25.703  0.00  0.00    +0.074 C 
ATOM     11  C   UNL     1      -2.751   3.822  26.207  0.00  0.00    +0.024 C 
ATOM     12  C   UNL     1      -2.452   6.094  25.252  0.00  0.00    +0.019 C 
ATOM     13  C   UNL     1      -3.277   3.908  23.452  0.00  0.00    +0.094 C 
ATOM     14  C   UNL     1      -3.795   6.003  24.509  0.00  0.00    +0.085 C 
ENDROOT
BRANCH   9  15
ATOM      5  N   UNL     1      -1.406   1.777  22.996  0.00  0.00    -0.270 N 
ATOM      7  N   UNL     1      -0.483   0.815  22.840  0.00  0.00    -0.171 NA
ATOM     15  C   UNL     1      -0.932   2.903  23.604  0.00  0.00    +0.044 A 
ATOM     17  C   UNL     1       0.395   2.659  23.863  0.00  0.00    +0.053 A 
ATOM     18  C   UNL     1       0.616   1.358  23.370  0.00  0.00    +0.093 A 
ATOM     19  C   UNL     1      -2.755   1.545  22.533  0.00  0.00    +0.172 C 
BRANCH  18  21
ATOM      1  F   UNL     1       5.409  -1.474  23.481  0.00  0.00    -0.205 F 
ATOM     21  C   UNL     1       1.855   0.626  23.399  0.00  0.00    +0.002 A 
ATOM     23  C   UNL     1       3.057   1.278  23.126  0.00  0.00    +0.013 A 
ATOM     24  C   UNL     1       1.853  -0.736  23.699  0.00  0.00    +0.013 A 
ATOM     27  C   UNL     1       4.258   0.569  23.155  0.00  0.00    +0.039 A 
ATOM     28  C   UNL     1       3.054  -1.445  23.727  0.00  0.00    +0.039 A 
ATOM     29  C   UNL     1       4.255  -0.793  23.455  0.00  0.00    +0.123 A 
ENDBRANCH  18  21
ENDBRANCH   9  15
BRANCH  10  16
ATOM     16  C   UNL     1      -4.949   2.626  25.735  0.00  0.00    +0.123 C 
BRANCH  16   6
ATOM      2  O   UNL     1      -5.478   0.072  24.535  0.00  0.00    -0.270 OA
ATOM      6  N   UNL     1      -4.038   1.529  25.624  0.00  0.00    -0.310 N 
ATOM     20  C   UNL     1      -4.378   0.318  25.023  0.00  0.00    +0.244 C 
ATOM     34  H   UNL     1      -3.131   1.644  26.062  0.00  0.00    +0.149 HD
BRANCH  20  22
ATOM     22  C   UNL     1      -3.328  -0.731  25.011  0.00  0.00    +0.037 A 
ATOM     25  C   UNL     1      -3.581  -1.965  24.413  0.00  0.00    +0.016 A 
ATOM     26  C   UNL     1      -2.088  -0.483  25.599  0.00  0.00    +0.016 A 
ATOM     30  C   UNL     1      -2.595  -2.952  24.404  0.00  0.00    +0.046 A 
ATOM     31  C   UNL     1      -1.101  -1.469  25.590  0.00  0.00    +0.046 A 
ATOM     32  C   UNL     1      -1.354  -2.703  24.993  0.00  0.00    +0.120 A 
BRANCH  32   3
ATOM      3  O   UNL     1      -0.392  -3.665  24.983  0.00  0.00    -0.495 OA
ATOM     33  C   UNL     1       0.828  -3.371  25.664  0.00  0.00    +0.277 C 
ENDBRANCH  32   3
ENDBRANCH  20  22
ENDBRANCH  16   6
ENDBRANCH  10  16
TORSDOF 6
ENDMDL
MODEL 3
REMARK VINA RESULT:       6.5      2.431      5.507
REMARK  Name = 25389028
REMARK  8 active torsions:
REMARK  status: ('A' for Active; 'I' for Inactive)
REMARK    1  A    between atoms: O_3  and  C_32
REMARK    2  A    between atoms: O_3  and  C_33
REMARK    3  A    between atoms: N_5  and  C_19
REMARK    4  A    between atoms: N_6  and  C_16
REMARK    5  A    between atoms: C_9  and  C_15
REMARK    6  A    between atoms: C_10  and  C_16
REMARK    7  A    between atoms: C_18  and  C_21
REMARK    8  A    between atoms: C_20  and  C_22
REMARK                            x       y       z     vdW  Elec       q    Type
REMARK                         _______ _______ _______ _____ _____    ______ ____
ROOT
ATOM      4  N   UNL     1      -4.461   1.909  23.488  0.00  0.00    -0.297 NA
ATOM      8  C   UNL     1      -4.378   3.207  25.744  0.00  0.00    +0.002 C 
ATOM      9  C   UNL     1      -3.084   3.461  24.922  0.00  0.00    +0.055 C 
ATOM     10  C   UNL     1      -4.794   0.995  24.612  0.00  0.00    +0.074 C 
ATOM     11  C   UNL     1      -4.548   1.689  25.968  0.00  0.00    +0.024 C 
ATOM     12  C   UNL     1      -5.560   3.671  24.867  0.00  0.00    +0.019 C 
ATOM     13  C   UNL     1      -3.118   2.504  23.696  0.00  0.00    +0.094 C 
ATOM     14  C   UNL     1      -5.458   3.007  23.484  0.00  0.00    +0.085 C 
ENDROOT
BRANCH   9  15
ATOM      5  N   UNL     1      -0.611   3.984  25.155  0.00  0.00    -0.270 N 
ATOM      7  N   UNL     1       0.462   3.835  25.950  0.00  0.00    -0.171 NA
ATOM     15  C   UNL     1      -1.749   3.418  25.651  0.00  0.00    +0.044 A 
ATOM     17  C   UNL     1      -1.395   2.861  26.856  0.00  0.00    +0.053 A 
ATOM     18  C   UNL     1      -0.023   3.149  26.988  0.00  0.00    +0.093 A 
ATOM     19  C   UNL     1      -0.469   4.692  23.903  0.00  0.00    +0.172 C 
BRANCH  18  21
ATOM      1  F   UNL     1       3.286   1.718  31.232  0.00  0.00    -0.205 F 
ATOM     21  C   UNL     1       0.832   2.779  28.085  0.00  0.00    +0.002 A 
ATOM     23  C   UNL     1       0.276   2.412  29.311  0.00  0.00    +0.013 A 
ATOM     24  C   UNL     1       2.218   2.787  27.924  0.00  0.00    +0.013 A 
ATOM     27  C   UNL     1       1.105   2.054  30.374  0.00  0.00    +0.039 A 
ATOM     28  C   UNL     1       3.046   2.429  28.986  0.00  0.00    +0.039 A 
ATOM     29  C   UNL     1       2.490   2.063  30.211  0.00  0.00    +0.123 A 
ENDBRANCH  18  21
ENDBRANCH   9  15
BRANCH  10  16
ATOM     16  C   UNL     1      -4.055  -0.342  24.514  0.00  0.00    +0.123 C 
BRANCH  16   6
ATOM      2  O   UNL     1      -1.579  -0.565  25.951  0.00  0.00    -0.270 OA
ATOM      6  N   UNL     1      -2.740  -0.161  23.982  0.00  0.00    -0.310 N 
ATOM     20  C   UNL     1      -1.586  -0.288  24.754  0.00  0.00    +0.244 C 
ATOM     34  H   UNL     1      -2.676   0.131  23.014  0.00  0.00    +0.149 HD
BRANCH  20  22
ATOM     22  C   UNL     1      -0.297  -0.042  24.060  0.00  0.00    +0.037 A 
ATOM     25  C   UNL     1       0.171  -0.953  23.113  0.00  0.00    +0.016 A 
ATOM     26  C   UNL     1       0.448   1.099  24.356  0.00  0.00    +0.016 A 
ATOM     30  C   UNL     1       1.383  -0.723  22.462  0.00  0.00    +0.046 A 
ATOM     31  C   UNL     1       1.660   1.330  23.705  0.00  0.00    +0.046 A 
ATOM     32  C   UNL     1       2.127   0.419  22.758  0.00  0.00    +0.120 A 
BRANCH  32   3
ATOM      3  O   UNL     1       3.310   0.644  22.123  0.00  0.00    -0.495 OA
ATOM     33  C   UNL     1       4.502   0.456  22.884  0.00  0.00    +0.277 C 
ENDBRANCH  32   3
ENDBRANCH  20  22
ENDBRANCH  16   6
ENDBRANCH  10  16
TORSDOF 6
ENDMDL
MODEL 4
REMARK VINA RESULT:       6.7      3.158      4.786
REMARK  Name = 25389028
REMARK  8 active torsions:
REMARK  status: ('A' for Active; 'I' for Inactive)
REMARK    1  A    between atoms: O_3  and  C_32
REMARK    2  A    between atoms: O_3  and  C_33
REMARK    3  A    between atoms: N_5  and  C_19
REMARK    4  A    between atoms: N_6  and  C_16
REMARK    5  A    between atoms: C_9  and  C_15
REMARK    6  A    between atoms: C_10  and  C_16
REMARK    7  A    between atoms: C_18  and  C_21
REMARK    8  A    between atoms: C_20  and  C_22
REMARK                            x       y       z     vdW  Elec       q    Type
REMARK                         _______ _______ _______ _____ _____    ______ ____
ROOT
ATOM      4  N   UNL     1      -6.011   3.491  24.547  0.00  0.00    -0.297 NA
ATOM      8  C   UNL     1      -4.149   4.115  26.258  0.00  0.00    +0.002 C 
ATOM      9  C   UNL     1      -3.624   4.266  24.803  0.00  0.00    +0.055 C 
ATOM     10  C   UNL     1      -5.885   2.422  25.574  0.00  0.00    +0.074 C 
ATOM     11  C   UNL     1      -4.654   2.672  26.471  0.00  0.00    +0.024 C 
ATOM     12  C   UNL     1      -5.372   5.047  26.388  0.00  0.00    +0.019 C 
ATOM     13  C   UNL     1      -4.713   3.687  23.855  0.00  0.00    +0.094 C 
ATOM     14  C   UNL     1      -6.358   4.752  25.245  0.00  0.00    +0.085 C 
ENDROOT
BRANCH   9  15
ATOM      5  N   UNL     1      -1.100   4.474  24.627  0.00  0.00    -0.270 N 
ATOM      7  N   UNL     1       0.023   3.820  24.289  0.00  0.00    -0.171 NA
ATOM     15  C   UNL     1      -2.235   3.731  24.482  0.00  0.00    +0.044 A 
ATOM     17  C   UNL     1      -1.825   2.506  24.016  0.00  0.00    +0.053 A 
ATOM     18  C   UNL     1      -0.424   2.618  23.917  0.00  0.00    +0.093 A 
ATOM     19  C   UNL     1      -1.011   5.840  25.089  0.00  0.00    +0.172 C 
BRANCH  18  21
ATOM      1  F   UNL     1       3.119  -1.318  22.197  0.00  0.00    -0.205 F 
ATOM     21  C   UNL     1       0.491   1.601  23.472  0.00  0.00    +0.002 A 
ATOM     23  C   UNL     1       0.004   0.415  22.922  0.00  0.00    +0.013 A 
ATOM     24  C   UNL     1       1.867   1.800  23.592  0.00  0.00    +0.013 A 
ATOM     27  C   UNL     1       0.891  -0.570  22.491  0.00  0.00    +0.039 A 
ATOM     28  C   UNL     1       2.754   0.814  23.161  0.00  0.00    +0.039 A 
ATOM     29  C   UNL     1       2.267  -0.371  22.611  0.00  0.00    +0.123 A 
ENDBRANCH  18  21
ENDBRANCH   9  15
BRANCH  10  16
ATOM     16  C   UNL     1      -5.866   1.022  24.958  0.00  0.00    +0.123 C 
BRANCH  16   6
ATOM      2  O   UNL     1      -4.952  -1.414  23.743  0.00  0.00    -0.270 OA
ATOM      6  N   UNL     1      -4.596   0.395  25.153  0.00  0.00    -0.310 N 
ATOM     20  C   UNL     1      -4.232  -0.793  24.520  0.00  0.00    +0.244 C 
ATOM     34  H   UNL     1      -3.975   0.823  25.830  0.00  0.00    +0.149 HD
BRANCH  20  22
ATOM     22  C   UNL     1      -2.887  -1.330  24.849  0.00  0.00    +0.037 A 
ATOM     25  C   UNL     1      -2.055  -0.639  25.730  0.00  0.00    +0.016 A 
ATOM     26  C   UNL     1      -2.454  -2.525  24.274  0.00  0.00    +0.016 A 
ATOM     30  C   UNL     1      -0.791  -1.143  26.036  0.00  0.00    +0.046 A 
ATOM     31  C   UNL     1      -1.190  -3.029  24.580  0.00  0.00    +0.046 A 
ATOM     32  C   UNL     1      -0.359  -2.338  25.461  0.00  0.00    +0.120 A 
BRANCH  32   3
ATOM      3  O   UNL     1       0.874  -2.830  25.761  0.00  0.00    -0.495 OA
ATOM     33  C   UNL     1       1.967  -2.376  24.962  0.00  0.00    +0.277 C 
ENDBRANCH  32   3
ENDBRANCH  20  22
ENDBRANCH  16   6
ENDBRANCH  10  16
TORSDOF 6
ENDMDL
MODEL 5
REMARK VINA RESULT:       7.2      1.518      2.146
REMARK  Name = 25389028
REMARK  8 active torsions:
REMARK  status: ('A' for Active; 'I' for Inactive)
REMARK    1  A    between atoms: O_3  and  C_32
REMARK    2  A    between atoms: O_3  and  C_33
REMARK    3  A    between atoms: N_5  and  C_19
REMARK    4  A    between atoms: N_6  and  C_16
REMARK    5  A    between atoms: C_9  and  C_15
REMARK    6  A    between atoms: C_10  and  C_16
REMARK    7  A    between atoms: C_18  and  C_21
REMARK    8  A    between atoms: C_20  and  C_22
REMARK                            x       y       z     vdW  Elec       q    Type
REMARK                         _______ _______ _______ _____ _____    ______ ____
ROOT
ATOM      4  N   UNL     1      -4.121  -0.507  25.565  0.00  0.00    -0.297 NA
ATOM      8  C   UNL     1      -3.261  -1.140  23.190  0.00  0.00    +0.002 C 
ATOM      9  C   UNL     1      -2.105  -1.216  24.225  0.00  0.00    +0.055 C 
ATOM     10  C   UNL     1      -4.545   0.523  24.580  0.00  0.00    +0.074 C 
ATOM     11  C   UNL     1      -3.874   0.276  23.212  0.00  0.00    +0.024 C 
ATOM     12  C   UNL     1      -4.356  -2.115  23.674  0.00  0.00    +0.019 C 
ATOM     13  C   UNL     1      -2.642  -0.634  25.564  0.00  0.00    +0.094 C 
ATOM     14  C   UNL     1      -4.698  -1.805  25.141  0.00  0.00    +0.085 C 
ENDROOT
BRANCH   9  15
ATOM      5  N   UNL     1      -0.624   0.569  23.194  0.00  0.00    -0.270 N 
ATOM      7  N   UNL     1       0.650   0.912  22.943  0.00  0.00    -0.171 NA
ATOM     15  C   UNL     1      -0.756  -0.626  23.840  0.00  0.00    +0.044 A 
ATOM     17  C   UNL     1       0.521  -1.096  24.023  0.00  0.00    +0.053 A 
ATOM     18  C   UNL     1       1.346  -0.108  23.452  0.00  0.00    +0.093 A 
ATOM     19  C   UNL     1      -1.689   1.451  22.776  0.00  0.00    +0.172 C 
BRANCH  18  21
ATOM      1  F   UNL     1       6.908  -0.161  23.180  0.00  0.00    -0.205 F 
ATOM     21  C   UNL     1       2.784  -0.122  23.382  0.00  0.00    +0.002 A 
ATOM     23  C   UNL     1       3.494  -1.234  23.832  0.00  0.00    +0.013 A 
ATOM     24  C   UNL     1       3.468   0.978  22.862  0.00  0.00    +0.013 A 
ATOM     27  C   UNL     1       4.887  -1.248  23.764  0.00  0.00    +0.039 A 
ATOM     28  C   UNL     1       4.860   0.964  22.794  0.00  0.00    +0.039 A 
ATOM     29  C   UNL     1       5.570  -0.148  23.245  0.00  0.00    +0.123 A 
ENDBRANCH  18  21
ENDBRANCH   9  15
BRANCH  10  16
ATOM     16  C   UNL     1      -4.303   1.947  25.085  0.00  0.00    +0.123 C 
BRANCH  16   6
ATOM      2  O   UNL     1      -2.171   3.836  24.720  0.00  0.00    -0.270 OA
ATOM      6  N   UNL     1      -3.089   2.022  25.839  0.00  0.00    -0.310 N 
ATOM     20  C   UNL     1      -2.102   2.976  25.593  0.00  0.00    +0.244 C 
ATOM     34  H   UNL     1      -2.941   1.302  26.536  0.00  0.00    +0.149 HD
BRANCH  20  22
ATOM     22  C   UNL     1      -0.889   2.904  26.446  0.00  0.00    +0.037 A 
ATOM     25  C   UNL     1      -1.014   2.787  27.830  0.00  0.00    +0.016 A 
ATOM     26  C   UNL     1       0.377   2.955  25.863  0.00  0.00    +0.016 A 
ATOM     30  C   UNL     1       0.126   2.722  28.631  0.00  0.00    +0.046 A 
ATOM     31  C   UNL     1       1.517   2.889  26.663  0.00  0.00    +0.046 A 
ATOM     32  C   UNL     1       1.392   2.772  28.047  0.00  0.00    +0.120 A 
BRANCH  32   3
ATOM      3  O   UNL     1       2.505   2.708  28.828  0.00  0.00    -0.495 OA
ATOM     33  C   UNL     1       2.404   1.964  30.042  0.00  0.00    +0.277 C 
ENDBRANCH  32   3
ENDBRANCH  20  22
ENDBRANCH  16   6
ENDBRANCH  10  16
TORSDOF 6
ENDMDL
MODEL 6
REMARK VINA RESULT:       8.2      3.751      6.475
REMARK  Name = 25389028
REMARK  8 active torsions:
REMARK  status: ('A' for Active; 'I' for Inactive)
REMARK    1  A    between atoms: O_3  and  C_32
REMARK    2  A    between atoms: O_3  and  C_33
REMARK    3  A    between atoms: N_5  and  C_19
REMARK    4  A    between atoms: N_6  and  C_16
REMARK    5  A    between atoms: C_9  and  C_15
REMARK    6  A    between atoms: C_10  and  C_16
REMARK    7  A    between atoms: C_18  and  C_21
REMARK    8  A    between atoms: C_20  and  C_22
REMARK                            x       y       z     vdW  Elec       q    Type
REMARK                         _______ _______ _______ _____ _____    ______ ____
ROOT
ATOM      4  N   UNL     1      -3.270  -2.934  25.628  0.00  0.00    -0.297 NA
ATOM      8  C   UNL     1      -0.818  -2.423  24.915  0.00  0.00    +0.002 C 
ATOM      9  C   UNL     1      -1.388  -1.261  25.775  0.00  0.00    +0.055 C 
ATOM     10  C   UNL     1      -3.112  -3.141  24.164  0.00  0.00    +0.074 C 
ATOM     11  C   UNL     1      -1.730  -2.646  23.690  0.00  0.00    +0.024 C 
ATOM     12  C   UNL     1      -0.901  -3.698  25.781  0.00  0.00    +0.019 C 
ATOM     13  C   UNL     1      -2.903  -1.542  25.988  0.00  0.00    +0.094 C 
ATOM     14  C   UNL     1      -2.333  -3.853  26.319  0.00  0.00    +0.085 C 
ENDROOT
BRANCH   9  15
ATOM      5  N   UNL     1      -0.227   0.482  24.339  0.00  0.00    -0.270 N 
ATOM      7  N   UNL     1      -0.141   1.797  24.084  0.00  0.00    -0.171 NA
ATOM     15  C   UNL     1      -1.125   0.167  25.317  0.00  0.00    +0.044 A 
ATOM     17  C   UNL     1      -1.664   1.361  25.730  0.00  0.00    +0.053 A 
ATOM     18  C   UNL     1      -1.021   2.331  24.935  0.00  0.00    +0.093 A 
ATOM     19  C   UNL     1       0.602  -0.438  23.595  0.00  0.00    +0.172 C 
BRANCH  18  21
ATOM      1  F   UNL     1      -1.832   7.837  25.093  0.00  0.00    -0.205 F 
ATOM     21  C   UNL     1      -1.231   3.754  24.976  0.00  0.00    +0.002 A 
ATOM     23  C   UNL     1      -2.252   4.287  25.763  0.00  0.00    +0.013 A 
ATOM     24  C   UNL     1      -0.413   4.602  24.229  0.00  0.00    +0.013 A 
ATOM     27  C   UNL     1      -2.455   5.666  25.803  0.00  0.00    +0.039 A 
ATOM     28  C   UNL     1      -0.616   5.980  24.269  0.00  0.00    +0.039 A 
ATOM     29  C   UNL     1      -1.637   6.513  25.055  0.00  0.00    +0.123 A 
ENDBRANCH  18  21
ENDBRANCH   9  15
BRANCH  10  16
ATOM     16  C   UNL     1      -4.250  -2.507  23.361  0.00  0.00    +0.123 C 
BRANCH  16   6
ATOM      2  O   UNL     1      -3.277   0.083  22.593  0.00  0.00    -0.270 OA
ATOM      6  N   UNL     1      -4.634  -1.250  23.923  0.00  0.00    -0.310 N 
ATOM     20  C   UNL     1      -4.109  -0.033  23.489  0.00  0.00    +0.244 C 
ATOM     34  H   UNL     1      -5.272  -1.278  24.711  0.00  0.00    +0.149 HD
BRANCH  20  22
ATOM     22  C   UNL     1      -4.590   1.182  24.194  0.00  0.00    +0.037 A 
ATOM     25  C   UNL     1      -4.320   2.446  23.670  0.00  0.00    +0.016 A 
ATOM     26  C   UNL     1      -5.311   1.060  25.382  0.00  0.00    +0.016 A 
ATOM     30  C   UNL     1      -4.769   3.588  24.334  0.00  0.00    +0.046 A 
ATOM     31  C   UNL     1      -5.761   2.201  26.046  0.00  0.00    +0.046 A 
ATOM     32  C   UNL     1      -5.491   3.464  25.522  0.00  0.00    +0.120 A 
BRANCH  32   3
ATOM      3  O   UNL     1      -5.930   4.578  26.169  0.00  0.00    -0.495 OA
ATOM     33  C   UNL     1      -6.445   5.638  25.363  0.00  0.00    +0.277 C 
ENDBRANCH  32   3
ENDBRANCH  20  22
ENDBRANCH  16   6
ENDBRANCH  10  16
TORSDOF 6
ENDMDL
MODEL 7
REMARK VINA RESULT:       8.8      2.828      3.945
REMARK  Name = 25389028
REMARK  8 active torsions:
REMARK  status: ('A' for Active; 'I' for Inactive)
REMARK    1  A    between atoms: O_3  and  C_32
REMARK    2  A    between atoms: O_3  and  C_33
REMARK    3  A    between atoms: N_5  and  C_19
REMARK    4  A    between atoms: N_6  and  C_16
REMARK    5  A    between atoms: C_9  and  C_15
REMARK    6  A    between atoms: C_10  and  C_16
REMARK    7  A    between atoms: C_18  and  C_21
REMARK    8  A    between atoms: C_20  and  C_22
REMARK                            x       y       z     vdW  Elec       q    Type
REMARK                         _______ _______ _______ _____ _____    ______ ____
ROOT
ATOM      4  N   UNL     1      -3.831  -1.568  25.767  0.00  0.00    -0.297 NA
ATOM      8  C   UNL     1      -3.255  -1.443  23.230  0.00  0.00    +0.002 C 
ATOM      9  C   UNL     1      -1.985  -1.775  24.061  0.00  0.00    +0.055 C 
ATOM     10  C   UNL     1      -4.371  -0.311  25.184  0.00  0.00    +0.074 C 
ATOM     11  C   UNL     1      -3.866  -0.119  23.739  0.00  0.00    +0.024 C 
ATOM     12  C   UNL     1      -4.282  -2.558  23.523  0.00  0.00    +0.019 C 
ATOM     13  C   UNL     1      -2.362  -1.633  25.563  0.00  0.00    +0.094 C 
ATOM     14  C   UNL     1      -4.449  -2.706  25.045  0.00  0.00    +0.085 C 
ENDROOT
BRANCH   9  15
ATOM      5  N   UNL     1      -0.665   0.167  23.096  0.00  0.00    -0.270 N 
ATOM      7  N   UNL     1       0.574   0.640  22.882  0.00  0.00    -0.171 NA
ATOM     15  C   UNL     1      -0.692  -1.047  23.719  0.00  0.00    +0.044 A 
ATOM     17  C   UNL     1       0.621  -1.392  23.926  0.00  0.00    +0.053 A 
ATOM     18  C   UNL     1       1.356  -0.316  23.392  0.00  0.00    +0.093 A 
ATOM     19  C   UNL     1      -1.802   0.947  22.665  0.00  0.00    +0.172 C 
BRANCH  18  21
ATOM      1  F   UNL     1       6.900   0.188  23.260  0.00  0.00    -0.205 F 
ATOM     21  C   UNL     1       2.789  -0.186  23.358  0.00  0.00    +0.002 A 
ATOM     23  C   UNL     1       3.596  -1.225  23.820  0.00  0.00    +0.013 A 
ATOM     24  C   UNL     1       3.372   0.981  22.863  0.00  0.00    +0.013 A 
ATOM     27  C   UNL     1       4.984  -1.099  23.787  0.00  0.00    +0.039 A 
ATOM     28  C   UNL     1       4.760   1.107  22.829  0.00  0.00    +0.039 A 
ATOM     29  C   UNL     1       5.566   0.067  23.291  0.00  0.00    +0.123 A 
ENDBRANCH  18  21
ENDBRANCH   9  15
BRANCH  10  16
ATOM     16  C   UNL     1      -4.076   0.910  26.058  0.00  0.00    +0.123 C 
BRANCH  16   6
ATOM      2  O   UNL     1      -3.601   3.687  26.615  0.00  0.00    -0.270 OA
ATOM      6  N   UNL     1      -3.088   1.746  25.450  0.00  0.00    -0.310 N 
ATOM     20  C   UNL     1      -2.924   3.091  25.781  0.00  0.00    +0.244 C 
ATOM     34  H   UNL     1      -2.535   1.333  24.707  0.00  0.00    +0.149 HD
BRANCH  20  22
ATOM     22  C   UNL     1      -1.871   3.829  25.039  0.00  0.00    +0.037 A 
ATOM     25  C   UNL     1      -1.897   5.223  24.992  0.00  0.00    +0.016 A 
ATOM     26  C   UNL     1      -0.855   3.130  24.388  0.00  0.00    +0.016 A 
ATOM     30  C   UNL     1      -0.909   5.917  24.294  0.00  0.00    +0.046 A 
ATOM     31  C   UNL     1       0.133   3.822  23.690  0.00  0.00    +0.046 A 
ATOM     32  C   UNL     1       0.107   5.216  23.643  0.00  0.00    +0.120 A 
BRANCH  32   3
ATOM      3  O   UNL     1       1.071   5.893  22.962  0.00  0.00    -0.495 OA
ATOM     33  C   UNL     1       1.062   5.781  21.539  0.00  0.00    +0.277 C 
ENDBRANCH  32   3
ENDBRANCH  20  22
ENDBRANCH  16   6
ENDBRANCH  10  16
TORSDOF 6
ENDMDL
MODEL 8
REMARK VINA RESULT:       9.6      3.378      5.997
REMARK  Name = 25389028
REMARK  8 active torsions:
REMARK  status: ('A' for Active; 'I' for Inactive)
REMARK    1  A    between atoms: O_3  and  C_32
REMARK    2  A    between atoms: O_3  and  C_33
REMARK    3  A    between atoms: N_5  and  C_19
REMARK    4  A    between atoms: N_6  and  C_16
REMARK    5  A    between atoms: C_9  and  C_15
REMARK    6  A    between atoms: C_10  and  C_16
REMARK    7  A    between atoms: C_18  and  C_21
REMARK    8  A    between atoms: C_20  and  C_22
REMARK                            x       y       z     vdW  Elec       q    Type
REMARK                         _______ _______ _______ _____ _____    ______ ____
ROOT
ATOM      4  N   UNL     1      -1.748   5.899  25.402  0.00  0.00    -0.297 NA
ATOM      8  C   UNL     1      -3.078   4.886  23.405  0.00  0.00    +0.002 C 
ATOM      9  C   UNL     1      -3.718   4.462  24.756  0.00  0.00    +0.055 C 
ATOM     10  C   UNL     1      -0.815   5.228  24.458  0.00  0.00    +0.074 C 
ATOM     11  C   UNL     1      -1.598   4.447  23.382  0.00  0.00    +0.024 C 
ATOM     12  C   UNL     1      -3.093   6.430  23.370  0.00  0.00    +0.019 C 
ATOM     13  C   UNL     1      -2.762   4.931  25.890  0.00  0.00    +0.094 C 
ATOM     14  C   UNL     1      -2.453   6.972  24.659  0.00  0.00    +0.085 C 
ENDROOT
BRANCH   9  15
ATOM      5  N   UNL     1      -5.319   2.645  25.515  0.00  0.00    -0.270 N 
ATOM      7  N   UNL     1      -5.509   1.316  25.568  0.00  0.00    -0.171 NA
ATOM     15  C   UNL     1      -4.145   3.011  24.924  0.00  0.00    +0.044 A 
ATOM     17  C   UNL     1      -3.525   1.839  24.565  0.00  0.00    +0.053 A 
ATOM     18  C   UNL     1      -4.411   0.829  24.985  0.00  0.00    +0.093 A 
ATOM     19  C   UNL     1      -6.324   3.525  26.066  0.00  0.00    +0.172 C 
BRANCH  18  21
ATOM      1  F   UNL     1      -3.696  -4.666  24.433  0.00  0.00    -0.205 F 
ATOM     21  C   UNL     1      -4.226  -0.592  24.842  0.00  0.00    +0.002 A 
ATOM     23  C   UNL     1      -4.463  -1.207  23.613  0.00  0.00    +0.013 A 
ATOM     24  C   UNL     1      -3.810  -1.354  25.934  0.00  0.00    +0.013 A 
ATOM     27  C   UNL     1      -4.284  -2.582  23.475  0.00  0.00    +0.039 A 
ATOM     28  C   UNL     1      -3.630  -2.730  25.795  0.00  0.00    +0.039 A 
ATOM     29  C   UNL     1      -3.867  -3.344  24.567  0.00  0.00    +0.123 A 
ENDBRANCH  18  21
ENDBRANCH   9  15
BRANCH  10  16
ATOM     16  C   UNL     1       0.204   4.342  25.178  0.00  0.00    +0.123 C 
BRANCH  16   6
ATOM      2  O   UNL     1      -0.214   2.204  27.049  0.00  0.00    -0.270 OA
ATOM      6  N   UNL     1      -0.008   2.963  24.865  0.00  0.00    -0.310 N 
ATOM     20  C   UNL     1      -0.204   1.986  25.840  0.00  0.00    +0.244 C 
ATOM     34  H   UNL     1       0.050   2.703  23.887  0.00  0.00    +0.149 HD
BRANCH  20  22
ATOM     22  C   UNL     1      -0.384   0.595  25.353  0.00  0.00    +0.037 A 
ATOM     25  C   UNL     1      -0.370   0.326  23.985  0.00  0.00    +0.016 A 
ATOM     26  C   UNL     1      -0.567  -0.445  26.265  0.00  0.00    +0.016 A 
ATOM     30  C   UNL     1      -0.542  -0.981  23.527  0.00  0.00    +0.046 A 
ATOM     31  C   UNL     1      -0.738  -1.752  25.809  0.00  0.00    +0.046 A 
ATOM     32  C   UNL     1      -0.725  -2.020  24.440  0.00  0.00    +0.120 A 
BRANCH  32   3
ATOM      3  O   UNL     1      -0.891  -3.295  23.995  0.00  0.00    -0.495 OA
ATOM     33  C   UNL     1      -0.958  -3.486  22.582  0.00  0.00    +0.277 C 
ENDBRANCH  32   3
ENDBRANCH  20  22
ENDBRANCH  16   6
ENDBRANCH  10  16
TORSDOF 6
ENDMDL
