MODEL 1
REMARK VINA RESULT:      11.3      0.000      0.000
REMARK  Name = 11866251
REMARK  9 active torsions:
REMARK  status: ('A' for Active; 'I' for Inactive)
REMARK    1  A    between atoms: S_2  and  N_10
REMARK    2  A    between atoms: S_2  and  C_27
REMARK    3  A    between atoms: O_7  and  C_28
REMARK    4  A    between atoms: O_7  and  C_33
REMARK    5  A    between atoms: O_8  and  C_30
REMARK    6  A    between atoms: O_8  and  C_34
REMARK    7  A    between atoms: C_12  and  C_20
REMARK    8  A    between atoms: C_17  and  C_24
REMARK    9  A    between atoms: C_19  and  C_25
REMARK                            x       y       z     vdW  Elec       q    Type
REMARK                         _______ _______ _______ _____ _____    ______ ____
ROOT
ATOM      1  S   UNL     1      -3.498  -0.892  26.125  0.00  0.00    -0.056 S 
ATOM      3  O   UNL     1       2.176   1.347  22.886  0.00  0.00    -0.461 OA
ATOM      4  O   UNL     1       4.178   2.165  22.102  0.00  0.00    -0.251 OA
ATOM      9  N   UNL     1      -3.171   1.005  24.399  0.00  0.00    -0.228 NA
ATOM     10  N   UNL     1      -5.407   0.962  25.336  0.00  0.00    -0.194 N 
ATOM     11  C   UNL     1       0.504  -0.048  24.154  0.00  0.00    +0.045 C 
ATOM     12  C   UNL     1       0.213  -1.576  24.489  0.00  0.00    -0.021 C 
ATOM     13  C   UNL     1       1.695   0.036  23.183  0.00  0.00    +0.184 C 
ATOM     14  C   UNL     1       2.920  -0.613  23.795  0.00  0.00    +0.044 C 
ATOM     15  C   UNL     1       1.517  -2.295  24.957  0.00  0.00    +0.008 C 
ATOM     16  C   UNL     1       2.712  -2.098  24.014  0.00  0.00    +0.008 C 
ATOM     17  C   UNL     1      -0.776   0.720  23.667  0.00  0.00    +0.043 C 
ATOM     18  C   UNL     1      -0.829  -1.654  25.647  0.00  0.00    +0.051 C 
ATOM     19  C   UNL     1       3.990  -0.167  22.818  0.00  0.00    +0.101 C 
ATOM     20  C   UNL     1      -0.346  -2.348  23.263  0.00  0.00    +0.012 C 
ATOM     21  C   UNL     1      -1.969   0.328  24.503  0.00  0.00    +0.057 A 
ATOM     22  C   UNL     1      -1.976  -0.742  25.376  0.00  0.00    +0.015 A 
ATOM     23  C   UNL     1       3.508   1.247  22.550  0.00  0.00    +0.311 C 
ATOM     24  C   UNL     1      -0.589   2.243  23.686  0.00  0.00    +0.014 C 
ATOM     25  C   UNL     1       5.390  -0.208  23.399  0.00  0.00    +0.019 C 
ATOM     26  C   UNL     1      -4.045   0.456  25.214  0.00  0.00    +0.178 A 
ATOM     35  H   UNL     1      -6.010   0.432  25.976  0.00  0.00    +0.176 HD
ENDROOT
BRANCH  10   2
ATOM      2  S   UNL     1      -5.577   2.677  25.309  0.00  0.00    +0.077 S 
ATOM      5  O   UNL     1      -6.169   3.121  26.555  0.00  0.00    -0.150 OA
ATOM      6  O   UNL     1      -6.137   3.097  24.038  0.00  0.00    -0.150 OA
BRANCH   2  27
ATOM     27  C   UNL     1      -3.881   3.183  25.311  0.00  0.00    +0.153 A 
ATOM     28  C   UNL     1      -3.362   3.881  24.233  0.00  0.00    +0.147 A 
ATOM     29  C   UNL     1      -3.100   2.864  26.410  0.00  0.00    +0.078 A 
ATOM     30  C   UNL     1      -1.761   3.255  26.429  0.00  0.00    +0.122 A 
ATOM     31  C   UNL     1      -2.023   4.270  24.253  0.00  0.00    +0.051 A 
ATOM     32  C   UNL     1      -1.223   3.957  25.352  0.00  0.00    +0.049 A 
BRANCH  28   7
ATOM      7  O   UNL     1      -4.126   4.196  23.150  0.00  0.00    -0.493 OA
ATOM     33  C   UNL     1      -3.847   3.501  21.936  0.00  0.00    +0.277 C 
ENDBRANCH  28   7
BRANCH  30   8
ATOM      8  O   UNL     1      -0.980   2.949  27.502  0.00  0.00    -0.495 OA
ATOM     34  C   UNL     1       0.295   2.367  27.231  0.00  0.00    +0.277 C 
ENDBRANCH  30   8
ENDBRANCH   2  27
ENDBRANCH  10   2
TORSDOF 4
ENDMDL
MODEL 2
REMARK VINA RESULT:      12.8      1.057      2.289
REMARK  Name = 11866251
REMARK  9 active torsions:
REMARK  status: ('A' for Active; 'I' for Inactive)
REMARK    1  A    between atoms: S_2  and  N_10
REMARK    2  A    between atoms: S_2  and  C_27
REMARK    3  A    between atoms: O_7  and  C_28
REMARK    4  A    between atoms: O_7  and  C_33
REMARK    5  A    between atoms: O_8  and  C_30
REMARK    6  A    between atoms: O_8  and  C_34
REMARK    7  A    between atoms: C_12  and  C_20
REMARK    8  A    between atoms: C_17  and  C_24
REMARK    9  A    between atoms: C_19  and  C_25
REMARK                            x       y       z     vdW  Elec       q    Type
REMARK                         _______ _______ _______ _____ _____    ______ ____
ROOT
ATOM      1  S   UNL     1      -3.606  -1.174  26.081  0.00  0.00    -0.056 S 
ATOM      3  O   UNL     1       2.083   1.533  23.250  0.00  0.00    -0.461 OA
ATOM      4  O   UNL     1       4.086   2.464  22.611  0.00  0.00    -0.251 OA
ATOM      9  N   UNL     1      -3.275   0.954  24.649  0.00  0.00    -0.228 NA
ATOM     10  N   UNL     1      -5.518   0.766  25.550  0.00  0.00    -0.194 N 
ATOM     11  C   UNL     1       0.408  -0.038  24.289  0.00  0.00    +0.045 C 
ATOM     12  C   UNL     1       0.122  -1.600  24.397  0.00  0.00    -0.021 C 
ATOM     13  C   UNL     1       1.606   0.191  23.351  0.00  0.00    +0.184 C 
ATOM     14  C   UNL     1       2.830  -0.535  23.874  0.00  0.00    +0.044 C 
ATOM     15  C   UNL     1       1.426  -2.373  24.767  0.00  0.00    +0.008 C 
ATOM     16  C   UNL     1       2.628  -2.037  23.874  0.00  0.00    +0.008 C 
ATOM     17  C   UNL     1      -0.872   0.787  23.906  0.00  0.00    +0.043 C 
ATOM     18  C   UNL     1      -0.929  -1.848  25.521  0.00  0.00    +0.051 C 
ATOM     19  C   UNL     1       3.906   0.052  22.980  0.00  0.00    +0.101 C 
ATOM     20  C   UNL     1      -0.422  -2.188  23.067  0.00  0.00    +0.012 C 
ATOM     21  C   UNL     1      -2.070   0.274  24.666  0.00  0.00    +0.057 A 
ATOM     22  C   UNL     1      -2.079  -0.912  25.374  0.00  0.00    +0.015 A 
ATOM     23  C   UNL     1       3.418   1.488  22.915  0.00  0.00    +0.311 C 
ATOM     24  C   UNL     1      -0.694   2.292  24.146  0.00  0.00    +0.014 C 
ATOM     25  C   UNL     1       5.301  -0.066  23.563  0.00  0.00    +0.019 C 
ATOM     26  C   UNL     1      -4.153   0.289  25.369  0.00  0.00    +0.178 A 
ATOM     35  H   UNL     1      -6.124   0.147  26.101  0.00  0.00    +0.176 HD
ENDROOT
BRANCH  10   2
ATOM      2  S   UNL     1      -5.697   2.467  25.769  0.00  0.00    +0.077 S 
ATOM      5  O   UNL     1      -5.377   2.811  27.140  0.00  0.00    -0.150 OA
ATOM      6  O   UNL     1      -6.941   2.912  25.170  0.00  0.00    -0.150 OA
BRANCH   2  27
ATOM     27  C   UNL     1      -4.389   3.077  24.744  0.00  0.00    +0.153 A 
ATOM     28  C   UNL     1      -3.414   3.902  25.279  0.00  0.00    +0.147 A 
ATOM     29  C   UNL     1      -4.372   2.708  23.409  0.00  0.00    +0.078 A 
ATOM     30  C   UNL     1      -3.350   3.180  22.586  0.00  0.00    +0.122 A 
ATOM     31  C   UNL     1      -2.393   4.374  24.455  0.00  0.00    +0.051 A 
ATOM     32  C   UNL     1      -2.361   4.012  23.109  0.00  0.00    +0.049 A 
BRANCH  28   7
ATOM      7  O   UNL     1      -3.427   4.268  26.592  0.00  0.00    -0.493 OA
ATOM     33  C   UNL     1      -2.304   3.885  27.383  0.00  0.00    +0.277 C 
ENDBRANCH  28   7
BRANCH  30   8
ATOM      8  O   UNL     1      -3.318   2.827  21.271  0.00  0.00    -0.495 OA
ATOM     34  C   UNL     1      -2.474   1.732  20.914  0.00  0.00    +0.277 C 
ENDBRANCH  30   8
ENDBRANCH   2  27
ENDBRANCH  10   2
TORSDOF 4
ENDMDL
