MODEL 1
REMARK VINA RESULT:      16.9      0.000      0.000
REMARK  Name = 11941677
REMARK  6 active torsions:
REMARK  status: ('A' for Active; 'I' for Inactive)
REMARK    1  A    between atoms: O_5  and  C_30
REMARK    2  A    between atoms: O_5  and  C_34
REMARK    3  A    between atoms: N_6  and  C_13
REMARK    4  A    between atoms: N_7  and  C_14
REMARK    5  A    between atoms: N_8  and  C_20
REMARK    6  A    between atoms: C_19  and  C_23
REMARK                            x       y       z     vdW  Elec       q    Type
REMARK                         _______ _______ _______ _____ _____    ______ ____
ROOT
ATOM      2  O   UNL     1      -6.591   2.985  24.315  0.00  0.00    -0.370 OA
ATOM      3  O   UNL     1      -5.323   2.373  27.098  0.00  0.00    -0.370 OA
ATOM     11  C   UNL     1      -4.845   3.058  25.929  0.00  0.00    +0.171 C 
ATOM     12  C   UNL     1      -5.385   2.317  24.721  0.00  0.00    +0.171 C 
ATOM     13  C   UNL     1      -5.470   4.429  25.831  0.00  0.00    +0.130 C 
ATOM     14  C   UNL     1      -5.702   0.936  25.249  0.00  0.00    +0.131 C 
ATOM     15  C   UNL     1      -6.789   4.144  25.137  0.00  0.00    +0.185 C 
ATOM     16  C   UNL     1      -6.072   1.217  26.695  0.00  0.00    +0.185 C 
ENDROOT
BRANCH  13   6
ATOM      6  N   UNL     1      -4.648   5.291  25.011  0.00  0.00    -0.306 N 
ATOM      9  N   UNL     1      -2.701   4.196  25.645  0.00  0.00    -0.214 NA
ATOM     10  N   UNL     1      -2.649   6.053  24.109  0.00  0.00    -0.223 NA
ATOM     17  C   UNL     1      -3.272   5.175  24.918  0.00  0.00    +0.216 A 
ATOM     19  C   UNL     1      -1.359   4.112  25.531  0.00  0.00    +0.076 A 
ATOM     21  C   UNL     1      -1.308   5.912  24.043  0.00  0.00    +0.116 A 
ATOM     22  C   UNL     1      -0.603   4.950  24.737  0.00  0.00    +0.048 A 
ATOM     40  H   UNL     1      -5.090   5.992  24.426  0.00  0.00    +0.149 HD
BRANCH  19  23
ATOM      1  F   UNL     1       1.892   2.647  28.783  0.00  0.00    -0.205 F 
ATOM     23  C   UNL     1      -0.742   3.064  26.308  0.00  0.00    +0.003 A 
ATOM     28  C   UNL     1       0.298   3.368  27.187  0.00  0.00    +0.048 A 
ATOM     29  C   UNL     1      -1.185   1.747  26.179  0.00  0.00    +0.010 A 
ATOM     31  C   UNL     1       0.894   2.355  27.938  0.00  0.00    +0.124 A 
ATOM     32  C   UNL     1      -0.588   0.735  26.930  0.00  0.00    +0.003 A 
ATOM     33  C   UNL     1       0.451   1.038  27.809  0.00  0.00    +0.038 A 
ENDBRANCH  19  23
ENDBRANCH  13   6
BRANCH  14   7
ATOM      4  O   UNL     1      -3.296   1.420  23.772  0.00  0.00    -0.252 OA
ATOM      7  N   UNL     1      -4.554   0.067  25.161  0.00  0.00    -0.292 N 
ATOM      8  N   UNL     1      -2.468  -0.646  24.517  0.00  0.00    -0.269 N 
ATOM     18  C   UNL     1      -3.412   0.380  24.415  0.00  0.00    +0.304 C 
ATOM     41  H   UNL     1      -4.546  -0.781  25.720  0.00  0.00    +0.151 HD
ATOM     42  H   UNL     1      -2.723  -1.445  25.092  0.00  0.00    +0.156 HD
BRANCH   8  20
ATOM     20  C   UNL     1      -1.189  -0.713  23.914  0.00  0.00    +0.035 A 
ATOM     24  C   UNL     1      -0.251  -1.636  24.372  0.00  0.00    +0.027 A 
ATOM     25  C   UNL     1      -0.869   0.146  22.863  0.00  0.00    +0.027 A 
ATOM     26  C   UNL     1       1.011  -1.702  23.778  0.00  0.00    +0.048 A 
ATOM     27  C   UNL     1       0.392   0.081  22.270  0.00  0.00    +0.048 A 
ATOM     30  C   UNL     1       1.331  -0.843  22.727  0.00  0.00    +0.129 A 
BRANCH  30   5
ATOM      5  O   UNL     1       2.561  -0.906  22.147  0.00  0.00    -0.456 OA
BRANCH   5  34
ATOM     34  C   UNL     1       3.644  -0.457  22.885  0.00  0.00    +0.128 A 
ATOM     35  C   UNL     1       4.016   0.886  22.830  0.00  0.00    +0.046 A 
ATOM     36  C   UNL     1       4.363  -1.348  23.681  0.00  0.00    +0.046 A 
ATOM     37  C   UNL     1       5.107   1.338  23.574  0.00  0.00    +0.004 A 
ATOM     38  C   UNL     1       5.453  -0.897  24.424  0.00  0.00    +0.004 A 
ATOM     39  C   UNL     1       5.826   0.447  24.370  0.00  0.00    +0.000 A 
ENDBRANCH   5  34
ENDBRANCH  30   5
ENDBRANCH   8  20
ENDBRANCH  14   7
TORSDOF 6
ENDMDL
MODEL 2
REMARK VINA RESULT:      18.4      2.509      4.389
REMARK  Name = 11941677
REMARK  6 active torsions:
REMARK  status: ('A' for Active; 'I' for Inactive)
REMARK    1  A    between atoms: O_5  and  C_30
REMARK    2  A    between atoms: O_5  and  C_34
REMARK    3  A    between atoms: N_6  and  C_13
REMARK    4  A    between atoms: N_7  and  C_14
REMARK    5  A    between atoms: N_8  and  C_20
REMARK    6  A    between atoms: C_19  and  C_23
REMARK                            x       y       z     vdW  Elec       q    Type
REMARK                         _______ _______ _______ _____ _____    ______ ____
ROOT
ATOM      2  O   UNL     1      -3.264   3.479  26.903  0.00  0.00    -0.370 OA
ATOM      3  O   UNL     1      -2.305   5.116  24.427  0.00  0.00    -0.370 OA
ATOM     11  C   UNL     1      -3.270   4.065  24.597  0.00  0.00    +0.171 C 
ATOM     12  C   UNL     1      -2.712   3.105  25.629  0.00  0.00    +0.171 C 
ATOM     13  C   UNL     1      -4.527   4.605  25.236  0.00  0.00    +0.130 C 
ATOM     14  C   UNL     1      -1.223   3.364  25.606  0.00  0.00    +0.131 C 
ATOM     15  C   UNL     1      -4.196   4.554  26.717  0.00  0.00    +0.185 C 
ATOM     16  C   UNL     1      -1.155   4.836  25.239  0.00  0.00    +0.185 C 
ENDROOT
BRANCH  13   6
ATOM      6  N   UNL     1      -5.645   3.737  24.942  0.00  0.00    -0.306 N 
ATOM      9  N   UNL     1      -4.301   1.843  24.961  0.00  0.00    -0.214 NA
ATOM     10  N   UNL     1      -6.669   1.693  24.534  0.00  0.00    -0.223 NA
ATOM     17  C   UNL     1      -5.534   2.364  24.807  0.00  0.00    +0.216 A 
ATOM     19  C   UNL     1      -4.228   0.504  24.821  0.00  0.00    +0.076 A 
ATOM     21  C   UNL     1      -6.523   0.357  24.408  0.00  0.00    +0.116 A 
ATOM     22  C   UNL     1      -5.317  -0.299  24.543  0.00  0.00    +0.048 A 
ATOM     40  H   UNL     1      -6.578   4.130  24.880  0.00  0.00    +0.149 HD
BRANCH  19  23
ATOM      1  F   UNL     1      -0.233  -1.464  22.962  0.00  0.00    -0.205 F 
ATOM     23  C   UNL     1      -2.910  -0.060  24.987  0.00  0.00    +0.003 A 
ATOM     28  C   UNL     1      -2.195  -0.499  23.872  0.00  0.00    +0.048 A 
ATOM     29  C   UNL     1      -2.352  -0.166  26.261  0.00  0.00    +0.010 A 
ATOM     31  C   UNL     1      -0.921  -1.044  24.032  0.00  0.00    +0.124 A 
ATOM     32  C   UNL     1      -1.077  -0.711  26.420  0.00  0.00    +0.003 A 
ATOM     33  C   UNL     1      -0.362  -1.149  25.306  0.00  0.00    +0.038 A 
ENDBRANCH  19  23
ENDBRANCH  13   6
BRANCH  14   7
ATOM      4  O   UNL     1       1.448   2.334  25.731  0.00  0.00    -0.252 OA
ATOM      7  N   UNL     1      -0.565   2.547  24.615  0.00  0.00    -0.292 N 
ATOM      8  N   UNL     1       1.114   1.318  23.642  0.00  0.00    -0.269 N 
ATOM     18  C   UNL     1       0.748   2.082  24.754  0.00  0.00    +0.304 C 
ATOM     41  H   UNL     1      -1.102   2.239  23.810  0.00  0.00    +0.151 HD
ATOM     42  H   UNL     1       0.412   1.207  22.914  0.00  0.00    +0.156 HD
BRANCH   8  20
ATOM     20  C   UNL     1       2.350   0.675  23.399  0.00  0.00    +0.035 A 
ATOM     24  C   UNL     1       2.529  -0.655  23.776  0.00  0.00    +0.027 A 
ATOM     25  C   UNL     1       3.389   1.373  22.783  0.00  0.00    +0.027 A 
ATOM     26  C   UNL     1       3.749  -1.290  23.537  0.00  0.00    +0.048 A 
ATOM     27  C   UNL     1       4.609   0.739  22.545  0.00  0.00    +0.048 A 
ATOM     30  C   UNL     1       4.788  -0.592  22.921  0.00  0.00    +0.129 A 
BRANCH  30   5
ATOM      5  O   UNL     1       5.978  -1.210  22.688  0.00  0.00    -0.456 OA
BRANCH   5  34
ATOM     34  C   UNL     1       7.135  -0.516  23.001  0.00  0.00    +0.128 A 
ATOM     35  C   UNL     1       8.369  -0.973  22.537  0.00  0.00    +0.046 A 
ATOM     36  C   UNL     1       7.067   0.638  23.781  0.00  0.00    +0.046 A 
ATOM     37  C   UNL     1       9.535  -0.273  22.853  0.00  0.00    +0.004 A 
ATOM     38  C   UNL     1       8.232   1.337  24.096  0.00  0.00    +0.004 A 
ATOM     39  C   UNL     1       9.466   0.882  23.632  0.00  0.00    +0.000 A 
ENDBRANCH   5  34
ENDBRANCH  30   5
ENDBRANCH   8  20
ENDBRANCH  14   7
TORSDOF 6
ENDMDL
