MODEL 1
REMARK VINA RESULT:       1.9      0.000      0.000
REMARK  Name = 26745389
REMARK  6 active torsions:
REMARK  status: ('A' for Active; 'I' for Inactive)
REMARK    1  A    between atoms: N_3  and  C_13
REMARK    2  A    between atoms: N_6  and  C_18
REMARK    3  A    between atoms: C_8  and  C_14
REMARK    4  A    between atoms: C_13  and  C_15
REMARK    5  A    between atoms: C_18  and  C_21
REMARK    6  A    between atoms: C_30  and  C_31
REMARK                            x       y       z     vdW  Elec       q    Type
REMARK                         _______ _______ _______ _____ _____    ______ ____
ROOT
ATOM      3  N   UNL     1      -1.637  -1.495  23.829  0.00  0.00    -0.278 NA
ATOM      4  N   UNL     1       1.091   0.526  22.285  0.00  0.00    -0.347 N 
ATOM      5  N   UNL     1       2.446  -0.762  23.514  0.00  0.00    -0.240 NA
ATOM      8  C   UNL     1      -0.873  -1.840  25.054  0.00  0.00    +0.150 C 
ATOM      9  C   UNL     1       0.649  -2.024  24.790  0.00  0.00    +0.085 C 
ATOM     10  C   UNL     1      -1.191  -0.259  23.145  0.00  0.00    +0.140 C 
ATOM     11  C   UNL     1       0.287  -0.247  23.065  0.00  0.00    +0.053 A 
ATOM     12  C   UNL     1       1.139  -1.024  23.812  0.00  0.00    +0.065 A 
ATOM     16  C   UNL     1       2.384   0.179  22.591  0.00  0.00    +0.197 A 
ATOM     32  H   UNL     1       0.799   1.223  21.613  0.00  0.00    +0.167 HD
ENDROOT
BRANCH   8  14
ATOM      2  O   UNL     1      -1.916  -0.955  27.015  0.00  0.00    -0.274 OA
ATOM      6  N   UNL     1      -0.298   0.318  25.929  0.00  0.00    -0.310 N 
ATOM     14  C   UNL     1      -1.095  -0.799  26.115  0.00  0.00    +0.231 C 
ATOM     33  H   UNL     1       0.364   0.343  25.158  0.00  0.00    +0.149 HD
BRANCH   6  18
ATOM     18  C   UNL     1      -0.337   1.471  26.799  0.00  0.00    +0.139 C 
BRANCH  18  21
ATOM     21  C   UNL     1      -0.801   2.704  26.079  0.00  0.00    -0.030 A 
ATOM     26  C   UNL     1      -1.858   3.455  26.594  0.00  0.00    +0.006 A 
ATOM     27  C   UNL     1      -0.176   3.098  24.897  0.00  0.00    +0.006 A 
ATOM     28  C   UNL     1      -2.290   4.600  25.926  0.00  0.00    +0.019 A 
ATOM     29  C   UNL     1      -0.607   4.244  24.228  0.00  0.00    +0.019 A 
ATOM     30  C   UNL     1      -1.664   4.995  24.743  0.00  0.00    +0.052 A 
BRANCH  30  31
ATOM      7  N   UNL     1      -2.466   7.121  23.500  0.00  0.00    -0.191 NA
ATOM     31  C   UNL     1      -2.107   6.168  24.058  0.00  0.00    +0.099 C 
ENDBRANCH  30  31
ENDBRANCH  18  21
ENDBRANCH   6  18
ENDBRANCH   8  14
BRANCH   3  13
ATOM     13  C   UNL     1      -3.083  -1.500  24.028  0.00  0.00    +0.160 C 
BRANCH  13  15
ATOM      1  O   UNL     1      -4.524   0.056  25.212  0.00  0.00    -0.458 OA
ATOM     15  C   UNL     1      -3.633  -0.114  24.201  0.00  0.00    +0.120 A 
ATOM     17  C   UNL     1      -3.424   1.070  23.531  0.00  0.00    +0.054 A 
ATOM     19  C   UNL     1      -4.241   2.040  24.170  0.00  0.00    +0.020 A 
ATOM     20  C   UNL     1      -4.896   1.367  25.195  0.00  0.00    +0.135 A 
ATOM     22  C   UNL     1      -4.497   3.411  23.995  0.00  0.00    +0.011 A 
ATOM     23  C   UNL     1      -5.801   1.966  26.071  0.00  0.00    +0.047 A 
ATOM     24  C   UNL     1      -5.402   4.041  24.859  0.00  0.00    +0.001 A 
ATOM     25  C   UNL     1      -6.041   3.330  25.879  0.00  0.00    +0.004 A 
ENDBRANCH  13  15
ENDBRANCH   3  13
TORSDOF 6
ENDMDL
MODEL 2
REMARK VINA RESULT:       2.2      1.993      5.677
REMARK  Name = 26745389
REMARK  6 active torsions:
REMARK  status: ('A' for Active; 'I' for Inactive)
REMARK    1  A    between atoms: N_3  and  C_13
REMARK    2  A    between atoms: N_6  and  C_18
REMARK    3  A    between atoms: C_8  and  C_14
REMARK    4  A    between atoms: C_13  and  C_15
REMARK    5  A    between atoms: C_18  and  C_21
REMARK    6  A    between atoms: C_30  and  C_31
REMARK                            x       y       z     vdW  Elec       q    Type
REMARK                         _______ _______ _______ _____ _____    ______ ____
ROOT
ATOM      3  N   UNL     1      -3.953   3.147  25.417  0.00  0.00    -0.278 NA
ATOM      4  N   UNL     1      -0.349   3.597  26.266  0.00  0.00    -0.347 N 
ATOM      5  N   UNL     1      -0.458   5.336  24.862  0.00  0.00    -0.240 NA
ATOM      8  C   UNL     1      -3.858   3.794  24.084  0.00  0.00    +0.150 C 
ATOM      9  C   UNL     1      -2.834   4.964  24.046  0.00  0.00    +0.085 C 
ATOM     10  C   UNL     1      -2.679   2.589  25.929  0.00  0.00    +0.140 C 
ATOM     11  C   UNL     1      -1.590   3.566  25.708  0.00  0.00    +0.053 A 
ATOM     12  C   UNL     1      -1.632   4.637  24.849  0.00  0.00    +0.065 A 
ATOM     16  C   UNL     1       0.296   4.683  25.726  0.00  0.00    +0.197 A 
ATOM     32  H   UNL     1       0.030   2.950  26.944  0.00  0.00    +0.167 HD
ENDROOT
BRANCH   8  14
ATOM      2  O   UNL     1      -4.167   2.676  21.993  0.00  0.00    -0.274 OA
ATOM      6  N   UNL     1      -2.448   1.978  23.399  0.00  0.00    -0.310 N 
ATOM     14  C   UNL     1      -3.522   2.772  23.034  0.00  0.00    +0.231 C 
ATOM     33  H   UNL     1      -1.970   2.150  24.280  0.00  0.00    +0.149 HD
BRANCH   6  18
ATOM     18  C   UNL     1      -1.940   0.906  22.574  0.00  0.00    +0.139 C 
BRANCH  18  21
ATOM     21  C   UNL     1      -0.455   0.742  22.717  0.00  0.00    -0.030 A 
ATOM     26  C   UNL     1       0.222  -0.193  21.934  0.00  0.00    +0.006 A 
ATOM     27  C   UNL     1       0.248   1.526  23.632  0.00  0.00    +0.006 A 
ATOM     28  C   UNL     1       1.602  -0.345  22.067  0.00  0.00    +0.019 A 
ATOM     29  C   UNL     1       1.629   1.374  23.765  0.00  0.00    +0.019 A 
ATOM     30  C   UNL     1       2.306   0.438  22.982  0.00  0.00    +0.052 A 
BRANCH  30  31
ATOM      7  N   UNL     1       4.868   0.154  23.228  0.00  0.00    -0.191 NA
ATOM     31  C   UNL     1       3.719   0.282  23.118  0.00  0.00    +0.099 C 
ENDBRANCH  30  31
ENDBRANCH  18  21
ENDBRANCH   6  18
ENDBRANCH   8  14
BRANCH   3  13
ATOM     13  C   UNL     1      -5.037   2.175  25.514  0.00  0.00    +0.160 C 
BRANCH  13  15
ATOM      1  O   UNL     1      -3.372   0.407  25.557  0.00  0.00    -0.458 OA
ATOM     15  C   UNL     1      -4.595   0.797  25.114  0.00  0.00    +0.120 A 
ATOM     17  C   UNL     1      -5.181  -0.197  24.364  0.00  0.00    +0.054 A 
ATOM     19  C   UNL     1      -4.259  -1.277  24.341  0.00  0.00    +0.020 A 
ATOM     20  C   UNL     1      -3.164  -0.856  25.089  0.00  0.00    +0.135 A 
ATOM     22  C   UNL     1      -4.230  -2.563  23.773  0.00  0.00    +0.011 A 
ATOM     23  C   UNL     1      -2.027  -1.631  25.315  0.00  0.00    +0.047 A 
ATOM     24  C   UNL     1      -3.100  -3.365  23.982  0.00  0.00    +0.001 A 
ATOM     25  C   UNL     1      -2.020  -2.905  24.740  0.00  0.00    +0.004 A 
ENDBRANCH  13  15
ENDBRANCH   3  13
TORSDOF 6
ENDMDL
MODEL 3
REMARK VINA RESULT:       2.4      2.447      5.935
REMARK  Name = 26745389
REMARK  6 active torsions:
REMARK  status: ('A' for Active; 'I' for Inactive)
REMARK    1  A    between atoms: N_3  and  C_13
REMARK    2  A    between atoms: N_6  and  C_18
REMARK    3  A    between atoms: C_8  and  C_14
REMARK    4  A    between atoms: C_13  and  C_15
REMARK    5  A    between atoms: C_18  and  C_21
REMARK    6  A    between atoms: C_30  and  C_31
REMARK                            x       y       z     vdW  Elec       q    Type
REMARK                         _______ _______ _______ _____ _____    ______ ____
ROOT
ATOM      3  N   UNL     1      -1.547  -0.800  26.036  0.00  0.00    -0.278 NA
ATOM      4  N   UNL     1      -4.940  -0.978  24.500  0.00  0.00    -0.347 N 
ATOM      5  N   UNL     1      -4.182  -2.863  23.564  0.00  0.00    -0.240 NA
ATOM      8  C   UNL     1      -0.875  -1.583  24.969  0.00  0.00    +0.150 C 
ATOM      9  C   UNL     1      -1.779  -2.699  24.371  0.00  0.00    +0.085 C 
ATOM     10  C   UNL     1      -2.799  -0.128  25.619  0.00  0.00    +0.140 C 
ATOM     11  C   UNL     1      -3.622  -1.069  24.828  0.00  0.00    +0.053 A 
ATOM     12  C   UNL     1      -3.179  -2.228  24.240  0.00  0.00    +0.065 A 
ATOM     16  C   UNL     1      -5.232  -2.083  23.739  0.00  0.00    +0.197 A 
ATOM     32  H   UNL     1      -5.583  -0.242  24.761  0.00  0.00    +0.167 HD
ENDROOT
BRANCH   8  14
ATOM      2  O   UNL     1      -1.162   0.017  23.216  0.00  0.00    -0.274 OA
ATOM      6  N   UNL     1       0.985  -0.722  23.725  0.00  0.00    -0.310 N 
ATOM     14  C   UNL     1      -0.389  -0.668  23.880  0.00  0.00    +0.231 C 
ATOM     33  H   UNL     1       1.540  -1.312  24.339  0.00  0.00    +0.149 HD
BRANCH   6  18
ATOM     18  C   UNL     1       1.700   0.046  22.731  0.00  0.00    +0.139 C 
BRANCH  18  21
ATOM     21  C   UNL     1       3.185  -0.005  22.941  0.00  0.00    -0.030 A 
ATOM     26  C   UNL     1       3.980   1.079  22.565  0.00  0.00    +0.006 A 
ATOM     27  C   UNL     1       3.770  -1.134  23.512  0.00  0.00    +0.006 A 
ATOM     28  C   UNL     1       5.360   1.032  22.761  0.00  0.00    +0.019 A 
ATOM     29  C   UNL     1       5.151  -1.181  23.708  0.00  0.00    +0.019 A 
ATOM     30  C   UNL     1       5.946  -0.098  23.333  0.00  0.00    +0.052 A 
BRANCH  30  31
ATOM      7  N   UNL     1       8.508  -0.185  23.696  0.00  0.00    -0.191 NA
ATOM     31  C   UNL     1       7.359  -0.147  23.533  0.00  0.00    +0.099 C 
ENDBRANCH  30  31
ENDBRANCH  18  21
ENDBRANCH   6  18
ENDBRANCH   8  14
BRANCH   3  13
ATOM     13  C   UNL     1      -0.652   0.123  26.727  0.00  0.00    +0.160 C 
BRANCH  13  15
ATOM      1  O   UNL     1      -1.939   2.153  26.379  0.00  0.00    -0.458 OA
ATOM     15  C   UNL     1      -0.754   1.519  26.184  0.00  0.00    +0.120 A 
ATOM     17  C   UNL     1       0.126   2.328  25.504  0.00  0.00    +0.054 A 
ATOM     19  C   UNL     1      -0.559   3.548  25.260  0.00  0.00    +0.020 A 
ATOM     20  C   UNL     1      -1.823   3.389  25.817  0.00  0.00    +0.135 A 
ATOM     22  C   UNL     1      -0.251   4.767  24.631  0.00  0.00    +0.011 A 
ATOM     23  C   UNL     1      -2.816   4.368  25.794  0.00  0.00    +0.047 A 
ATOM     24  C   UNL     1      -1.228   5.769  24.591  0.00  0.00    +0.001 A 
ATOM     25  C   UNL     1      -2.488   5.571  25.164  0.00  0.00    +0.004 A 
ENDBRANCH  13  15
ENDBRANCH   3  13
TORSDOF 6
ENDMDL
MODEL 4
REMARK VINA RESULT:       2.7      2.635      7.264
REMARK  Name = 26745389
REMARK  6 active torsions:
REMARK  status: ('A' for Active; 'I' for Inactive)
REMARK    1  A    between atoms: N_3  and  C_13
REMARK    2  A    between atoms: N_6  and  C_18
REMARK    3  A    between atoms: C_8  and  C_14
REMARK    4  A    between atoms: C_13  and  C_15
REMARK    5  A    between atoms: C_18  and  C_21
REMARK    6  A    between atoms: C_30  and  C_31
REMARK                            x       y       z     vdW  Elec       q    Type
REMARK                         _______ _______ _______ _____ _____    ______ ____
ROOT
ATOM      3  N   UNL     1      -0.142   1.741  23.482  0.00  0.00    -0.278 NA
ATOM      4  N   UNL     1      -3.329   3.568  24.126  0.00  0.00    -0.347 N 
ATOM      5  N   UNL     1      -2.421   4.008  26.123  0.00  0.00    -0.240 NA
ATOM      8  C   UNL     1       0.141   1.455  24.912  0.00  0.00    +0.150 C 
ATOM      9  C   UNL     1      -0.328   2.593  25.864  0.00  0.00    +0.085 C 
ATOM     10  C   UNL     1      -1.571   1.972  23.165  0.00  0.00    +0.140 C 
ATOM     11  C   UNL     1      -2.160   2.873  24.181  0.00  0.00    +0.053 A 
ATOM     12  C   UNL     1      -1.624   3.154  25.414  0.00  0.00    +0.065 A 
ATOM     16  C   UNL     1      -3.442   4.238  25.320  0.00  0.00    +0.197 A 
ATOM     32  H   UNL     1      -3.989   3.589  23.361  0.00  0.00    +0.167 HD
ENDROOT
BRANCH   8  14
ATOM      2  O   UNL     1      -0.140  -0.917  24.809  0.00  0.00    -0.274 OA
ATOM      6  N   UNL     1      -1.470   0.312  26.271  0.00  0.00    -0.310 N 
ATOM     14  C   UNL     1      -0.484   0.149  25.314  0.00  0.00    +0.231 C 
ATOM     33  H   UNL     1      -1.669   1.239  26.638  0.00  0.00    +0.149 HD
BRANCH   6  18
ATOM     18  C   UNL     1      -2.239  -0.787  26.810  0.00  0.00    +0.139 C 
BRANCH  18  21
ATOM     21  C   UNL     1      -3.006  -1.513  25.743  0.00  0.00    -0.030 A 
ATOM     26  C   UNL     1      -3.868  -0.808  24.903  0.00  0.00    +0.006 A 
ATOM     27  C   UNL     1      -2.856  -2.891  25.592  0.00  0.00    +0.006 A 
ATOM     28  C   UNL     1      -4.580  -1.482  23.911  0.00  0.00    +0.019 A 
ATOM     29  C   UNL     1      -3.569  -3.566  24.600  0.00  0.00    +0.019 A 
ATOM     30  C   UNL     1      -4.431  -2.861  23.759  0.00  0.00    +0.052 A 
BRANCH  30  31
ATOM      7  N   UNL     1      -5.754  -4.112  21.918  0.00  0.00    -0.191 NA
ATOM     31  C   UNL     1      -5.161  -3.551  22.744  0.00  0.00    +0.099 C 
ENDBRANCH  30  31
ENDBRANCH  18  21
ENDBRANCH   6  18
ENDBRANCH   8  14
BRANCH   3  13
ATOM     13  C   UNL     1       0.455   0.771  22.569  0.00  0.00    +0.160 C 
BRANCH  13  15
ATOM      1  O   UNL     1       2.265  -0.708  23.230  0.00  0.00    -0.458 OA
ATOM     15  C   UNL     1       1.912   0.550  22.857  0.00  0.00    +0.120 A 
ATOM     17  C   UNL     1       3.011   1.376  22.827  0.00  0.00    +0.054 A 
ATOM     19  C   UNL     1       4.123   0.577  23.206  0.00  0.00    +0.020 A 
ATOM     20  C   UNL     1       3.611  -0.694  23.443  0.00  0.00    +0.135 A 
ATOM     22  C   UNL     1       5.502   0.789  23.374  0.00  0.00    +0.011 A 
ATOM     23  C   UNL     1       4.383  -1.785  23.841  0.00  0.00    +0.047 A 
ATOM     24  C   UNL     1       6.304  -0.289  23.773  0.00  0.00    +0.001 A 
ATOM     25  C   UNL     1       5.751  -1.553  24.001  0.00  0.00    +0.004 A 
ENDBRANCH  13  15
ENDBRANCH   3  13
TORSDOF 6
ENDMDL
MODEL 5
REMARK VINA RESULT:       3.1      2.087      4.441
REMARK  Name = 26745389
REMARK  6 active torsions:
REMARK  status: ('A' for Active; 'I' for Inactive)
REMARK    1  A    between atoms: N_3  and  C_13
REMARK    2  A    between atoms: N_6  and  C_18
REMARK    3  A    between atoms: C_8  and  C_14
REMARK    4  A    between atoms: C_13  and  C_15
REMARK    5  A    between atoms: C_18  and  C_21
REMARK    6  A    between atoms: C_30  and  C_31
REMARK                            x       y       z     vdW  Elec       q    Type
REMARK                         _______ _______ _______ _____ _____    ______ ____
ROOT
ATOM      3  N   UNL     1      -0.466  -0.872  25.648  0.00  0.00    -0.278 NA
ATOM      4  N   UNL     1      -4.020  -1.971  25.386  0.00  0.00    -0.347 N 
ATOM      5  N   UNL     1      -3.254  -3.338  23.790  0.00  0.00    -0.240 NA
ATOM      8  C   UNL     1      -0.113  -1.225  24.250  0.00  0.00    +0.150 C 
ATOM      9  C   UNL     1      -0.863  -2.486  23.732  0.00  0.00    +0.085 C 
ATOM     10  C   UNL     1      -1.906  -0.611  25.878  0.00  0.00    +0.140 C 
ATOM     11  C   UNL     1      -2.709  -1.655  25.204  0.00  0.00    +0.053 A 
ATOM     12  C   UNL     1      -2.263  -2.503  24.219  0.00  0.00    +0.065 A 
ATOM     16  C   UNL     1      -4.303  -2.992  24.512  0.00  0.00    +0.197 A 
ATOM     32  H   UNL     1      -4.666  -1.540  26.035  0.00  0.00    +0.167 HD
ENDROOT
BRANCH   8  14
ATOM      2  O   UNL     1       0.548   0.545  22.785  0.00  0.00    -0.274 OA
ATOM      6  N   UNL     1      -1.715   0.243  23.236  0.00  0.00    -0.310 N 
ATOM     14  C   UNL     1      -0.368  -0.057  23.339  0.00  0.00    +0.231 C 
ATOM     33  H   UNL     1      -2.398  -0.329  23.724  0.00  0.00    +0.149 HD
BRANCH   6  18
ATOM     18  C   UNL     1      -2.223   1.337  22.439  0.00  0.00    +0.139 C 
BRANCH  18  21
ATOM     21  C   UNL     1      -3.203   2.180  23.202  0.00  0.00    -0.030 A 
ATOM     26  C   UNL     1      -3.436   3.500  22.815  0.00  0.00    +0.006 A 
ATOM     27  C   UNL     1      -3.882   1.644  24.295  0.00  0.00    +0.006 A 
ATOM     28  C   UNL     1      -4.346   4.284  23.523  0.00  0.00    +0.019 A 
ATOM     29  C   UNL     1      -4.793   2.428  25.004  0.00  0.00    +0.019 A 
ATOM     30  C   UNL     1      -5.025   3.748  24.617  0.00  0.00    +0.052 A 
BRANCH  30  31
ATOM      7  N   UNL     1      -6.715   5.203  25.934  0.00  0.00    -0.191 NA
ATOM     31  C   UNL     1      -5.958   4.551  25.343  0.00  0.00    +0.099 C 
ENDBRANCH  30  31
ENDBRANCH  18  21
ENDBRANCH   6  18
ENDBRANCH   8  14
BRANCH   3  13
ATOM     13  C   UNL     1       0.363   0.193  26.203  0.00  0.00    +0.160 C 
BRANCH  13  15
ATOM      1  O   UNL     1       0.284   2.340  25.069  0.00  0.00    -0.458 OA
ATOM     15  C   UNL     1      -0.264   1.546  26.025  0.00  0.00    +0.120 A 
ATOM     17  C   UNL     1      -1.314   2.183  26.645  0.00  0.00    +0.054 A 
ATOM     19  C   UNL     1      -1.425   3.459  26.032  0.00  0.00    +0.020 A 
ATOM     20  C   UNL     1      -0.421   3.506  25.071  0.00  0.00    +0.135 A 
ATOM     22  C   UNL     1      -2.263   4.578  26.183  0.00  0.00    +0.011 A 
ATOM     23  C   UNL     1      -0.186   4.599  24.238  0.00  0.00    +0.047 A 
ATOM     24  C   UNL     1      -2.052   5.692  25.360  0.00  0.00    +0.001 A 
ATOM     25  C   UNL     1      -1.031   5.700  24.405  0.00  0.00    +0.004 A 
ENDBRANCH  13  15
ENDBRANCH   3  13
TORSDOF 6
ENDMDL
MODEL 6
REMARK VINA RESULT:       3.1      2.512      6.825
REMARK  Name = 26745389
REMARK  6 active torsions:
REMARK  status: ('A' for Active; 'I' for Inactive)
REMARK    1  A    between atoms: N_3  and  C_13
REMARK    2  A    between atoms: N_6  and  C_18
REMARK    3  A    between atoms: C_8  and  C_14
REMARK    4  A    between atoms: C_13  and  C_15
REMARK    5  A    between atoms: C_18  and  C_21
REMARK    6  A    between atoms: C_30  and  C_31
REMARK                            x       y       z     vdW  Elec       q    Type
REMARK                         _______ _______ _______ _____ _____    ______ ____
ROOT
ATOM      3  N   UNL     1      -1.800   4.186  24.627  0.00  0.00    -0.278 NA
ATOM      4  N   UNL     1      -5.116   2.520  24.267  0.00  0.00    -0.347 N 
ATOM      5  N   UNL     1      -5.396   3.093  26.412  0.00  0.00    -0.240 NA
ATOM      8  C   UNL     1      -1.697   3.965  26.092  0.00  0.00    +0.150 C 
ATOM      9  C   UNL     1      -3.072   4.034  26.816  0.00  0.00    +0.085 C 
ATOM     10  C   UNL     1      -2.681   3.232  23.916  0.00  0.00    +0.140 C 
ATOM     11  C   UNL     1      -3.937   3.059  24.680  0.00  0.00    +0.053 A 
ATOM     12  C   UNL     1      -4.130   3.398  25.997  0.00  0.00    +0.065 A 
ATOM     16  C   UNL     1      -5.966   2.563  25.346  0.00  0.00    +0.197 A 
ATOM     32  H   UNL     1      -5.331   2.155  23.349  0.00  0.00    +0.167 HD
ENDROOT
BRANCH   8  14
ATOM      2  O   UNL     1       0.094   2.589  26.876  0.00  0.00    -0.274 OA
ATOM      6  N   UNL     1      -1.799   1.572  25.983  0.00  0.00    -0.310 N 
ATOM     14  C   UNL     1      -1.025   2.651  26.374  0.00  0.00    +0.231 C 
ATOM     33  H   UNL     1      -2.723   1.730  25.590  0.00  0.00    +0.149 HD
BRANCH   6  18
ATOM     18  C   UNL     1      -1.372   0.199  26.125  0.00  0.00    +0.139 C 
BRANCH  18  21
ATOM     21  C   UNL     1      -2.254  -0.746  25.361  0.00  0.00    -0.030 A 
ATOM     26  C   UNL     1      -3.554  -0.369  25.026  0.00  0.00    +0.006 A 
ATOM     27  C   UNL     1      -1.773  -2.001  24.988  0.00  0.00    +0.006 A 
ATOM     28  C   UNL     1      -4.374  -1.246  24.317  0.00  0.00    +0.019 A 
ATOM     29  C   UNL     1      -2.593  -2.879  24.278  0.00  0.00    +0.019 A 
ATOM     30  C   UNL     1      -3.894  -2.501  23.942  0.00  0.00    +0.052 A 
BRANCH  30  31
ATOM      7  N   UNL     1      -5.416  -4.131  22.626  0.00  0.00    -0.191 NA
ATOM     31  C   UNL     1      -4.733  -3.400  23.216  0.00  0.00    +0.099 C 
ENDBRANCH  30  31
ENDBRANCH  18  21
ENDBRANCH   6  18
ENDBRANCH   8  14
BRANCH   3  13
ATOM     13  C   UNL     1      -0.503   4.307  23.968  0.00  0.00    +0.160 C 
BRANCH  13  15
ATOM      1  O   UNL     1       1.438   2.878  23.667  0.00  0.00    -0.458 OA
ATOM     15  C   UNL     1       0.083   2.966  23.630  0.00  0.00    +0.120 A 
ATOM     17  C   UNL     1      -0.474   1.760  23.275  0.00  0.00    +0.054 A 
ATOM     19  C   UNL     1       0.608   0.861  23.079  0.00  0.00    +0.020 A 
ATOM     20  C   UNL     1       1.761   1.597  23.332  0.00  0.00    +0.135 A 
ATOM     22  C   UNL     1       0.740  -0.490  22.716  0.00  0.00    +0.011 A 
ATOM     23  C   UNL     1       3.053   1.079  23.250  0.00  0.00    +0.047 A 
ATOM     24  C   UNL     1       2.026  -1.039  22.625  0.00  0.00    +0.001 A 
ATOM     25  C   UNL     1       3.160  -0.266  22.888  0.00  0.00    +0.004 A 
ENDBRANCH  13  15
ENDBRANCH   3  13
TORSDOF 6
ENDMDL
MODEL 7
REMARK VINA RESULT:       3.5      2.699      6.593
REMARK  Name = 26745389
REMARK  6 active torsions:
REMARK  status: ('A' for Active; 'I' for Inactive)
REMARK    1  A    between atoms: N_3  and  C_13
REMARK    2  A    between atoms: N_6  and  C_18
REMARK    3  A    between atoms: C_8  and  C_14
REMARK    4  A    between atoms: C_13  and  C_15
REMARK    5  A    between atoms: C_18  and  C_21
REMARK    6  A    between atoms: C_30  and  C_31
REMARK                            x       y       z     vdW  Elec       q    Type
REMARK                         _______ _______ _______ _____ _____    ______ ____
ROOT
ATOM      3  N   UNL     1      -2.322   0.987  25.503  0.00  0.00    -0.278 NA
ATOM      4  N   UNL     1      -4.833  -1.187  23.806  0.00  0.00    -0.347 N 
ATOM      5  N   UNL     1      -3.433  -2.850  24.339  0.00  0.00    -0.240 NA
ATOM      8  C   UNL     1      -1.172   0.081  25.258  0.00  0.00    +0.150 C 
ATOM      9  C   UNL     1      -1.563  -1.425  25.298  0.00  0.00    +0.085 C 
ATOM     10  C   UNL     1      -3.447   0.834  24.552  0.00  0.00    +0.140 C 
ATOM     11  C   UNL     1      -3.730  -0.604  24.351  0.00  0.00    +0.053 A 
ATOM     12  C   UNL     1      -2.885  -1.642  24.665  0.00  0.00    +0.065 A 
ATOM     16  C   UNL     1      -4.608  -2.542  23.822  0.00  0.00    +0.197 A 
ATOM     32  H   UNL     1      -5.658  -0.720  23.455  0.00  0.00    +0.167 HD
ENDROOT
BRANCH   8  14
ATOM      2  O   UNL     1      -0.970   1.276  23.197  0.00  0.00    -0.274 OA
ATOM      6  N   UNL     1       0.598  -0.368  23.703  0.00  0.00    -0.310 N 
ATOM     14  C   UNL     1      -0.518   0.414  23.946  0.00  0.00    +0.231 C 
ATOM     33  H   UNL     1       0.900  -1.047  24.397  0.00  0.00    +0.149 HD
BRANCH   6  18
ATOM     18  C   UNL     1       1.392  -0.261  22.500  0.00  0.00    +0.139 C 
BRANCH  18  21
ATOM     21  C   UNL     1       2.863  -0.224  22.799  0.00  0.00    -0.030 A 
ATOM     26  C   UNL     1       3.471  -1.305  23.438  0.00  0.00    +0.006 A 
ATOM     27  C   UNL     1       3.620   0.889  22.437  0.00  0.00    +0.006 A 
ATOM     28  C   UNL     1       4.838  -1.272  23.715  0.00  0.00    +0.019 A 
ATOM     29  C   UNL     1       4.988   0.922  22.714  0.00  0.00    +0.019 A 
ATOM     30  C   UNL     1       5.596  -0.158  23.353  0.00  0.00    +0.052 A 
BRANCH  30  31
ATOM      7  N   UNL     1       8.133  -0.096  23.870  0.00  0.00    -0.191 NA
ATOM     31  C   UNL     1       6.996  -0.124  23.638  0.00  0.00    +0.099 C 
ENDBRANCH  30  31
ENDBRANCH  18  21
ENDBRANCH   6  18
ENDBRANCH   8  14
BRANCH   3  13
ATOM     13  C   UNL     1      -1.935   2.387  25.650  0.00  0.00    +0.160 C 
BRANCH  13  15
ATOM      1  O   UNL     1      -0.830   2.259  27.809  0.00  0.00    -0.458 OA
ATOM     15  C   UNL     1      -0.699   2.544  26.488  0.00  0.00    +0.120 A 
ATOM     17  C   UNL     1       0.589   2.931  26.198  0.00  0.00    +0.054 A 
ATOM     19  C   UNL     1       1.306   2.883  27.423  0.00  0.00    +0.020 A 
ATOM     20  C   UNL     1       0.389   2.464  28.381  0.00  0.00    +0.135 A 
ATOM     22  C   UNL     1       2.627   3.146  27.826  0.00  0.00    +0.011 A 
ATOM     23  C   UNL     1       0.695   2.286  29.730  0.00  0.00    +0.047 A 
ATOM     24  C   UNL     1       2.964   2.976  29.175  0.00  0.00    +0.001 A 
ATOM     25  C   UNL     1       2.014   2.553  30.109  0.00  0.00    +0.004 A 
ENDBRANCH  13  15
ENDBRANCH   3  13
TORSDOF 6
ENDMDL
MODEL 8
REMARK VINA RESULT:       4.5      2.192      4.178
REMARK  Name = 26745389
REMARK  6 active torsions:
REMARK  status: ('A' for Active; 'I' for Inactive)
REMARK    1  A    between atoms: N_3  and  C_13
REMARK    2  A    between atoms: N_6  and  C_18
REMARK    3  A    between atoms: C_8  and  C_14
REMARK    4  A    between atoms: C_13  and  C_15
REMARK    5  A    between atoms: C_18  and  C_21
REMARK    6  A    between atoms: C_30  and  C_31
REMARK                            x       y       z     vdW  Elec       q    Type
REMARK                         _______ _______ _______ _____ _____    ______ ____
ROOT
ATOM      3  N   UNL     1       0.597   0.402  25.139  0.00  0.00    -0.278 NA
ATOM      4  N   UNL     1       1.683  -0.697  21.745  0.00  0.00    -0.347 N 
ATOM      5  N   UNL     1       3.211   0.925  21.944  0.00  0.00    -0.240 NA
ATOM      8  C   UNL     1       1.092   1.794  24.994  0.00  0.00    +0.150 C 
ATOM      9  C   UNL     1       2.392   1.894  24.145  0.00  0.00    +0.085 C 
ATOM     10  C   UNL     1       0.301  -0.288  23.862  0.00  0.00    +0.140 C 
ATOM     11  C   UNL     1       1.400  -0.040  22.903  0.00  0.00    +0.053 A 
ATOM     12  C   UNL     1       2.346   0.952  23.001  0.00  0.00    +0.065 A 
ATOM     16  C   UNL     1       2.784  -0.079  21.203  0.00  0.00    +0.197 A 
ATOM     32  H   UNL     1       1.183  -1.484  21.353  0.00  0.00    +0.167 HD
ENDROOT
BRANCH   8  14
ATOM      2  O   UNL     1      -0.325   2.575  23.234  0.00  0.00    -0.274 OA
ATOM      6  N   UNL     1      -0.486   3.568  25.333  0.00  0.00    -0.310 N 
ATOM     14  C   UNL     1       0.019   2.669  24.409  0.00  0.00    +0.231 C 
ATOM     33  H   UNL     1      -0.144   3.554  26.290  0.00  0.00    +0.149 HD
BRANCH   6  18
ATOM     18  C   UNL     1      -1.512   4.535  25.016  0.00  0.00    +0.139 C 
BRANCH  18  21
ATOM     21  C   UNL     1      -2.868   3.900  24.902  0.00  0.00    -0.030 A 
ATOM     26  C   UNL     1      -3.320   3.440  23.665  0.00  0.00    +0.006 A 
ATOM     27  C   UNL     1      -3.674   3.770  26.032  0.00  0.00    +0.006 A 
ATOM     28  C   UNL     1      -4.579   2.850  23.559  0.00  0.00    +0.019 A 
ATOM     29  C   UNL     1      -4.934   3.179  25.926  0.00  0.00    +0.019 A 
ATOM     30  C   UNL     1      -5.386   2.719  24.690  0.00  0.00    +0.052 A 
BRANCH  30  31
ATOM      7  N   UNL     1      -7.724   1.623  24.493  0.00  0.00    -0.191 NA
ATOM     31  C   UNL     1      -6.676   2.115  24.581  0.00  0.00    +0.099 C 
ENDBRANCH  30  31
ENDBRANCH  18  21
ENDBRANCH   6  18
ENDBRANCH   8  14
BRANCH   3  13
ATOM     13  C   UNL     1      -0.510   0.276  26.082  0.00  0.00    +0.160 C 
BRANCH  13  15
ATOM      1  O   UNL     1      -1.637  -1.719  25.275  0.00  0.00    -0.458 OA
ATOM     15  C   UNL     1      -1.710  -0.375  25.457  0.00  0.00    +0.120 A 
ATOM     17  C   UNL     1      -2.916   0.112  25.008  0.00  0.00    +0.054 A 
ATOM     19  C   UNL     1      -3.640  -1.005  24.515  0.00  0.00    +0.020 A 
ATOM     20  C   UNL     1      -2.811  -2.106  24.702  0.00  0.00    +0.135 A 
ATOM     22  C   UNL     1      -4.904  -1.207  23.933  0.00  0.00    +0.011 A 
ATOM     23  C   UNL     1      -3.151  -3.410  24.348  0.00  0.00    +0.047 A 
ATOM     24  C   UNL     1      -5.274  -2.507  23.565  0.00  0.00    +0.001 A 
ATOM     25  C   UNL     1      -4.412  -3.588  23.771  0.00  0.00    +0.004 A 
ENDBRANCH  13  15
ENDBRANCH   3  13
TORSDOF 6
ENDMDL
MODEL 9
REMARK VINA RESULT:       4.6      2.192      4.073
REMARK  Name = 26745389
REMARK  6 active torsions:
REMARK  status: ('A' for Active; 'I' for Inactive)
REMARK    1  A    between atoms: N_3  and  C_13
REMARK    2  A    between atoms: N_6  and  C_18
REMARK    3  A    between atoms: C_8  and  C_14
REMARK    4  A    between atoms: C_13  and  C_15
REMARK    5  A    between atoms: C_18  and  C_21
REMARK    6  A    between atoms: C_30  and  C_31
REMARK                            x       y       z     vdW  Elec       q    Type
REMARK                         _______ _______ _______ _____ _____    ______ ____
ROOT
ATOM      3  N   UNL     1       1.182   0.183  22.139  0.00  0.00    -0.278 NA
ATOM      4  N   UNL     1       4.294   1.219  23.915  0.00  0.00    -0.347 N 
ATOM      5  N   UNL     1       4.862  -0.937  23.726  0.00  0.00    -0.240 NA
ATOM      8  C   UNL     1       1.231  -1.229  22.595  0.00  0.00    +0.150 C 
ATOM      9  C   UNL     1       2.681  -1.776  22.730  0.00  0.00    +0.085 C 
ATOM     10  C   UNL     1       1.898   1.143  23.011  0.00  0.00    +0.140 C 
ATOM     11  C   UNL     1       3.215   0.580  23.384  0.00  0.00    +0.053 A 
ATOM     12  C   UNL     1       3.585  -0.739  23.282  0.00  0.00    +0.065 A 
ATOM     16  C   UNL     1       5.262   0.263  24.102  0.00  0.00    +0.197 A 
ATOM     32  H   UNL     1       4.372   2.203  24.133  0.00  0.00    +0.167 HD
ENDROOT
BRANCH   8  14
ATOM      2  O   UNL     1       0.926  -0.909  24.945  0.00  0.00    -0.274 OA
ATOM      6  N   UNL     1      -0.673  -2.111  23.756  0.00  0.00    -0.310 N 
ATOM     14  C   UNL     1       0.494  -1.380  23.896  0.00  0.00    +0.231 C 
ATOM     33  H   UNL     1      -0.952  -2.445  22.837  0.00  0.00    +0.149 HD
BRANCH   6  18
ATOM     18  C   UNL     1      -1.553  -2.417  24.861  0.00  0.00    +0.139 C 
BRANCH  18  21
ATOM     21  C   UNL     1      -2.697  -1.450  24.954  0.00  0.00    -0.030 A 
ATOM     26  C   UNL     1      -2.728  -0.504  25.979  0.00  0.00    +0.006 A 
ATOM     27  C   UNL     1      -3.728  -1.498  24.017  0.00  0.00    +0.006 A 
ATOM     28  C   UNL     1      -3.791   0.395  26.065  0.00  0.00    +0.019 A 
ATOM     29  C   UNL     1      -4.792  -0.598  24.103  0.00  0.00    +0.019 A 
ATOM     30  C   UNL     1      -4.822   0.348  25.127  0.00  0.00    +0.052 A 
BRANCH  30  31
ATOM      7  N   UNL     1      -6.796   2.017  25.288  0.00  0.00    -0.191 NA
ATOM     31  C   UNL     1      -5.911   1.269  25.216  0.00  0.00    +0.099 C 
ENDBRANCH  30  31
ENDBRANCH  18  21
ENDBRANCH   6  18
ENDBRANCH   8  14
BRANCH   3  13
ATOM     13  C   UNL     1      -0.168   0.647  21.834  0.00  0.00    +0.160 C 
BRANCH  13  15
ATOM      1  O   UNL     1      -1.984   1.987  22.731  0.00  0.00    -0.458 OA
ATOM     15  C   UNL     1      -0.737   1.490  22.938  0.00  0.00    +0.120 A 
ATOM     17  C   UNL     1      -0.250   1.888  24.162  0.00  0.00    +0.054 A 
ATOM     19  C   UNL     1      -1.265   2.685  24.755  0.00  0.00    +0.020 A 
ATOM     20  C   UNL     1      -2.309   2.715  23.836  0.00  0.00    +0.135 A 
ATOM     22  C   UNL     1      -1.416   3.384  25.966  0.00  0.00    +0.011 A 
ATOM     23  C   UNL     1      -3.508   3.397  24.037  0.00  0.00    +0.047 A 
ATOM     24  C   UNL     1      -2.610   4.080  26.196  0.00  0.00    +0.001 A 
ATOM     25  C   UNL     1      -3.636   4.084  25.247  0.00  0.00    +0.004 A 
ENDBRANCH  13  15
ENDBRANCH   3  13
TORSDOF 6
ENDMDL
MODEL 10
REMARK VINA RESULT:       5.4      2.239      3.450
REMARK  Name = 26745389
REMARK  6 active torsions:
REMARK  status: ('A' for Active; 'I' for Inactive)
REMARK    1  A    between atoms: N_3  and  C_13
REMARK    2  A    between atoms: N_6  and  C_18
REMARK    3  A    between atoms: C_8  and  C_14
REMARK    4  A    between atoms: C_13  and  C_15
REMARK    5  A    between atoms: C_18  and  C_21
REMARK    6  A    between atoms: C_30  and  C_31
REMARK                            x       y       z     vdW  Elec       q    Type
REMARK                         _______ _______ _______ _____ _____    ______ ____
ROOT
ATOM      3  N   UNL     1       1.446  -0.302  22.287  0.00  0.00    -0.278 NA
ATOM      4  N   UNL     1       5.144   0.038  21.941  0.00  0.00    -0.347 N 
ATOM      5  N   UNL     1       5.189  -0.649  24.069  0.00  0.00    -0.240 NA
ATOM      8  C   UNL     1       1.429  -0.095  23.757  0.00  0.00    +0.150 C 
ATOM      9  C   UNL     1       2.681  -0.681  24.469  0.00  0.00    +0.085 C 
ATOM     10  C   UNL     1       2.618   0.279  21.591  0.00  0.00    +0.140 C 
ATOM     11  C   UNL     1       3.848  -0.039  22.350  0.00  0.00    +0.053 A 
ATOM     12  C   UNL     1       3.901  -0.458  23.657  0.00  0.00    +0.065 A 
ATOM     16  C   UNL     1       5.916  -0.340  23.012  0.00  0.00    +0.197 A 
ATOM     32  H   UNL     1       5.479   0.321  21.030  0.00  0.00    +0.167 HD
ENDROOT
BRANCH   8  14
ATOM      2  O   UNL     1       1.796   2.236  23.371  0.00  0.00    -0.274 OA
ATOM      6  N   UNL     1       0.553   1.585  25.227  0.00  0.00    -0.310 N 
ATOM     14  C   UNL     1       1.286   1.368  24.073  0.00  0.00    +0.231 C 
ATOM     33  H   UNL     1       0.158   0.795  25.731  0.00  0.00    +0.149 HD
BRANCH   6  18
ATOM     18  C   UNL     1       0.291   2.902  25.761  0.00  0.00    +0.139 C 
BRANCH  18  21
ATOM     21  C   UNL     1      -1.167   3.255  25.698  0.00  0.00    -0.030 A 
ATOM     26  C   UNL     1      -1.947   3.206  26.854  0.00  0.00    +0.006 A 
ATOM     27  C   UNL     1      -1.741   3.632  24.484  0.00  0.00    +0.006 A 
ATOM     28  C   UNL     1      -3.301   3.534  26.795  0.00  0.00    +0.019 A 
ATOM     29  C   UNL     1      -3.096   3.960  24.425  0.00  0.00    +0.019 A 
ATOM     30  C   UNL     1      -3.876   3.911  25.581  0.00  0.00    +0.052 A 
BRANCH  30  31
ATOM      7  N   UNL     1      -6.391   4.519  25.473  0.00  0.00    -0.191 NA
ATOM     31  C   UNL     1      -5.263   4.246  25.521  0.00  0.00    +0.099 C 
ENDBRANCH  30  31
ENDBRANCH  18  21
ENDBRANCH   6  18
ENDBRANCH   8  14
BRANCH   3  13
ATOM     13  C   UNL     1       0.197   0.078  21.634  0.00  0.00    +0.160 C 
BRANCH  13  15
ATOM      1  O   UNL     1      -0.935  -0.904  23.546  0.00  0.00    -0.458 OA
ATOM     15  C   UNL     1      -0.964   0.057  22.585  0.00  0.00    +0.120 A 
ATOM     17  C   UNL     1      -2.098   0.827  22.701  0.00  0.00    +0.054 A 
ATOM     19  C   UNL     1      -2.822   0.310  23.808  0.00  0.00    +0.020 A 
ATOM     20  C   UNL     1      -2.066  -0.751  24.292  0.00  0.00    +0.135 A 
ATOM     22  C   UNL     1      -4.031   0.623  24.453  0.00  0.00    +0.011 A 
ATOM     23  C   UNL     1      -2.429  -1.535  25.386  0.00  0.00    +0.047 A 
ATOM     24  C   UNL     1      -4.424  -0.147  25.556  0.00  0.00    +0.001 A 
ATOM     25  C   UNL     1      -3.634  -1.207  26.012  0.00  0.00    +0.004 A 
ENDBRANCH  13  15
ENDBRANCH   3  13
TORSDOF 6
ENDMDL
