MODEL 1
REMARK VINA RESULT:      -5.7      0.000      0.000
REMARK  Name = 26743010
REMARK  9 active torsions:
REMARK  status: ('A' for Active; 'I' for Inactive)
REMARK    1  A    between atoms: O_3  and  C_19
REMARK    2  A    between atoms: O_3  and  C_26
REMARK    3  A    between atoms: N_5  and  C_18
REMARK    4  A    between atoms: C_7  and  C_13
REMARK    5  A    between atoms: C_8  and  C_12
REMARK    6  A    between atoms: C_12  and  C_14
REMARK    7  A    between atoms: C_13  and  C_15
REMARK    8  A    between atoms: C_17  and  C_19
REMARK    9  A    between atoms: C_18  and  C_20
REMARK                            x       y       z     vdW  Elec       q    Type
REMARK                         _______ _______ _______ _____ _____    ______ ____
ROOT
ATOM      4  N   UNL     1      -2.194  -3.040  25.156  0.00  0.00    -0.316 NA
ATOM      7  C   UNL     1      -3.632  -0.862  23.780  0.00  0.00    +0.004 C 
ATOM      8  C   UNL     1      -2.114  -0.808  24.073  0.00  0.00    +0.012 C 
ATOM      9  C   UNL     1      -4.081  -2.332  23.727  0.00  0.00    +0.019 C 
ATOM     10  C   UNL     1      -1.741  -1.656  25.300  0.00  0.00    +0.085 C 
ATOM     11  C   UNL     1      -3.640  -3.121  24.960  0.00  0.00    +0.081 C 
ATOM     27  H   UNL     1      -1.937  -3.568  25.990  0.00  0.00    +0.122 HD
ENDROOT
BRANCH   8  12
ATOM     12  C   UNL     1      -1.584   0.619  24.224  0.00  0.00    +0.064 C 
BRANCH  12  14
ATOM      2  O   UNL     1       1.852   1.537  23.663  0.00  0.00    -0.357 OA
ATOM      6  N   UNL     1       0.591   1.762  24.201  0.00  0.00    -0.083 NA
ATOM     14  C   UNL     1      -0.143   0.715  23.815  0.00  0.00    +0.084 A 
ATOM     16  C   UNL     1       0.594  -0.196  23.038  0.00  0.00    +0.073 A 
ATOM     17  C   UNL     1       1.840   0.368  22.972  0.00  0.00    +0.163 A 
BRANCH  17  19
ATOM     19  C   UNL     1       3.102  -0.027  22.333  0.00  0.00    +0.236 C 
BRANCH  19   3
ATOM      3  O   UNL     1       4.172   0.804  22.792  0.00  0.00    -0.375 OA
ATOM     26  C   UNL     1       5.164   0.040  23.457  0.00  0.00    +0.194 C 
ENDBRANCH  19   3
ENDBRANCH  17  19
ENDBRANCH  12  14
ENDBRANCH   8  12
BRANCH   7  13
ATOM     13  C   UNL     1      -4.488  -0.066  24.772  0.00  0.00    +0.099 C 
BRANCH  13  15
ATOM      1  O   UNL     1      -4.158   1.941  23.464  0.00  0.00    -0.276 OA
ATOM      5  N   UNL     1      -4.548   2.119  25.749  0.00  0.00    -0.311 N 
ATOM     15  C   UNL     1      -4.376   1.427  24.559  0.00  0.00    +0.214 C 
ATOM     28  H   UNL     1      -4.706   1.599  26.607  0.00  0.00    +0.149 HD
BRANCH   5  18
ATOM     18  C   UNL     1      -4.490   3.560  25.839  0.00  0.00    +0.139 C 
BRANCH  18  20
ATOM     20  C   UNL     1      -3.114   4.086  25.549  0.00  0.00    -0.030 A 
ATOM     21  C   UNL     1      -1.992   3.401  26.016  0.00  0.00    +0.005 A 
ATOM     22  C   UNL     1      -2.957   5.259  24.812  0.00  0.00    +0.005 A 
ATOM     23  C   UNL     1      -0.714   3.889  25.746  0.00  0.00    +0.000 A 
ATOM     24  C   UNL     1      -1.678   5.748  24.542  0.00  0.00    +0.000 A 
ATOM     25  C   UNL     1      -0.557   5.062  25.009  0.00  0.00    +0.000 A 
ENDBRANCH  18  20
ENDBRANCH   5  18
ENDBRANCH  13  15
ENDBRANCH   7  13
TORSDOF 8
ENDMDL
MODEL 2
REMARK VINA RESULT:      -4.8      1.937      5.311
REMARK  Name = 26743010
REMARK  9 active torsions:
REMARK  status: ('A' for Active; 'I' for Inactive)
REMARK    1  A    between atoms: O_3  and  C_19
REMARK    2  A    between atoms: O_3  and  C_26
REMARK    3  A    between atoms: N_5  and  C_18
REMARK    4  A    between atoms: C_7  and  C_13
REMARK    5  A    between atoms: C_8  and  C_12
REMARK    6  A    between atoms: C_12  and  C_14
REMARK    7  A    between atoms: C_13  and  C_15
REMARK    8  A    between atoms: C_17  and  C_19
REMARK    9  A    between atoms: C_18  and  C_20
REMARK                            x       y       z     vdW  Elec       q    Type
REMARK                         _______ _______ _______ _____ _____    ______ ____
ROOT
ATOM      4  N   UNL     1      -4.348  -2.928  24.215  0.00  0.00    -0.316 NA
ATOM      7  C   UNL     1      -2.043  -1.234  24.939  0.00  0.00    +0.004 C 
ATOM      8  C   UNL     1      -3.257  -0.699  24.144  0.00  0.00    +0.012 C 
ATOM      9  C   UNL     1      -2.482  -2.455  25.764  0.00  0.00    +0.019 C 
ATOM     10  C   UNL     1      -3.953  -1.816  23.350  0.00  0.00    +0.085 C 
ATOM     11  C   UNL     1      -3.202  -3.504  24.916  0.00  0.00    +0.081 C 
ATOM     27  H   UNL     1      -4.797  -3.650  23.653  0.00  0.00    +0.122 HD
ENDROOT
BRANCH   8  12
ATOM     12  C   UNL     1      -2.902   0.473  23.227  0.00  0.00    +0.064 C 
BRANCH  12  14
ATOM      2  O   UNL     1      -4.192   3.812  23.614  0.00  0.00    -0.357 OA
ATOM      6  N   UNL     1      -3.393   2.868  22.980  0.00  0.00    -0.083 NA
ATOM     14  C   UNL     1      -3.610   1.729  23.645  0.00  0.00    +0.084 A 
ATOM     16  C   UNL     1      -4.526   1.892  24.698  0.00  0.00    +0.073 A 
ATOM     17  C   UNL     1      -4.861   3.219  24.636  0.00  0.00    +0.163 A 
BRANCH  17  19
ATOM     19  C   UNL     1      -5.757   4.079  25.418  0.00  0.00    +0.236 C 
BRANCH  19   3
ATOM      3  O   UNL     1      -6.108   3.441  26.649  0.00  0.00    -0.375 OA
ATOM     26  C   UNL     1      -6.483   2.091  26.437  0.00  0.00    +0.194 C 
ENDBRANCH  19   3
ENDBRANCH  17  19
ENDBRANCH  12  14
ENDBRANCH   8  12
BRANCH   7  13
ATOM     13  C   UNL     1      -0.827  -1.573  24.069  0.00  0.00    +0.099 C 
BRANCH  13  15
ATOM      1  O   UNL     1       0.899  -0.307  22.943  0.00  0.00    -0.276 OA
ATOM      5  N   UNL     1      -0.157   0.605  24.802  0.00  0.00    -0.311 N 
ATOM     15  C   UNL     1       0.074  -0.378  23.851  0.00  0.00    +0.214 C 
ATOM     28  H   UNL     1      -0.850   0.443  25.526  0.00  0.00    +0.149 HD
BRANCH   5  18
ATOM     18  C   UNL     1       0.565   1.857  24.835  0.00  0.00    +0.139 C 
BRANCH  18  20
ATOM     20  C   UNL     1      -0.342   3.022  25.103  0.00  0.00    -0.030 A 
ATOM     21  C   UNL     1      -0.212   4.194  24.356  0.00  0.00    +0.005 A 
ATOM     22  C   UNL     1      -1.314   2.935  26.098  0.00  0.00    +0.005 A 
ATOM     23  C   UNL     1      -1.056   5.277  24.605  0.00  0.00    +0.000 A 
ATOM     24  C   UNL     1      -2.158   4.018  26.348  0.00  0.00    +0.000 A 
ATOM     25  C   UNL     1      -2.028   5.188  25.601  0.00  0.00    +0.000 A 
ENDBRANCH  18  20
ENDBRANCH   5  18
ENDBRANCH  13  15
ENDBRANCH   7  13
TORSDOF 8
ENDMDL
MODEL 3
REMARK VINA RESULT:      -4.6      1.578      4.762
REMARK  Name = 26743010
REMARK  9 active torsions:
REMARK  status: ('A' for Active; 'I' for Inactive)
REMARK    1  A    between atoms: O_3  and  C_19
REMARK    2  A    between atoms: O_3  and  C_26
REMARK    3  A    between atoms: N_5  and  C_18
REMARK    4  A    between atoms: C_7  and  C_13
REMARK    5  A    between atoms: C_8  and  C_12
REMARK    6  A    between atoms: C_12  and  C_14
REMARK    7  A    between atoms: C_13  and  C_15
REMARK    8  A    between atoms: C_17  and  C_19
REMARK    9  A    between atoms: C_18  and  C_20
REMARK                            x       y       z     vdW  Elec       q    Type
REMARK                         _______ _______ _______ _____ _____    ______ ____
ROOT
ATOM      4  N   UNL     1      -3.340   3.108  22.655  0.00  0.00    -0.316 NA
ATOM      7  C   UNL     1      -2.420   4.387  25.150  0.00  0.00    +0.004 C 
ATOM      8  C   UNL     1      -1.571   3.347  24.382  0.00  0.00    +0.012 C 
ATOM      9  C   UNL     1      -3.399   5.057  24.172  0.00  0.00    +0.019 C 
ATOM     10  C   UNL     1      -2.452   2.385  23.567  0.00  0.00    +0.085 C 
ATOM     11  C   UNL     1      -4.210   4.040  23.369  0.00  0.00    +0.081 C 
ATOM     27  H   UNL     1      -3.912   2.439  22.141  0.00  0.00    +0.122 HD
ENDROOT
BRANCH   8  12
ATOM     12  C   UNL     1      -0.617   2.566  25.287  0.00  0.00    +0.064 C 
BRANCH  12  14
ATOM      2  O   UNL     1       0.580  -0.466  23.758  0.00  0.00    -0.357 OA
ATOM      6  N   UNL     1      -0.308   0.239  24.562  0.00  0.00    -0.083 NA
ATOM     14  C   UNL     1       0.118   1.504  24.522  0.00  0.00    +0.084 A 
ATOM     16  C   UNL     1       1.261   1.657  23.718  0.00  0.00    +0.073 A 
ATOM     17  C   UNL     1       1.510   0.390  23.262  0.00  0.00    +0.163 A 
BRANCH  17  19
ATOM     19  C   UNL     1       2.534  -0.192  22.386  0.00  0.00    +0.236 C 
BRANCH  19   3
ATOM      3  O   UNL     1       3.640   0.704  22.251  0.00  0.00    -0.375 OA
ATOM     26  C   UNL     1       4.666   0.396  23.180  0.00  0.00    +0.194 C 
ENDBRANCH  19   3
ENDBRANCH  17  19
ENDBRANCH  12  14
ENDBRANCH   8  12
BRANCH   7  13
ATOM     13  C   UNL     1      -3.166   3.813  26.361  0.00  0.00    +0.099 C 
BRANCH  13  15
ATOM      1  O   UNL     1      -5.527   3.429  26.003  0.00  0.00    -0.276 OA
ATOM      5  N   UNL     1      -4.010   1.731  25.535  0.00  0.00    -0.311 N 
ATOM     15  C   UNL     1      -4.376   3.001  25.956  0.00  0.00    +0.214 C 
ATOM     28  H   UNL     1      -3.030   1.466  25.550  0.00  0.00    +0.149 HD
BRANCH   5  18
ATOM     18  C   UNL     1      -4.966   0.740  25.093  0.00  0.00    +0.139 C 
BRANCH  18  20
ATOM     20  C   UNL     1      -4.336  -0.611  24.921  0.00  0.00    -0.030 A 
ATOM     21  C   UNL     1      -4.621  -1.375  23.789  0.00  0.00    +0.005 A 
ATOM     22  C   UNL     1      -3.465  -1.104  25.893  0.00  0.00    +0.005 A 
ATOM     23  C   UNL     1      -4.035  -2.631  23.629  0.00  0.00    +0.000 A 
ATOM     24  C   UNL     1      -2.879  -2.360  25.733  0.00  0.00    +0.000 A 
ATOM     25  C   UNL     1      -3.165  -3.122  24.601  0.00  0.00    +0.000 A 
ENDBRANCH  18  20
ENDBRANCH   5  18
ENDBRANCH  13  15
ENDBRANCH   7  13
TORSDOF 8
ENDMDL
MODEL 4
REMARK VINA RESULT:      -4.5      2.077      6.605
REMARK  Name = 26743010
REMARK  9 active torsions:
REMARK  status: ('A' for Active; 'I' for Inactive)
REMARK    1  A    between atoms: O_3  and  C_19
REMARK    2  A    between atoms: O_3  and  C_26
REMARK    3  A    between atoms: N_5  and  C_18
REMARK    4  A    between atoms: C_7  and  C_13
REMARK    5  A    between atoms: C_8  and  C_12
REMARK    6  A    between atoms: C_12  and  C_14
REMARK    7  A    between atoms: C_13  and  C_15
REMARK    8  A    between atoms: C_17  and  C_19
REMARK    9  A    between atoms: C_18  and  C_20
REMARK                            x       y       z     vdW  Elec       q    Type
REMARK                         _______ _______ _______ _____ _____    ______ ____
ROOT
ATOM      4  N   UNL     1      -2.406   4.125  26.083  0.00  0.00    -0.316 NA
ATOM      7  C   UNL     1      -0.719   2.264  24.534  0.00  0.00    +0.004 C 
ATOM      8  C   UNL     1      -1.979   2.940  23.944  0.00  0.00    +0.012 C 
ATOM      9  C   UNL     1      -0.180   3.127  25.687  0.00  0.00    +0.019 C 
ATOM     10  C   UNL     1      -3.001   3.292  25.037  0.00  0.00    +0.085 C 
ATOM     11  C   UNL     1      -1.261   3.471  26.713  0.00  0.00    +0.081 C 
ATOM     27  H   UNL     1      -3.109   4.330  26.792  0.00  0.00    +0.122 HD
ENDROOT
BRANCH   8  12
ATOM     12  C   UNL     1      -2.638   2.114  22.837  0.00  0.00    +0.064 C 
BRANCH  12  14
ATOM      2  O   UNL     1      -4.825  -0.109  24.636  0.00  0.00    -0.357 OA
ATOM      6  N   UNL     1      -4.323   1.153  24.346  0.00  0.00    -0.083 NA
ATOM     14  C   UNL     1      -3.399   0.950  23.403  0.00  0.00    +0.084 A 
ATOM     16  C   UNL     1      -3.275  -0.407  23.061  0.00  0.00    +0.073 A 
ATOM     17  C   UNL     1      -4.193  -1.030  23.865  0.00  0.00    +0.163 A 
BRANCH  17  19
ATOM     19  C   UNL     1      -4.605  -2.428  24.044  0.00  0.00    +0.236 C 
BRANCH  19   3
ATOM      3  O   UNL     1      -3.559  -3.177  24.671  0.00  0.00    -0.375 OA
ATOM     26  C   UNL     1      -3.100  -2.532  25.847  0.00  0.00    +0.194 C 
ENDBRANCH  19   3
ENDBRANCH  17  19
ENDBRANCH  12  14
ENDBRANCH   8  12
BRANCH   7  13
ATOM     13  C   UNL     1      -0.943   0.819  24.994  0.00  0.00    +0.099 C 
BRANCH  13  15
ATOM      1  O   UNL     1      -0.136  -1.383  24.401  0.00  0.00    -0.276 OA
ATOM      5  N   UNL     1       0.697   0.478  23.284  0.00  0.00    -0.311 N 
ATOM     15  C   UNL     1      -0.102  -0.169  24.216  0.00  0.00    +0.214 C 
ATOM     28  H   UNL     1       0.666   1.491  23.221  0.00  0.00    +0.149 HD
BRANCH   5  18
ATOM     18  C   UNL     1       1.605  -0.221  22.403  0.00  0.00    +0.139 C 
BRANCH  18  20
ATOM     20  C   UNL     1       3.014  -0.202  22.918  0.00  0.00    -0.030 A 
ATOM     21  C   UNL     1       3.552  -1.338  23.523  0.00  0.00    +0.005 A 
ATOM     22  C   UNL     1       3.787   0.952  22.793  0.00  0.00    +0.005 A 
ATOM     23  C   UNL     1       4.863  -1.320  24.002  0.00  0.00    +0.000 A 
ATOM     24  C   UNL     1       5.098   0.970  23.271  0.00  0.00    +0.000 A 
ATOM     25  C   UNL     1       5.634  -0.166  23.876  0.00  0.00    +0.000 A 
ENDBRANCH  18  20
ENDBRANCH   5  18
ENDBRANCH  13  15
ENDBRANCH   7  13
TORSDOF 8
ENDMDL
MODEL 5
REMARK VINA RESULT:      -4.4      1.548      6.180
REMARK  Name = 26743010
REMARK  9 active torsions:
REMARK  status: ('A' for Active; 'I' for Inactive)
REMARK    1  A    between atoms: O_3  and  C_19
REMARK    2  A    between atoms: O_3  and  C_26
REMARK    3  A    between atoms: N_5  and  C_18
REMARK    4  A    between atoms: C_7  and  C_13
REMARK    5  A    between atoms: C_8  and  C_12
REMARK    6  A    between atoms: C_12  and  C_14
REMARK    7  A    between atoms: C_13  and  C_15
REMARK    8  A    between atoms: C_17  and  C_19
REMARK    9  A    between atoms: C_18  and  C_20
REMARK                            x       y       z     vdW  Elec       q    Type
REMARK                         _______ _______ _______ _____ _____    ______ ____
ROOT
ATOM      4  N   UNL     1      -3.164  -3.045  24.846  0.00  0.00    -0.316 NA
ATOM      7  C   UNL     1      -1.871  -0.393  24.896  0.00  0.00    +0.004 C 
ATOM      8  C   UNL     1      -3.399  -0.575  24.738  0.00  0.00    +0.012 C 
ATOM      9  C   UNL     1      -1.289  -1.627  25.606  0.00  0.00    +0.019 C 
ATOM     10  C   UNL     1      -3.746  -1.930  24.099  0.00  0.00    +0.085 C 
ATOM     11  C   UNL     1      -1.710  -2.936  24.939  0.00  0.00    +0.081 C 
ATOM     27  H   UNL     1      -3.408  -3.922  24.389  0.00  0.00    +0.122 HD
ENDROOT
BRANCH   8  12
ATOM     12  C   UNL     1      -4.062   0.568  23.968  0.00  0.00    +0.064 C 
BRANCH  12  14
ATOM      2  O   UNL     1      -4.553   3.504  25.994  0.00  0.00    -0.357 OA
ATOM      6  N   UNL     1      -4.983   2.301  25.447  0.00  0.00    -0.083 NA
ATOM     14  C   UNL     1      -3.953   1.866  24.715  0.00  0.00    +0.084 A 
ATOM     16  C   UNL     1      -2.857   2.744  24.761  0.00  0.00    +0.073 A 
ATOM     17  C   UNL     1      -3.285   3.757  25.577  0.00  0.00    +0.163 A 
BRANCH  17  19
ATOM     19  C   UNL     1      -2.672   4.998  26.065  0.00  0.00    +0.236 C 
BRANCH  19   3
ATOM      3  O   UNL     1      -1.885   5.602  25.034  0.00  0.00    -0.375 OA
ATOM     26  C   UNL     1      -0.609   4.991  24.940  0.00  0.00    +0.194 C 
ENDBRANCH  19   3
ENDBRANCH  17  19
ENDBRANCH  12  14
ENDBRANCH   8  12
BRANCH   7  13
ATOM     13  C   UNL     1      -1.134  -0.125  23.578  0.00  0.00    +0.099 C 
BRANCH  13  15
ATOM      1  O   UNL     1       0.103   1.679  24.610  0.00  0.00    -0.276 OA
ATOM      5  N   UNL     1       1.061   0.497  22.853  0.00  0.00    -0.311 N 
ATOM     15  C   UNL     1       0.055   0.792  23.761  0.00  0.00    +0.214 C 
ATOM     28  H   UNL     1       0.917  -0.247  22.176  0.00  0.00    +0.149 HD
BRANCH   5  18
ATOM     18  C   UNL     1       2.313   1.217  22.800  0.00  0.00    +0.139 C 
BRANCH  18  20
ATOM     20  C   UNL     1       3.474   0.357  23.203  0.00  0.00    -0.030 A 
ATOM     21  C   UNL     1       4.762   0.892  23.235  0.00  0.00    +0.005 A 
ATOM     22  C   UNL     1       3.266  -0.979  23.547  0.00  0.00    +0.005 A 
ATOM     23  C   UNL     1       5.842   0.091  23.609  0.00  0.00    +0.000 A 
ATOM     24  C   UNL     1       4.346  -1.780  23.922  0.00  0.00    +0.000 A 
ATOM     25  C   UNL     1       5.633  -1.244  23.952  0.00  0.00    +0.000 A 
ENDBRANCH  18  20
ENDBRANCH   5  18
ENDBRANCH  13  15
ENDBRANCH   7  13
TORSDOF 8
ENDMDL
MODEL 6
REMARK VINA RESULT:      -3.7      1.628      2.051
REMARK  Name = 26743010
REMARK  9 active torsions:
REMARK  status: ('A' for Active; 'I' for Inactive)
REMARK    1  A    between atoms: O_3  and  C_19
REMARK    2  A    between atoms: O_3  and  C_26
REMARK    3  A    between atoms: N_5  and  C_18
REMARK    4  A    between atoms: C_7  and  C_13
REMARK    5  A    between atoms: C_8  and  C_12
REMARK    6  A    between atoms: C_12  and  C_14
REMARK    7  A    between atoms: C_13  and  C_15
REMARK    8  A    between atoms: C_17  and  C_19
REMARK    9  A    between atoms: C_18  and  C_20
REMARK                            x       y       z     vdW  Elec       q    Type
REMARK                         _______ _______ _______ _____ _____    ______ ____
ROOT
ATOM      4  N   UNL     1      -1.347  -0.704  26.721  0.00  0.00    -0.316 NA
ATOM      7  C   UNL     1      -2.135  -1.867  24.125  0.00  0.00    +0.004 C 
ATOM      8  C   UNL     1      -0.957  -0.875  24.274  0.00  0.00    +0.012 C 
ATOM      9  C   UNL     1      -2.368  -2.575  25.471  0.00  0.00    +0.019 C 
ATOM     10  C   UNL     1      -1.146   0.054  25.485  0.00  0.00    +0.085 C 
ATOM     11  C   UNL     1      -2.506  -1.590  26.632  0.00  0.00    +0.081 C 
ATOM     27  H   UNL     1      -1.476  -0.056  27.497  0.00  0.00    +0.122 HD
ENDROOT
BRANCH   8  12
ATOM     12  C   UNL     1      -0.697  -0.060  23.006  0.00  0.00    +0.064 C 
BRANCH  12  14
ATOM      2  O   UNL     1       2.666  -0.181  21.726  0.00  0.00    -0.357 OA
ATOM      6  N   UNL     1       1.318  -0.514  21.676  0.00  0.00    -0.083 NA
ATOM     14  C   UNL     1       0.774   0.083  22.739  0.00  0.00    +0.084 A 
ATOM     16  C   UNL     1       1.720   0.801  23.491  0.00  0.00    +0.073 A 
ATOM     17  C   UNL     1       2.893   0.602  22.812  0.00  0.00    +0.163 A 
BRANCH  17  19
ATOM     19  C   UNL     1       4.276   1.049  23.019  0.00  0.00    +0.236 C 
BRANCH  19   3
ATOM      3  O   UNL     1       5.174  -0.061  22.936  0.00  0.00    -0.375 OA
ATOM     26  C   UNL     1       5.386  -0.646  24.210  0.00  0.00    +0.194 C 
ENDBRANCH  19   3
ENDBRANCH  17  19
ENDBRANCH  12  14
ENDBRANCH   8  12
BRANCH   7  13
ATOM     13  C   UNL     1      -3.431  -1.225  23.616  0.00  0.00    +0.099 C 
BRANCH  13  15
ATOM      1  O   UNL     1      -4.313  -0.189  25.615  0.00  0.00    -0.276 OA
ATOM      5  N   UNL     1      -3.714   1.145  23.808  0.00  0.00    -0.311 N 
ATOM     15  C   UNL     1      -3.872  -0.061  24.475  0.00  0.00    +0.214 C 
ATOM     28  H   UNL     1      -3.357   1.143  22.857  0.00  0.00    +0.149 HD
BRANCH   5  18
ATOM     18  C   UNL     1      -4.058   2.421  24.393  0.00  0.00    +0.139 C 
BRANCH  18  20
ATOM     20  C   UNL     1      -2.858   3.306  24.556  0.00  0.00    -0.030 A 
ATOM     21  C   UNL     1      -2.977   4.529  25.216  0.00  0.00    +0.005 A 
ATOM     22  C   UNL     1      -1.622   2.907  24.047  0.00  0.00    +0.005 A 
ATOM     23  C   UNL     1      -1.861   5.352  25.368  0.00  0.00    +0.000 A 
ATOM     24  C   UNL     1      -0.506   3.730  24.199  0.00  0.00    +0.000 A 
ATOM     25  C   UNL     1      -0.626   4.953  24.860  0.00  0.00    +0.000 A 
ENDBRANCH  18  20
ENDBRANCH   5  18
ENDBRANCH  13  15
ENDBRANCH   7  13
TORSDOF 8
ENDMDL
MODEL 7
REMARK VINA RESULT:      -3.6      2.162      6.564
REMARK  Name = 26743010
REMARK  9 active torsions:
REMARK  status: ('A' for Active; 'I' for Inactive)
REMARK    1  A    between atoms: O_3  and  C_19
REMARK    2  A    between atoms: O_3  and  C_26
REMARK    3  A    between atoms: N_5  and  C_18
REMARK    4  A    between atoms: C_7  and  C_13
REMARK    5  A    between atoms: C_8  and  C_12
REMARK    6  A    between atoms: C_12  and  C_14
REMARK    7  A    between atoms: C_13  and  C_15
REMARK    8  A    between atoms: C_17  and  C_19
REMARK    9  A    between atoms: C_18  and  C_20
REMARK                            x       y       z     vdW  Elec       q    Type
REMARK                         _______ _______ _______ _____ _____    ______ ____
ROOT
ATOM      4  N   UNL     1      -4.503  -2.521  24.000  0.00  0.00    -0.316 NA
ATOM      7  C   UNL     1      -2.192  -1.026  25.066  0.00  0.00    +0.004 C 
ATOM      8  C   UNL     1      -3.250  -0.381  24.139  0.00  0.00    +0.012 C 
ATOM      9  C   UNL     1      -2.825  -2.227  25.790  0.00  0.00    +0.019 C 
ATOM     10  C   UNL     1      -3.918  -1.424  23.228  0.00  0.00    +0.085 C 
ATOM     11  C   UNL     1      -3.504  -3.198  24.824  0.00  0.00    +0.081 C 
ATOM     27  H   UNL     1      -4.927  -3.193  23.363  0.00  0.00    +0.122 HD
ENDROOT
BRANCH   8  12
ATOM     12  C   UNL     1      -2.693   0.779  23.312  0.00  0.00    +0.064 C 
BRANCH  12  14
ATOM      2  O   UNL     1      -2.894   4.096  24.697  0.00  0.00    -0.357 OA
ATOM      6  N   UNL     1      -2.180   3.003  24.219  0.00  0.00    -0.083 NA
ATOM     14  C   UNL     1      -3.108   2.105  23.879  0.00  0.00    +0.084 A 
ATOM     16  C   UNL     1      -4.413   2.569  24.118  0.00  0.00    +0.073 A 
ATOM     17  C   UNL     1      -4.223   3.824  24.633  0.00  0.00    +0.163 A 
BRANCH  17  19
ATOM     19  C   UNL     1      -5.130   4.879  25.102  0.00  0.00    +0.236 C 
BRANCH  19   3
ATOM      3  O   UNL     1      -6.044   4.354  26.069  0.00  0.00    -0.375 OA
ATOM     26  C   UNL     1      -5.980   2.939  26.118  0.00  0.00    +0.194 C 
ENDBRANCH  19   3
ENDBRANCH  17  19
ENDBRANCH  12  14
ENDBRANCH   8  12
BRANCH   7  13
ATOM     13  C   UNL     1      -0.902  -1.440  24.349  0.00  0.00    +0.099 C 
BRANCH  13  15
ATOM      1  O   UNL     1       0.070   0.708  24.890  0.00  0.00    -0.276 OA
ATOM      5  N   UNL     1       0.864  -0.474  23.052  0.00  0.00    -0.311 N 
ATOM     15  C   UNL     1       0.045  -0.276  24.155  0.00  0.00    +0.214 C 
ATOM     28  H   UNL     1       0.752  -1.316  22.495  0.00  0.00    +0.149 HD
BRANCH   5  18
ATOM     18  C   UNL     1       1.864   0.481  22.631  0.00  0.00    +0.139 C 
BRANCH  18  20
ATOM     20  C   UNL     1       3.241   0.086  23.078  0.00  0.00    -0.030 A 
ATOM     21  C   UNL     1       4.285   1.010  23.023  0.00  0.00    +0.005 A 
ATOM     22  C   UNL     1       3.478  -1.206  23.548  0.00  0.00    +0.005 A 
ATOM     23  C   UNL     1       5.565   0.643  23.438  0.00  0.00    +0.000 A 
ATOM     24  C   UNL     1       4.758  -1.573  23.963  0.00  0.00    +0.000 A 
ATOM     25  C   UNL     1       5.801  -0.648  23.908  0.00  0.00    +0.000 A 
ENDBRANCH  18  20
ENDBRANCH   5  18
ENDBRANCH  13  15
ENDBRANCH   7  13
TORSDOF 8
ENDMDL
MODEL 8
REMARK VINA RESULT:      -3.2      2.218      3.419
REMARK  Name = 26743010
REMARK  9 active torsions:
REMARK  status: ('A' for Active; 'I' for Inactive)
REMARK    1  A    between atoms: O_3  and  C_19
REMARK    2  A    between atoms: O_3  and  C_26
REMARK    3  A    between atoms: N_5  and  C_18
REMARK    4  A    between atoms: C_7  and  C_13
REMARK    5  A    between atoms: C_8  and  C_12
REMARK    6  A    between atoms: C_12  and  C_14
REMARK    7  A    between atoms: C_13  and  C_15
REMARK    8  A    between atoms: C_17  and  C_19
REMARK    9  A    between atoms: C_18  and  C_20
REMARK                            x       y       z     vdW  Elec       q    Type
REMARK                         _______ _______ _______ _____ _____    ______ ____
ROOT
ATOM      4  N   UNL     1      -1.193   0.947  25.782  0.00  0.00    -0.316 NA
ATOM      7  C   UNL     1      -0.653  -1.711  24.620  0.00  0.00    +0.004 C 
ATOM      8  C   UNL     1       0.028  -0.420  24.107  0.00  0.00    +0.012 C 
ATOM      9  C   UNL     1      -1.087  -1.503  26.081  0.00  0.00    +0.019 C 
ATOM     10  C   UNL     1      -0.840   0.822  24.367  0.00  0.00    +0.085 C 
ATOM     11  C   UNL     1      -1.910  -0.229  26.269  0.00  0.00    +0.081 C 
ATOM     27  H   UNL     1      -1.774   1.775  25.913  0.00  0.00    +0.122 HD
ENDROOT
BRANCH   8  12
ATOM     12  C   UNL     1       0.426  -0.499  22.632  0.00  0.00    +0.064 C 
BRANCH  12  14
ATOM      2  O   UNL     1       3.701   0.305  21.373  0.00  0.00    -0.357 OA
ATOM      6  N   UNL     1       2.372  -0.060  21.198  0.00  0.00    -0.083 NA
ATOM     14  C   UNL     1       1.867  -0.128  22.433  0.00  0.00    +0.084 A 
ATOM     16  C   UNL     1       2.821   0.179  23.418  0.00  0.00    +0.073 A 
ATOM     17  C   UNL     1       3.957   0.443  22.700  0.00  0.00    +0.163 A 
BRANCH  17  19
ATOM     19  C   UNL     1       5.325   0.828  23.066  0.00  0.00    +0.236 C 
BRANCH  19   3
ATOM      3  O   UNL     1       5.634   0.370  24.385  0.00  0.00    -0.375 OA
ATOM     26  C   UNL     1       5.779  -1.039  24.418  0.00  0.00    +0.194 C 
ENDBRANCH  19   3
ENDBRANCH  17  19
ENDBRANCH  12  14
ENDBRANCH   8  12
BRANCH   7  13
ATOM     13  C   UNL     1      -1.835  -2.178  23.762  0.00  0.00    +0.099 C 
BRANCH  13  15
ATOM      1  O   UNL     1      -3.690  -2.615  25.251  0.00  0.00    -0.276 OA
ATOM      5  N   UNL     1      -3.708  -0.696  23.939  0.00  0.00    -0.311 N 
ATOM     15  C   UNL     1      -3.168  -1.884  24.413  0.00  0.00    +0.214 C 
ATOM     28  H   UNL     1      -3.205  -0.171  23.230  0.00  0.00    +0.149 HD
BRANCH   5  18
ATOM     18  C   UNL     1      -4.977  -0.172  24.388  0.00  0.00    +0.139 C 
BRANCH  18  20
ATOM     20  C   UNL     1      -4.907   1.299  24.678  0.00  0.00    -0.030 A 
ATOM     21  C   UNL     1      -5.771   1.868  25.614  0.00  0.00    +0.005 A 
ATOM     22  C   UNL     1      -3.978   2.098  24.011  0.00  0.00    +0.005 A 
ATOM     23  C   UNL     1      -5.705   3.235  25.883  0.00  0.00    +0.000 A 
ATOM     24  C   UNL     1      -3.913   3.465  24.280  0.00  0.00    +0.000 A 
ATOM     25  C   UNL     1      -4.777   4.033  25.216  0.00  0.00    +0.000 A 
ENDBRANCH  18  20
ENDBRANCH   5  18
ENDBRANCH  13  15
ENDBRANCH   7  13
TORSDOF 8
ENDMDL
MODEL 9
REMARK VINA RESULT:      -3.1      2.371      5.658
REMARK  Name = 26743010
REMARK  9 active torsions:
REMARK  status: ('A' for Active; 'I' for Inactive)
REMARK    1  A    between atoms: O_3  and  C_19
REMARK    2  A    between atoms: O_3  and  C_26
REMARK    3  A    between atoms: N_5  and  C_18
REMARK    4  A    between atoms: C_7  and  C_13
REMARK    5  A    between atoms: C_8  and  C_12
REMARK    6  A    between atoms: C_12  and  C_14
REMARK    7  A    between atoms: C_13  and  C_15
REMARK    8  A    between atoms: C_17  and  C_19
REMARK    9  A    between atoms: C_18  and  C_20
REMARK                            x       y       z     vdW  Elec       q    Type
REMARK                         _______ _______ _______ _____ _____    ______ ____
ROOT
ATOM      4  N   UNL     1      -6.570   2.725  25.270  0.00  0.00    -0.316 NA
ATOM      7  C   UNL     1      -3.958   3.979  24.713  0.00  0.00    +0.004 C 
ATOM      8  C   UNL     1      -4.478   2.749  23.933  0.00  0.00    +0.012 C 
ATOM      9  C   UNL     1      -5.157   4.751  25.290  0.00  0.00    +0.019 C 
ATOM     10  C   UNL     1      -5.457   1.914  24.775  0.00  0.00    +0.085 C 
ATOM     11  C   UNL     1      -6.106   3.850  26.079  0.00  0.00    +0.081 C 
ATOM     27  H   UNL     1      -7.191   2.141  25.828  0.00  0.00    +0.122 HD
ENDROOT
BRANCH   8  12
ATOM     12  C   UNL     1      -3.353   1.868  23.386  0.00  0.00    +0.064 C 
BRANCH  12  14
ATOM      2  O   UNL     1      -3.006  -0.925  25.631  0.00  0.00    -0.357 OA
ATOM      6  N   UNL     1      -2.895   0.424  25.320  0.00  0.00    -0.083 NA
ATOM     14  C   UNL     1      -3.329   0.528  24.062  0.00  0.00    +0.084 A 
ATOM     16  C   UNL     1      -3.725  -0.712  23.530  0.00  0.00    +0.073 A 
ATOM     17  C   UNL     1      -3.501  -1.592  24.556  0.00  0.00    +0.163 A 
BRANCH  17  19
ATOM     19  C   UNL     1      -3.685  -3.040  24.712  0.00  0.00    +0.236 C 
BRANCH  19   3
ATOM      3  O   UNL     1      -2.627  -3.748  24.058  0.00  0.00    -0.375 OA
ATOM     26  C   UNL     1      -1.399  -3.049  24.168  0.00  0.00    +0.194 C 
ENDBRANCH  19   3
ENDBRANCH  17  19
ENDBRANCH  12  14
ENDBRANCH   8  12
BRANCH   7  13
ATOM     13  C   UNL     1      -2.948   3.639  25.816  0.00  0.00    +0.099 C 
BRANCH  13  15
ATOM      1  O   UNL     1      -1.097   5.029  25.114  0.00  0.00    -0.276 OA
ATOM      5  N   UNL     1      -0.777   2.739  25.357  0.00  0.00    -0.311 N 
ATOM     15  C   UNL     1      -1.522   3.909  25.390  0.00  0.00    +0.214 C 
ATOM     28  H   UNL     1      -1.227   1.858  25.586  0.00  0.00    +0.149 HD
BRANCH   5  18
ATOM     18  C   UNL     1       0.618   2.702  24.982  0.00  0.00    +0.139 C 
BRANCH  18  20
ATOM     20  C   UNL     1       0.916   1.574  24.038  0.00  0.00    -0.030 A 
ATOM     21  C   UNL     1      -0.068   0.629  23.746  0.00  0.00    +0.005 A 
ATOM     22  C   UNL     1       2.178   1.470  23.452  0.00  0.00    +0.005 A 
ATOM     23  C   UNL     1       0.210  -0.419  22.868  0.00  0.00    +0.000 A 
ATOM     24  C   UNL     1       2.455   0.421  22.574  0.00  0.00    +0.000 A 
ATOM     25  C   UNL     1       1.471  -0.523  22.283  0.00  0.00    +0.000 A 
ENDBRANCH  18  20
ENDBRANCH   5  18
ENDBRANCH  13  15
ENDBRANCH   7  13
TORSDOF 8
ENDMDL
MODEL 10
REMARK VINA RESULT:      -2.6      2.335      6.134
REMARK  Name = 26743010
REMARK  9 active torsions:
REMARK  status: ('A' for Active; 'I' for Inactive)
REMARK    1  A    between atoms: O_3  and  C_19
REMARK    2  A    between atoms: O_3  and  C_26
REMARK    3  A    between atoms: N_5  and  C_18
REMARK    4  A    between atoms: C_7  and  C_13
REMARK    5  A    between atoms: C_8  and  C_12
REMARK    6  A    between atoms: C_12  and  C_14
REMARK    7  A    between atoms: C_13  and  C_15
REMARK    8  A    between atoms: C_17  and  C_19
REMARK    9  A    between atoms: C_18  and  C_20
REMARK                            x       y       z     vdW  Elec       q    Type
REMARK                         _______ _______ _______ _____ _____    ______ ____
ROOT
ATOM      4  N   UNL     1      -0.417  -0.314  25.402  0.00  0.00    -0.316 NA
ATOM      7  C   UNL     1       0.339   2.191  24.039  0.00  0.00    +0.004 C 
ATOM      8  C   UNL     1       0.161   2.094  25.573  0.00  0.00    +0.012 C 
ATOM      9  C   UNL     1       0.673   0.797  23.484  0.00  0.00    +0.019 C 
ATOM     10  C   UNL     1      -0.820   0.976  25.962  0.00  0.00    +0.085 C 
ATOM     11  C   UNL     1      -0.321  -0.269  23.945  0.00  0.00    +0.081 C 
ATOM     27  H   UNL     1      -1.094  -1.026  25.674  0.00  0.00    +0.122 HD
ENDROOT
BRANCH   8  12
ATOM     12  C   UNL     1      -0.254   3.421  26.213  0.00  0.00    +0.064 C 
BRANCH  12  14
ATOM      2  O   UNL     1      -3.278   4.809  24.838  0.00  0.00    -0.357 OA
ATOM      6  N   UNL     1      -1.894   4.724  24.929  0.00  0.00    -0.083 NA
ATOM     14  C   UNL     1      -1.665   3.785  25.851  0.00  0.00    +0.084 A 
ATOM     16  C   UNL     1      -2.854   3.247  26.372  0.00  0.00    +0.073 A 
ATOM     17  C   UNL     1      -3.838   3.925  25.703  0.00  0.00    +0.163 A 
BRANCH  17  19
ATOM     19  C   UNL     1      -5.305   3.882  25.736  0.00  0.00    +0.236 C 
BRANCH  19   3
ATOM      3  O   UNL     1      -5.775   2.601  25.306  0.00  0.00    -0.375 OA
ATOM     26  C   UNL     1      -6.331   1.870  26.386  0.00  0.00    +0.194 C 
ENDBRANCH  19   3
ENDBRANCH  17  19
ENDBRANCH  12  14
ENDBRANCH   8  12
BRANCH   7  13
ATOM     13  C   UNL     1      -0.866   2.795  23.308  0.00  0.00    +0.099 C 
BRANCH  13  15
ATOM      1  O   UNL     1      -1.701   0.982  21.941  0.00  0.00    -0.276 OA
ATOM      5  N   UNL     1      -2.987   1.759  23.716  0.00  0.00    -0.311 N 
ATOM     15  C   UNL     1      -1.871   1.742  22.891  0.00  0.00    +0.214 C 
ATOM     28  H   UNL     1      -3.039   2.442  24.466  0.00  0.00    +0.149 HD
BRANCH   5  18
ATOM     18  C   UNL     1      -4.106   0.861  23.546  0.00  0.00    +0.139 C 
BRANCH  18  20
ATOM     20  C   UNL     1      -3.875  -0.459  24.222  0.00  0.00    -0.030 A 
ATOM     21  C   UNL     1      -3.882  -1.637  23.475  0.00  0.00    +0.005 A 
ATOM     22  C   UNL     1      -3.653  -0.508  25.599  0.00  0.00    +0.005 A 
ATOM     23  C   UNL     1      -3.667  -2.863  24.104  0.00  0.00    +0.000 A 
ATOM     24  C   UNL     1      -3.438  -1.735  26.227  0.00  0.00    +0.000 A 
ATOM     25  C   UNL     1      -3.445  -2.912  25.479  0.00  0.00    +0.000 A 
ENDBRANCH  18  20
ENDBRANCH   5  18
ENDBRANCH  13  15
ENDBRANCH   7  13
TORSDOF 8
ENDMDL
