MODEL 1
REMARK VINA RESULT:      -1.9      0.000      0.000
REMARK  Name = 11879859
REMARK  7 active torsions:
REMARK  status: ('A' for Active; 'I' for Inactive)
REMARK    1  A    between atoms: S_1  and  N_11
REMARK    2  A    between atoms: S_1  and  C_27
REMARK    3  A    between atoms: O_7  and  C_26
REMARK    4  A    between atoms: N_11  and  C_22
REMARK    5  A    between atoms: C_21  and  C_24
REMARK    6  A    between atoms: C_24  and  C_25
REMARK    7  A    between atoms: C_25  and  C_26
REMARK                            x       y       z     vdW  Elec       q    Type
REMARK                         _______ _______ _______ _____ _____    ______ ____
ROOT
ATOM      3  O   UNL     1       0.072   2.382  26.052  0.00  0.00    -0.266 OA
ATOM      4  O   UNL     1      -4.412  -0.499  26.610  0.00  0.00    -0.276 OA
ATOM      9  N   UNL     1      -4.754   1.281  25.156  0.00  0.00    -0.301 N 
ATOM     10  N   UNL     1      -1.923   2.739  24.876  0.00  0.00    -0.310 N 
ATOM     12  C   UNL     1      -4.081   3.535  25.997  0.00  0.00    +0.027 C 
ATOM     13  C   UNL     1      -4.059   3.077  23.581  0.00  0.00    +0.054 C 
ATOM     14  C   UNL     1      -4.406   4.129  24.632  0.00  0.00    +0.018 C 
ATOM     15  C   UNL     1      -4.902   2.256  26.238  0.00  0.00    +0.113 C 
ATOM     16  C   UNL     1      -2.572   3.276  26.079  0.00  0.00    +0.130 C 
ATOM     17  C   UNL     1      -4.925   1.821  23.799  0.00  0.00    +0.117 C 
ATOM     18  C   UNL     1      -2.588   2.706  23.644  0.00  0.00    +0.027 A 
ATOM     19  C   UNL     1      -1.940   2.320  22.529  0.00  0.00    +0.024 A 
ATOM     20  C   UNL     1      -0.570   2.359  25.003  0.00  0.00    +0.274 A 
ATOM     21  C   UNL     1      -4.554  -0.065  25.464  0.00  0.00    +0.216 C 
ATOM     22  C   UNL     1       0.084   1.921  23.744  0.00  0.00    +0.112 A 
ATOM     23  C   UNL     1      -0.561   1.913  22.577  0.00  0.00    +0.031 A 
ENDROOT
BRANCH  22  11
ATOM     11  N   UNL     1       1.428   1.510  23.750  0.00  0.00    -0.211 N 
ATOM     31  H   UNL     1       2.060   2.231  23.377  0.00  0.00    +0.174 HD
BRANCH  11   1
ATOM      1  S   UNL     1       1.723  -0.052  23.136  0.00  0.00    +0.079 S 
ATOM      5  O   UNL     1       1.059  -1.043  23.961  0.00  0.00    -0.149 OA
ATOM      6  O   UNL     1       1.559  -0.031  21.695  0.00  0.00    -0.149 OA
BRANCH   1  27
ATOM      2  S   UNL     1       4.490   0.860  22.892  0.00  0.00    -0.077 S 
ATOM     27  C   UNL     1       3.463  -0.396  23.396  0.00  0.00    +0.146 A 
ATOM     28  C   UNL     1       4.109  -1.465  23.917  0.00  0.00    +0.036 A 
ATOM     29  C   UNL     1       5.520  -1.262  23.911  0.00  0.00    +0.010 A 
ATOM     30  C   UNL     1       5.864  -0.039  23.379  0.00  0.00    +0.047 A 
ENDBRANCH   1  27
ENDBRANCH  11   1
ENDBRANCH  22  11
BRANCH  21  24
ATOM     24  C   UNL     1      -4.504  -1.024  24.301  0.00  0.00    +0.107 C 
BRANCH  24  25
ATOM     25  C   UNL     1      -3.734  -2.268  24.695  0.00  0.00    +0.129 C 
BRANCH  25  26
ATOM      8  O   UNL     1      -1.543  -2.944  23.928  0.00  0.00    -0.251 OA
ATOM     26  C   UNL     1      -2.255  -2.095  24.448  0.00  0.00    +0.305 C 
BRANCH  26   7
ATOM      7  O   UNL     1      -1.790  -0.898  24.887  0.00  0.00    -0.481 OA
ATOM     32  H   UNL     1      -1.552  -0.924  25.838  0.00  0.00    +0.295 HD
ENDBRANCH  26   7
ENDBRANCH  25  26
ENDBRANCH  24  25
ENDBRANCH  21  24
TORSDOF 7
ENDMDL
MODEL 2
REMARK VINA RESULT:       1.1      2.772      4.979
REMARK  Name = 11879859
REMARK  7 active torsions:
REMARK  status: ('A' for Active; 'I' for Inactive)
REMARK    1  A    between atoms: S_1  and  N_11
REMARK    2  A    between atoms: S_1  and  C_27
REMARK    3  A    between atoms: O_7  and  C_26
REMARK    4  A    between atoms: N_11  and  C_22
REMARK    5  A    between atoms: C_21  and  C_24
REMARK    6  A    between atoms: C_24  and  C_25
REMARK    7  A    between atoms: C_25  and  C_26
REMARK                            x       y       z     vdW  Elec       q    Type
REMARK                         _______ _______ _______ _____ _____    ______ ____
ROOT
ATOM      3  O   UNL     1      -3.221   0.477  22.280  0.00  0.00    -0.266 OA
ATOM      4  O   UNL     1      -0.008   3.807  24.984  0.00  0.00    -0.276 OA
ATOM      9  N   UNL     1      -2.216   4.063  25.663  0.00  0.00    -0.301 N 
ATOM     10  N   UNL     1      -3.891   1.885  24.029  0.00  0.00    -0.310 N 
ATOM     12  C   UNL     1      -3.889   4.438  23.847  0.00  0.00    +0.027 C 
ATOM     13  C   UNL     1      -4.587   3.366  25.947  0.00  0.00    +0.054 C 
ATOM     14  C   UNL     1      -5.008   4.373  24.879  0.00  0.00    +0.018 C 
ATOM     15  C   UNL     1      -2.572   4.884  24.505  0.00  0.00    +0.113 C 
ATOM     16  C   UNL     1      -3.760   3.069  23.169  0.00  0.00    +0.130 C 
ATOM     17  C   UNL     1      -3.297   3.851  26.637  0.00  0.00    +0.117 C 
ATOM     18  C   UNL     1      -4.364   1.991  25.344  0.00  0.00    +0.027 A 
ATOM     19  C   UNL     1      -4.589   0.886  26.079  0.00  0.00    +0.024 A 
ATOM     20  C   UNL     1      -3.620   0.636  23.433  0.00  0.00    +0.274 A 
ATOM     21  C   UNL     1      -0.902   3.618  25.814  0.00  0.00    +0.216 C 
ATOM     22  C   UNL     1      -3.866  -0.544  24.300  0.00  0.00    +0.112 A 
ATOM     23  C   UNL     1      -4.332  -0.424  25.543  0.00  0.00    +0.031 A 
ENDROOT
BRANCH  22  11
ATOM     11  N   UNL     1      -3.621  -1.841  23.816  0.00  0.00    -0.211 N 
ATOM     31  H   UNL     1      -4.417  -2.474  23.972  0.00  0.00    +0.174 HD
BRANCH  11   1
ATOM      1  S   UNL     1      -2.112  -2.512  24.237  0.00  0.00    +0.079 S 
ATOM      5  O   UNL     1      -2.027  -2.677  25.676  0.00  0.00    -0.149 OA
ATOM      6  O   UNL     1      -1.811  -3.602  23.329  0.00  0.00    -0.149 OA
BRANCH   1  27
ATOM      2  S   UNL     1      -0.660  -0.142  25.145  0.00  0.00    -0.077 S 
ATOM     27  C   UNL     1      -0.871  -1.266  23.889  0.00  0.00    +0.146 A 
ATOM     28  C   UNL     1      -0.073  -1.055  22.816  0.00  0.00    +0.036 A 
ATOM     29  C   UNL     1       0.761   0.083  23.016  0.00  0.00    +0.010 A 
ATOM     30  C   UNL     1       0.544   0.674  24.241  0.00  0.00    +0.047 A 
ENDBRANCH   1  27
ENDBRANCH  11   1
ENDBRANCH  22  11
BRANCH  21  24
ATOM     24  C   UNL     1      -0.587   2.857  27.076  0.00  0.00    +0.107 C 
BRANCH  24  25
ATOM     25  C   UNL     1       0.905   2.606  27.166  0.00  0.00    +0.129 C 
BRANCH  25  26
ATOM      8  O   UNL     1       0.611   2.600  29.565  0.00  0.00    -0.251 OA
ATOM     26  C   UNL     1       1.367   2.575  28.603  0.00  0.00    +0.305 C 
BRANCH  26   7
ATOM      7  O   UNL     1       2.718   2.539  28.716  0.00  0.00    -0.481 OA
ATOM     32  H   UNL     1       3.128   1.977  28.024  0.00  0.00    +0.295 HD
ENDBRANCH  26   7
ENDBRANCH  25  26
ENDBRANCH  24  25
ENDBRANCH  21  24
TORSDOF 7
ENDMDL
MODEL 3
REMARK VINA RESULT:       1.5      2.041      3.623
REMARK  Name = 11879859
REMARK  7 active torsions:
REMARK  status: ('A' for Active; 'I' for Inactive)
REMARK    1  A    between atoms: S_1  and  N_11
REMARK    2  A    between atoms: S_1  and  C_27
REMARK    3  A    between atoms: O_7  and  C_26
REMARK    4  A    between atoms: N_11  and  C_22
REMARK    5  A    between atoms: C_21  and  C_24
REMARK    6  A    between atoms: C_24  and  C_25
REMARK    7  A    between atoms: C_25  and  C_26
REMARK                            x       y       z     vdW  Elec       q    Type
REMARK                         _______ _______ _______ _____ _____    ______ ____
ROOT
ATOM      3  O   UNL     1      -0.629   0.828  22.178  0.00  0.00    -0.266 OA
ATOM      4  O   UNL     1      -1.965   5.251  24.892  0.00  0.00    -0.276 OA
ATOM      9  N   UNL     1      -3.530   3.569  25.240  0.00  0.00    -0.301 N 
ATOM     10  N   UNL     1      -2.439   1.017  23.654  0.00  0.00    -0.310 N 
ATOM     12  C   UNL     1      -4.471   2.501  23.188  0.00  0.00    +0.027 C 
ATOM     13  C   UNL     1      -4.351   1.221  25.284  0.00  0.00    +0.054 C 
ATOM     14  C   UNL     1      -5.223   1.506  24.064  0.00  0.00    +0.018 C 
ATOM     15  C   UNL     1      -4.201   3.803  23.961  0.00  0.00    +0.113 C 
ATOM     16  C   UNL     1      -3.178   1.846  22.691  0.00  0.00    +0.130 C 
ATOM     17  C   UNL     1      -4.132   2.523  26.080  0.00  0.00    +0.117 C 
ATOM     18  C   UNL     1      -3.012   0.636  24.874  0.00  0.00    +0.027 A 
ATOM     19  C   UNL     1      -2.368  -0.218  25.692  0.00  0.00    +0.024 A 
ATOM     20  C   UNL     1      -1.176   0.544  23.243  0.00  0.00    +0.274 A 
ATOM     21  C   UNL     1      -2.455   4.377  25.613  0.00  0.00    +0.216 C 
ATOM     22  C   UNL     1      -0.505  -0.376  24.196  0.00  0.00    +0.112 A 
ATOM     23  C   UNL     1      -1.074  -0.741  25.346  0.00  0.00    +0.031 A 
ENDROOT
BRANCH  22  11
ATOM     11  N   UNL     1       0.762  -0.904  23.898  0.00  0.00    -0.211 N 
ATOM     31  H   UNL     1       1.214  -1.329  24.719  0.00  0.00    +0.174 HD
BRANCH  11   1
ATOM      1  S   UNL     1       1.791   0.113  22.995  0.00  0.00    +0.079 S 
ATOM      5  O   UNL     1       1.662  -0.184  21.581  0.00  0.00    -0.149 OA
ATOM      6  O   UNL     1       1.676   1.467  23.501  0.00  0.00    -0.149 OA
BRANCH   1  27
ATOM      2  S   UNL     1       4.631   0.807  22.997  0.00  0.00    -0.077 S 
ATOM     27  C   UNL     1       3.473  -0.379  23.370  0.00  0.00    +0.146 A 
ATOM     28  C   UNL     1       3.991  -1.515  23.894  0.00  0.00    +0.036 A 
ATOM     29  C   UNL     1       5.410  -1.426  24.002  0.00  0.00    +0.010 A 
ATOM     30  C   UNL     1       5.888  -0.216  23.549  0.00  0.00    +0.047 A 
ENDBRANCH   1  27
ENDBRANCH  11   1
ENDBRANCH  22  11
BRANCH  21  24
ATOM     24  C   UNL     1      -1.874   4.139  26.983  0.00  0.00    +0.107 C 
BRANCH  24  25
ATOM     25  C   UNL     1      -1.234   2.766  27.038  0.00  0.00    +0.129 C 
BRANCH  25  26
ATOM      8  O   UNL     1       1.179   2.625  27.007  0.00  0.00    -0.251 OA
ATOM     26  C   UNL     1       0.131   2.776  26.393  0.00  0.00    +0.305 C 
BRANCH  26   7
ATOM      7  O   UNL     1       0.074   2.993  25.056  0.00  0.00    -0.481 OA
ATOM     32  H   UNL     1       0.856   3.489  24.731  0.00  0.00    +0.295 HD
ENDBRANCH  26   7
ENDBRANCH  25  26
ENDBRANCH  24  25
ENDBRANCH  21  24
TORSDOF 7
ENDMDL
