MODEL 1
REMARK VINA RESULT:      -6.9      0.000      0.000
REMARK  Name = 25390434
REMARK  8 active torsions:
REMARK  status: ('A' for Active; 'I' for Inactive)
REMARK    1  A    between atoms: O_2  and  C_13
REMARK    2  A    between atoms: O_3  and  C_14
REMARK    3  A    between atoms: N_7  and  C_9
REMARK    4  A    between atoms: N_8  and  C_17
REMARK    5  A    between atoms: C_10  and  C_16
REMARK    6  A    between atoms: C_15  and  C_17
REMARK    7  A    between atoms: C_16  and  C_18
REMARK    8  A    between atoms: C_19  and  C_20
REMARK                            x       y       z     vdW  Elec       q    Type
REMARK                         _______ _______ _______ _____ _____    ______ ____
ROOT
ATOM      1  O   UNL     1      -2.126   2.383  23.001  0.00  0.00    -0.366 OA
ATOM     10  C   UNL     1      -3.063   2.965  23.924  0.00  0.00    +0.158 C 
ATOM     13  C   UNL     1      -2.421   2.841  25.294  0.00  0.00    +0.175 C 
ATOM     14  C   UNL     1      -0.957   3.045  24.963  0.00  0.00    +0.176 C 
ATOM     15  C   UNL     1      -0.827   2.313  23.633  0.00  0.00    +0.167 C 
ENDROOT
BRANCH  13   2
ATOM      2  O   UNL     1      -2.927   3.792  26.205  0.00  0.00    -0.387 OA
ATOM     25  H   UNL     1      -2.170   4.163  26.691  0.00  0.00    +0.210 HD
ENDBRANCH  13   2
BRANCH  14   3
ATOM      3  O   UNL     1      -0.690   4.429  24.736  0.00  0.00    -0.387 OA
ATOM     26  H   UNL     1       0.267   4.519  24.585  0.00  0.00    +0.210 HD
ENDBRANCH  14   3
BRANCH  10  16
ATOM     16  C   UNL     1      -4.398   2.248  23.817  0.00  0.00    +0.130 C 
BRANCH  16  18
ATOM      4  O   UNL     1      -5.131   0.995  25.754  0.00  0.00    -0.276 OA
ATOM      7  N   UNL     1      -3.724  -0.026  24.215  0.00  0.00    -0.312 N 
ATOM     18  C   UNL     1      -4.477   1.029  24.715  0.00  0.00    +0.216 C 
ATOM     24  H   UNL     1      -3.195   0.091  23.355  0.00  0.00    +0.149 HD
BRANCH   7   9
ATOM      9  C   UNL     1      -3.634  -1.293  24.881  0.00  0.00    +0.073 C 
ATOM     11  C   UNL     1      -3.938  -2.573  24.159  0.00  0.00    +0.024 C 
ATOM     12  C   UNL     1      -2.529  -2.259  24.568  0.00  0.00    +0.024 C 
ENDBRANCH   7   9
ENDBRANCH  16  18
ENDBRANCH  10  16
BRANCH  15  17
ATOM     17  C   UNL     1      -0.466   0.843  23.794  0.00  0.00    +0.138 C 
BRANCH  17   8
ATOM      5  O   UNL     1       1.241  -0.277  21.774  0.00  0.00    -0.267 OA
ATOM      8  N   UNL     1       0.954   0.664  23.876  0.00  0.00    -0.306 N 
ATOM     19  C   UNL     1       1.706   0.109  22.844  0.00  0.00    +0.279 C 
ATOM     27  H   UNL     1       1.425   0.957  24.727  0.00  0.00    +0.149 HD
BRANCH  19  20
ATOM      6  O   UNL     1       3.603  -1.196  23.641  0.00  0.00    -0.458 OA
ATOM     20  C   UNL     1       3.163  -0.032  23.095  0.00  0.00    +0.189 A 
ATOM     21  C   UNL     1       4.215   0.826  22.871  0.00  0.00    +0.054 A 
ATOM     22  C   UNL     1       5.377   0.145  23.308  0.00  0.00    +0.042 A 
ATOM     23  C   UNL     1       4.952  -1.079  23.768  0.00  0.00    +0.196 A 
ENDBRANCH  19  20
ENDBRANCH  17   8
ENDBRANCH  15  17
TORSDOF 8
ENDMDL
MODEL 2
REMARK VINA RESULT:      -6.7      1.834      3.852
REMARK  Name = 25390434
REMARK  8 active torsions:
REMARK  status: ('A' for Active; 'I' for Inactive)
REMARK    1  A    between atoms: O_2  and  C_13
REMARK    2  A    between atoms: O_3  and  C_14
REMARK    3  A    between atoms: N_7  and  C_9
REMARK    4  A    between atoms: N_8  and  C_17
REMARK    5  A    between atoms: C_10  and  C_16
REMARK    6  A    between atoms: C_15  and  C_17
REMARK    7  A    between atoms: C_16  and  C_18
REMARK    8  A    between atoms: C_19  and  C_20
REMARK                            x       y       z     vdW  Elec       q    Type
REMARK                         _______ _______ _______ _____ _____    ______ ____
ROOT
ATOM      1  O   UNL     1      -2.079   0.154  25.425  0.00  0.00    -0.366 OA
ATOM     10  C   UNL     1      -3.442  -0.253  25.213  0.00  0.00    +0.158 C 
ATOM     13  C   UNL     1      -3.429  -1.090  23.946  0.00  0.00    +0.175 C 
ATOM     14  C   UNL     1      -2.093  -1.795  24.062  0.00  0.00    +0.176 C 
ATOM     15  C   UNL     1      -1.207  -0.703  24.652  0.00  0.00    +0.167 C 
ENDROOT
BRANCH  13   2
ATOM      2  O   UNL     1      -4.525  -1.976  23.884  0.00  0.00    -0.387 OA
ATOM     25  H   UNL     1      -4.878  -2.066  24.786  0.00  0.00    +0.210 HD
ENDBRANCH  13   2
BRANCH  14   3
ATOM      3  O   UNL     1      -2.175  -2.859  25.009  0.00  0.00    -0.387 OA
ATOM     26  H   UNL     1      -2.149  -2.462  25.896  0.00  0.00    +0.210 HD
ENDBRANCH  14   3
BRANCH  10  16
ATOM     16  C   UNL     1      -4.332   0.973  25.116  0.00  0.00    +0.130 C 
BRANCH  16  18
ATOM      4  O   UNL     1      -3.956   2.300  23.126  0.00  0.00    -0.276 OA
ATOM      7  N   UNL     1      -2.804   2.829  25.071  0.00  0.00    -0.312 N 
ATOM     18  C   UNL     1      -3.698   2.090  24.308  0.00  0.00    +0.216 C 
ATOM     24  H   UNL     1      -2.634   2.577  26.041  0.00  0.00    +0.149 HD
BRANCH   7   9
ATOM      9  C   UNL     1      -2.072   3.942  24.538  0.00  0.00    +0.073 C 
ATOM     11  C   UNL     1      -1.795   5.159  25.370  0.00  0.00    +0.024 C 
ATOM     12  C   UNL     1      -0.672   4.240  24.989  0.00  0.00    +0.024 C 
ENDBRANCH   7   9
ENDBRANCH  16  18
ENDBRANCH  10  16
BRANCH  15  17
ATOM     17  C   UNL     1      -0.532   0.155  23.591  0.00  0.00    +0.138 C 
BRANCH  17   8
ATOM      5  O   UNL     1       1.420  -0.351  21.547  0.00  0.00    -0.267 OA
ATOM      8  N   UNL     1       0.893   0.150  23.751  0.00  0.00    -0.306 N 
ATOM     19  C   UNL     1       1.769  -0.107  22.699  0.00  0.00    +0.279 C 
ATOM     27  H   UNL     1       1.272   0.344  24.673  0.00  0.00    +0.149 HD
BRANCH  19  20
ATOM      6  O   UNL     1       3.735  -1.206  23.628  0.00  0.00    -0.458 OA
ATOM     20  C   UNL     1       3.215  -0.100  23.034  0.00  0.00    +0.189 A 
ATOM     21  C   UNL     1       4.190   0.853  22.850  0.00  0.00    +0.054 A 
ATOM     22  C   UNL     1       5.386   0.297  23.365  0.00  0.00    +0.042 A 
ATOM     23  C   UNL     1       5.056  -0.955  23.827  0.00  0.00    +0.196 A 
ENDBRANCH  19  20
ENDBRANCH  17   8
ENDBRANCH  15  17
TORSDOF 8
ENDMDL
MODEL 3
REMARK VINA RESULT:      -5.5      1.717      5.800
REMARK  Name = 25390434
REMARK  8 active torsions:
REMARK  status: ('A' for Active; 'I' for Inactive)
REMARK    1  A    between atoms: O_2  and  C_13
REMARK    2  A    between atoms: O_3  and  C_14
REMARK    3  A    between atoms: N_7  and  C_9
REMARK    4  A    between atoms: N_8  and  C_17
REMARK    5  A    between atoms: C_10  and  C_16
REMARK    6  A    between atoms: C_15  and  C_17
REMARK    7  A    between atoms: C_16  and  C_18
REMARK    8  A    between atoms: C_19  and  C_20
REMARK                            x       y       z     vdW  Elec       q    Type
REMARK                         _______ _______ _______ _____ _____    ______ ____
ROOT
ATOM      1  O   UNL     1      -2.493   2.945  26.030  0.00  0.00    -0.366 OA
ATOM     10  C   UNL     1      -1.091   2.893  25.714  0.00  0.00    +0.158 C 
ATOM     13  C   UNL     1      -0.954   3.525  24.340  0.00  0.00    +0.175 C 
ATOM     14  C   UNL     1      -2.012   4.607  24.398  0.00  0.00    +0.176 C 
ATOM     15  C   UNL     1      -3.131   3.918  25.170  0.00  0.00    +0.167 C 
ENDROOT
BRANCH  13   2
ATOM      2  O   UNL     1       0.346   4.024  24.113  0.00  0.00    -0.387 OA
ATOM     25  H   UNL     1       0.254   4.903  23.706  0.00  0.00    +0.210 HD
ENDBRANCH  13   2
BRANCH  14   3
ATOM      3  O   UNL     1      -1.550   5.710  25.177  0.00  0.00    -0.387 OA
ATOM     26  H   UNL     1      -2.069   5.723  25.999  0.00  0.00    +0.210 HD
ENDBRANCH  14   3
BRANCH  10  16
ATOM     16  C   UNL     1      -0.609   1.454  25.766  0.00  0.00    +0.130 C 
BRANCH  16  18
ATOM      4  O   UNL     1      -0.997   0.377  23.633  0.00  0.00    -0.276 OA
ATOM      7  N   UNL     1       1.137   1.137  24.143  0.00  0.00    -0.312 N 
ATOM     18  C   UNL     1      -0.211   0.924  24.402  0.00  0.00    +0.216 C 
ATOM     24  H   UNL     1       1.724   1.582  24.843  0.00  0.00    +0.149 HD
BRANCH   7   9
ATOM      9  C   UNL     1       1.760   0.727  22.918  0.00  0.00    +0.073 C 
ATOM     11  C   UNL     1       3.233   0.912  22.697  0.00  0.00    +0.024 C 
ATOM     12  C   UNL     1       2.668  -0.468  22.869  0.00  0.00    +0.024 C 
ENDBRANCH   7   9
ENDBRANCH  16  18
ENDBRANCH  10  16
BRANCH  15  17
ATOM     17  C   UNL     1      -4.106   3.174  24.269  0.00  0.00    +0.138 C 
BRANCH  17   8
ATOM      5  O   UNL     1      -5.527   1.114  25.679  0.00  0.00    -0.267 OA
ATOM      8  N   UNL     1      -3.822   1.768  24.247  0.00  0.00    -0.306 N 
ATOM     19  C   UNL     1      -4.567   0.836  24.965  0.00  0.00    +0.279 C 
ATOM     27  H   UNL     1      -3.043   1.446  23.681  0.00  0.00    +0.149 HD
BRANCH  19  20
ATOM      6  O   UNL     1      -3.419  -1.105  25.889  0.00  0.00    -0.458 OA
ATOM     20  C   UNL     1      -4.128  -0.578  24.856  0.00  0.00    +0.189 A 
ATOM     21  C   UNL     1      -4.309  -1.516  23.866  0.00  0.00    +0.054 A 
ATOM     22  C   UNL     1      -3.668  -2.694  24.319  0.00  0.00    +0.042 A 
ATOM     23  C   UNL     1      -3.143  -2.393  25.553  0.00  0.00    +0.196 A 
ENDBRANCH  19  20
ENDBRANCH  17   8
ENDBRANCH  15  17
TORSDOF 8
ENDMDL
MODEL 4
REMARK VINA RESULT:      -4.9      2.142      3.368
REMARK  Name = 25390434
REMARK  8 active torsions:
REMARK  status: ('A' for Active; 'I' for Inactive)
REMARK    1  A    between atoms: O_2  and  C_13
REMARK    2  A    between atoms: O_3  and  C_14
REMARK    3  A    between atoms: N_7  and  C_9
REMARK    4  A    between atoms: N_8  and  C_17
REMARK    5  A    between atoms: C_10  and  C_16
REMARK    6  A    between atoms: C_15  and  C_17
REMARK    7  A    between atoms: C_16  and  C_18
REMARK    8  A    between atoms: C_19  and  C_20
REMARK                            x       y       z     vdW  Elec       q    Type
REMARK                         _______ _______ _______ _____ _____    ______ ____
ROOT
ATOM      1  O   UNL     1      -3.802   3.495  23.948  0.00  0.00    -0.366 OA
ATOM     10  C   UNL     1      -4.828   2.506  24.141  0.00  0.00    +0.158 C 
ATOM     13  C   UNL     1      -5.020   2.400  25.644  0.00  0.00    +0.175 C 
ATOM     14  C   UNL     1      -4.802   3.835  26.079  0.00  0.00    +0.176 C 
ATOM     15  C   UNL     1      -3.673   4.279  25.157  0.00  0.00    +0.167 C 
ENDROOT
BRANCH  13   2
ATOM      2  O   UNL     1      -6.295   1.900  25.981  0.00  0.00    -0.387 OA
ATOM     25  H   UNL     1      -6.388   1.028  25.559  0.00  0.00    +0.210 HD
ENDBRANCH  13   2
BRANCH  14   3
ATOM      3  O   UNL     1      -5.954   4.623  25.780  0.00  0.00    -0.387 OA
ATOM     26  H   UNL     1      -6.690   4.276  26.312  0.00  0.00    +0.210 HD
ENDBRANCH  14   3
BRANCH  10  16
ATOM     16  C   UNL     1      -4.405   1.198  23.494  0.00  0.00    +0.130 C 
BRANCH  16  18
ATOM      4  O   UNL     1      -3.110   0.611  25.454  0.00  0.00    -0.276 OA
ATOM      7  N   UNL     1      -4.012  -1.082  24.146  0.00  0.00    -0.312 N 
ATOM     18  C   UNL     1      -3.764   0.242  24.482  0.00  0.00    +0.216 C 
ATOM     24  H   UNL     1      -4.550  -1.303  23.312  0.00  0.00    +0.149 HD
BRANCH   7   9
ATOM      9  C   UNL     1      -3.514  -2.181  24.923  0.00  0.00    +0.073 C 
ATOM     11  C   UNL     1      -3.383  -3.554  24.331  0.00  0.00    +0.024 C 
ATOM     12  C   UNL     1      -2.153  -2.761  24.667  0.00  0.00    +0.024 C 
ENDBRANCH   7   9
ENDBRANCH  16  18
ENDBRANCH  10  16
BRANCH  15  17
ATOM     17  C   UNL     1      -2.291   4.015  25.738  0.00  0.00    +0.138 C 
BRANCH  17   8
ATOM      5  O   UNL     1       0.048   2.545  26.524  0.00  0.00    -0.267 OA
ATOM      8  N   UNL     1      -1.565   3.070  24.939  0.00  0.00    -0.306 N 
ATOM     19  C   UNL     1      -0.435   2.401  25.403  0.00  0.00    +0.279 C 
ATOM     27  H   UNL     1      -1.894   2.887  23.997  0.00  0.00    +0.149 HD
BRANCH  19  20
ATOM      6  O   UNL     1       1.463   1.792  24.002  0.00  0.00    -0.458 OA
ATOM     20  C   UNL     1       0.218   1.474  24.445  0.00  0.00    +0.189 A 
ATOM     21  C   UNL     1      -0.206   0.290  23.886  0.00  0.00    +0.054 A 
ATOM     22  C   UNL     1       0.846  -0.147  23.046  0.00  0.00    +0.042 A 
ATOM     23  C   UNL     1       1.837   0.801  23.150  0.00  0.00    +0.196 A 
ENDBRANCH  19  20
ENDBRANCH  17   8
ENDBRANCH  15  17
TORSDOF 8
ENDMDL
MODEL 5
REMARK VINA RESULT:      -4.5      2.492      5.801
REMARK  Name = 25390434
REMARK  8 active torsions:
REMARK  status: ('A' for Active; 'I' for Inactive)
REMARK    1  A    between atoms: O_2  and  C_13
REMARK    2  A    between atoms: O_3  and  C_14
REMARK    3  A    between atoms: N_7  and  C_9
REMARK    4  A    between atoms: N_8  and  C_17
REMARK    5  A    between atoms: C_10  and  C_16
REMARK    6  A    between atoms: C_15  and  C_17
REMARK    7  A    between atoms: C_16  and  C_18
REMARK    8  A    between atoms: C_19  and  C_20
REMARK                            x       y       z     vdW  Elec       q    Type
REMARK                         _______ _______ _______ _____ _____    ______ ____
ROOT
ATOM      1  O   UNL     1      -0.077   2.340  25.728  0.00  0.00    -0.366 OA
ATOM     10  C   UNL     1      -0.147   0.923  25.492  0.00  0.00    +0.158 C 
ATOM     13  C   UNL     1      -0.180   0.759  23.983  0.00  0.00    +0.175 C 
ATOM     14  C   UNL     1       0.724   1.888  23.535  0.00  0.00    +0.176 C 
ATOM     15  C   UNL     1       0.358   2.997  24.514  0.00  0.00    +0.167 C 
ENDROOT
BRANCH  13   2
ATOM      2  O   UNL     1       0.272  -0.515  23.578  0.00  0.00    -0.387 OA
ATOM     25  H   UNL     1      -0.509  -1.090  23.498  0.00  0.00    +0.210 HD
ENDBRANCH  13   2
BRANCH  14   3
ATOM      3  O   UNL     1       2.092   1.541  23.749  0.00  0.00    -0.387 OA
ATOM     26  H   UNL     1       2.219   0.638  23.412  0.00  0.00    +0.210 HD
ENDBRANCH  14   3
BRANCH  10  16
ATOM     16  C   UNL     1      -1.369   0.350  26.188  0.00  0.00    +0.130 C 
BRANCH  16  18
ATOM      4  O   UNL     1      -0.838  -1.939  25.606  0.00  0.00    -0.276 OA
ATOM      7  N   UNL     1      -3.044  -1.227  25.488  0.00  0.00    -0.312 N 
ATOM     18  C   UNL     1      -1.688  -1.062  25.734  0.00  0.00    +0.216 C 
ATOM     24  H   UNL     1      -3.680  -0.442  25.601  0.00  0.00    +0.149 HD
BRANCH   7   9
ATOM      9  C   UNL     1      -3.602  -2.473  25.047  0.00  0.00    +0.073 C 
ATOM     11  C   UNL     1      -4.421  -2.556  23.792  0.00  0.00    +0.024 C 
ATOM     12  C   UNL     1      -3.059  -3.185  23.841  0.00  0.00    +0.024 C 
ENDBRANCH   7   9
ENDBRANCH  16  18
ENDBRANCH  10  16
BRANCH  15  17
ATOM     17  C   UNL     1      -0.786   3.872  24.024  0.00  0.00    +0.138 C 
BRANCH  17   8
ATOM      5  O   UNL     1      -2.908   2.428  22.737  0.00  0.00    -0.267 OA
ATOM      8  N   UNL     1      -2.032   3.477  24.613  0.00  0.00    -0.306 N 
ATOM     19  C   UNL     1      -3.009   2.775  23.911  0.00  0.00    +0.279 C 
ATOM     27  H   UNL     1      -2.202   3.721  25.583  0.00  0.00    +0.149 HD
BRANCH  19  20
ATOM      6  O   UNL     1      -4.849   3.467  25.352  0.00  0.00    -0.458 OA
ATOM     20  C   UNL     1      -4.255   2.462  24.656  0.00  0.00    +0.189 A 
ATOM     21  C   UNL     1      -4.970   1.294  24.789  0.00  0.00    +0.054 A 
ATOM     22  C   UNL     1      -6.073   1.601  25.620  0.00  0.00    +0.042 A 
ATOM     23  C   UNL     1      -5.954   2.934  25.936  0.00  0.00    +0.196 A 
ENDBRANCH  19  20
ENDBRANCH  17   8
ENDBRANCH  15  17
TORSDOF 8
ENDMDL
MODEL 6
REMARK VINA RESULT:      -4.3      2.584      4.619
REMARK  Name = 25390434
REMARK  8 active torsions:
REMARK  status: ('A' for Active; 'I' for Inactive)
REMARK    1  A    between atoms: O_2  and  C_13
REMARK    2  A    between atoms: O_3  and  C_14
REMARK    3  A    between atoms: N_7  and  C_9
REMARK    4  A    between atoms: N_8  and  C_17
REMARK    5  A    between atoms: C_10  and  C_16
REMARK    6  A    between atoms: C_15  and  C_17
REMARK    7  A    between atoms: C_16  and  C_18
REMARK    8  A    between atoms: C_19  and  C_20
REMARK                            x       y       z     vdW  Elec       q    Type
REMARK                         _______ _______ _______ _____ _____    ______ ____
ROOT
ATOM      1  O   UNL     1      -0.128   3.896  24.237  0.00  0.00    -0.366 OA
ATOM     10  C   UNL     1      -1.135   4.153  25.231  0.00  0.00    +0.158 C 
ATOM     13  C   UNL     1      -1.448   2.805  25.858  0.00  0.00    +0.175 C 
ATOM     14  C   UNL     1      -0.087   2.140  25.841  0.00  0.00    +0.176 C 
ATOM     15  C   UNL     1       0.481   2.611  24.507  0.00  0.00    +0.167 C 
ENDROOT
BRANCH  13   2
ATOM      2  O   UNL     1      -1.990   2.937  27.154  0.00  0.00    -0.387 OA
ATOM     25  H   UNL     1      -1.259   2.834  27.788  0.00  0.00    +0.210 HD
ENDBRANCH  13   2
BRANCH  14   3
ATOM      3  O   UNL     1       0.735   2.665  26.883  0.00  0.00    -0.387 OA
ATOM     26  H   UNL     1       0.418   2.288  27.721  0.00  0.00    +0.210 HD
ENDBRANCH  14   3
BRANCH  10  16
ATOM     16  C   UNL     1      -2.340   4.809  24.580  0.00  0.00    +0.130 C 
BRANCH  16  18
ATOM      4  O   UNL     1      -3.462   3.046  23.357  0.00  0.00    -0.276 OA
ATOM      7  N   UNL     1      -4.468   3.918  25.259  0.00  0.00    -0.312 N 
ATOM     18  C   UNL     1      -3.461   3.824  24.307  0.00  0.00    +0.216 C 
ATOM     24  H   UNL     1      -4.398   4.604  26.006  0.00  0.00    +0.149 HD
BRANCH   7   9
ATOM      9  C   UNL     1      -5.641   3.093  25.224  0.00  0.00    +0.073 C 
ATOM     11  C   UNL     1      -5.543   1.614  24.993  0.00  0.00    +0.024 C 
ATOM     12  C   UNL     1      -5.953   2.137  26.339  0.00  0.00    +0.024 C 
ENDBRANCH   7   9
ENDBRANCH  16  18
ENDBRANCH  10  16
BRANCH  15  17
ATOM     17  C   UNL     1       0.139   1.682  23.351  0.00  0.00    +0.138 C 
BRANCH  17   8
ATOM      5  O   UNL     1       0.308  -1.082  24.112  0.00  0.00    -0.267 OA
ATOM      8  N   UNL     1      -0.955   0.818  23.687  0.00  0.00    -0.306 N 
ATOM     19  C   UNL     1      -0.780  -0.516  24.045  0.00  0.00    +0.279 C 
ATOM     27  H   UNL     1      -1.895   1.202  23.659  0.00  0.00    +0.149 HD
BRANCH  19  20
ATOM      6  O   UNL     1      -3.211  -0.700  24.054  0.00  0.00    -0.458 OA
ATOM     20  C   UNL     1      -2.017  -1.284  24.338  0.00  0.00    +0.189 A 
ATOM     21  C   UNL     1      -2.207  -2.540  24.868  0.00  0.00    +0.054 A 
ATOM     22  C   UNL     1      -3.608  -2.740  24.911  0.00  0.00    +0.042 A 
ATOM     23  C   UNL     1      -4.173  -1.593  24.406  0.00  0.00    +0.196 A 
ENDBRANCH  19  20
ENDBRANCH  17   8
ENDBRANCH  15  17
TORSDOF 8
ENDMDL
MODEL 7
REMARK VINA RESULT:      -3.8      1.703      2.336
REMARK  Name = 25390434
REMARK  8 active torsions:
REMARK  status: ('A' for Active; 'I' for Inactive)
REMARK    1  A    between atoms: O_2  and  C_13
REMARK    2  A    between atoms: O_3  and  C_14
REMARK    3  A    between atoms: N_7  and  C_9
REMARK    4  A    between atoms: N_8  and  C_17
REMARK    5  A    between atoms: C_10  and  C_16
REMARK    6  A    between atoms: C_15  and  C_17
REMARK    7  A    between atoms: C_16  and  C_18
REMARK    8  A    between atoms: C_19  and  C_20
REMARK                            x       y       z     vdW  Elec       q    Type
REMARK                         _______ _______ _______ _____ _____    ______ ____
ROOT
ATOM      1  O   UNL     1      -1.690   1.255  24.729  0.00  0.00    -0.366 OA
ATOM     10  C   UNL     1      -1.106   1.372  26.038  0.00  0.00    +0.158 C 
ATOM     13  C   UNL     1       0.266   1.986  25.822  0.00  0.00    +0.175 C 
ATOM     14  C   UNL     1      -0.002   2.929  24.667  0.00  0.00    +0.176 C 
ATOM     15  C   UNL     1      -0.976   2.122  23.817  0.00  0.00    +0.167 C 
ENDROOT
BRANCH  13   2
ATOM      2  O   UNL     1       0.742   2.639  26.979  0.00  0.00    -0.387 OA
ATOM     25  H   UNL     1       1.651   2.328  27.137  0.00  0.00    +0.210 HD
ENDBRANCH  13   2
BRANCH  14   3
ATOM      3  O   UNL     1      -0.680   4.097  25.129  0.00  0.00    -0.387 OA
ATOM     26  H   UNL     1      -0.084   4.554  25.747  0.00  0.00    +0.210 HD
ENDBRANCH  14   3
BRANCH  10  16
ATOM     16  C   UNL     1      -1.057   0.006  26.699  0.00  0.00    +0.130 C 
BRANCH  16  18
ATOM      4  O   UNL     1      -0.310  -1.908  25.418  0.00  0.00    -0.276 OA
ATOM      7  N   UNL     1      -2.496  -1.165  25.169  0.00  0.00    -0.312 N 
ATOM     18  C   UNL     1      -1.215  -1.128  25.703  0.00  0.00    +0.216 C 
ATOM     24  H   UNL     1      -3.182  -0.469  25.446  0.00  0.00    +0.149 HD
BRANCH   7   9
ATOM      9  C   UNL     1      -2.899  -2.146  24.203  0.00  0.00    +0.073 C 
ATOM     11  C   UNL     1      -3.740  -3.324  24.597  0.00  0.00    +0.024 C 
ATOM     12  C   UNL     1      -4.324  -2.240  23.739  0.00  0.00    +0.024 C 
ENDBRANCH   7   9
ENDBRANCH  16  18
ENDBRANCH  10  16
BRANCH  15  17
ATOM     17  C   UNL     1      -0.281   1.243  22.787  0.00  0.00    +0.138 C 
BRANCH  17   8
ATOM      5  O   UNL     1       1.564  -0.504  21.449  0.00  0.00    -0.267 OA
ATOM      8  N   UNL     1       1.086   1.005  23.147  0.00  0.00    -0.306 N 
ATOM     19  C   UNL     1       1.912   0.136  22.438  0.00  0.00    +0.279 C 
ATOM     27  H   UNL     1       1.462   1.493  23.954  0.00  0.00    +0.149 HD
BRANCH  19  20
ATOM      6  O   UNL     1       3.631  -1.209  23.521  0.00  0.00    -0.458 OA
ATOM     20  C   UNL     1       3.296  -0.021  22.953  0.00  0.00    +0.189 A 
ATOM     21  C   UNL     1       4.367   0.842  22.970  0.00  0.00    +0.054 A 
ATOM     22  C   UNL     1       5.429   0.139  23.588  0.00  0.00    +0.042 A 
ATOM     23  C   UNL     1       4.931  -1.103  23.906  0.00  0.00    +0.196 A 
ENDBRANCH  19  20
ENDBRANCH  17   8
ENDBRANCH  15  17
TORSDOF 8
ENDMDL
MODEL 8
REMARK VINA RESULT:      -3.7      1.669      2.138
REMARK  Name = 25390434
REMARK  8 active torsions:
REMARK  status: ('A' for Active; 'I' for Inactive)
REMARK    1  A    between atoms: O_2  and  C_13
REMARK    2  A    between atoms: O_3  and  C_14
REMARK    3  A    between atoms: N_7  and  C_9
REMARK    4  A    between atoms: N_8  and  C_17
REMARK    5  A    between atoms: C_10  and  C_16
REMARK    6  A    between atoms: C_15  and  C_17
REMARK    7  A    between atoms: C_16  and  C_18
REMARK    8  A    between atoms: C_19  and  C_20
REMARK                            x       y       z     vdW  Elec       q    Type
REMARK                         _______ _______ _______ _____ _____    ______ ____
ROOT
ATOM      1  O   UNL     1      -3.121   1.630  24.078  0.00  0.00    -0.366 OA
ATOM     10  C   UNL     1      -4.429   1.937  24.590  0.00  0.00    +0.158 C 
ATOM     13  C   UNL     1      -4.225   3.056  25.596  0.00  0.00    +0.175 C 
ATOM     14  C   UNL     1      -3.102   3.842  24.950  0.00  0.00    +0.176 C 
ATOM     15  C   UNL     1      -2.233   2.735  24.366  0.00  0.00    +0.167 C 
ENDROOT
BRANCH  13   2
ATOM      2  O   UNL     1      -5.399   3.814  25.791  0.00  0.00    -0.387 OA
ATOM     25  H   UNL     1      -6.130   3.334  25.365  0.00  0.00    +0.210 HD
ENDBRANCH  13   2
BRANCH  14   3
ATOM      3  O   UNL     1      -3.606   4.626  23.869  0.00  0.00    -0.387 OA
ATOM     26  H   UNL     1      -3.413   4.145  23.046  0.00  0.00    +0.210 HD
ENDBRANCH  14   3
BRANCH  10  16
ATOM     16  C   UNL     1      -5.046   0.688  25.197  0.00  0.00    +0.130 C 
BRANCH  16  18
ATOM      4  O   UNL     1      -4.492  -1.133  23.701  0.00  0.00    -0.276 OA
ATOM      7  N   UNL     1      -3.453  -1.018  25.774  0.00  0.00    -0.312 N 
ATOM     18  C   UNL     1      -4.321  -0.578  24.783  0.00  0.00    +0.216 C 
ATOM     24  H   UNL     1      -3.384  -0.509  26.651  0.00  0.00    +0.149 HD
BRANCH   7   9
ATOM      9  C   UNL     1      -2.649  -2.197  25.627  0.00  0.00    +0.073 C 
ATOM     11  C   UNL     1      -2.091  -2.594  24.292  0.00  0.00    +0.024 C 
ATOM     12  C   UNL     1      -1.172  -2.104  25.373  0.00  0.00    +0.024 C 
ENDBRANCH   7   9
ENDBRANCH  16  18
ENDBRANCH  10  16
BRANCH  15  17
ATOM     17  C   UNL     1      -1.171   2.237  25.336  0.00  0.00    +0.138 C 
BRANCH  17   8
ATOM      5  O   UNL     1      -0.687   0.130  23.446  0.00  0.00    -0.267 OA
ATOM      8  N   UNL     1       0.062   1.962  24.658  0.00  0.00    -0.306 N 
ATOM     19  C   UNL     1       0.208   0.914  23.753  0.00  0.00    +0.279 C 
ATOM     27  H   UNL     1       0.859   2.561  24.851  0.00  0.00    +0.149 HD
BRANCH  19  20
ATOM      6  O   UNL     1       1.690  -0.130  22.124  0.00  0.00    -0.458 OA
ATOM     20  C   UNL     1       1.557   0.745  23.155  0.00  0.00    +0.189 A 
ATOM     21  C   UNL     1       2.765   1.332  23.450  0.00  0.00    +0.054 A 
ATOM     22  C   UNL     1       3.701   0.782  22.542  0.00  0.00    +0.042 A 
ATOM     23  C   UNL     1       2.998  -0.102  21.757  0.00  0.00    +0.196 A 
ENDBRANCH  19  20
ENDBRANCH  17   8
ENDBRANCH  15  17
TORSDOF 8
ENDMDL
MODEL 9
REMARK VINA RESULT:      -3.4      2.825      4.367
REMARK  Name = 25390434
REMARK  8 active torsions:
REMARK  status: ('A' for Active; 'I' for Inactive)
REMARK    1  A    between atoms: O_2  and  C_13
REMARK    2  A    between atoms: O_3  and  C_14
REMARK    3  A    between atoms: N_7  and  C_9
REMARK    4  A    between atoms: N_8  and  C_17
REMARK    5  A    between atoms: C_10  and  C_16
REMARK    6  A    between atoms: C_15  and  C_17
REMARK    7  A    between atoms: C_16  and  C_18
REMARK    8  A    between atoms: C_19  and  C_20
REMARK                            x       y       z     vdW  Elec       q    Type
REMARK                         _______ _______ _______ _____ _____    ______ ____
ROOT
ATOM      1  O   UNL     1      -0.672   2.039  23.764  0.00  0.00    -0.366 OA
ATOM     10  C   UNL     1      -1.942   2.665  23.513  0.00  0.00    +0.158 C 
ATOM     13  C   UNL     1      -2.313   3.375  24.804  0.00  0.00    +0.175 C 
ATOM     14  C   UNL     1      -0.957   3.836  25.296  0.00  0.00    +0.176 C 
ATOM     15  C   UNL     1      -0.065   2.658  24.922  0.00  0.00    +0.167 C 
ENDROOT
BRANCH  13   2
ATOM      2  O   UNL     1      -3.219   4.435  24.584  0.00  0.00    -0.387 OA
ATOM     25  H   UNL     1      -3.456   4.801  25.454  0.00  0.00    +0.210 HD
ENDBRANCH  13   2
BRANCH  14   3
ATOM      3  O   UNL     1      -0.521   4.974  24.553  0.00  0.00    -0.387 OA
ATOM     26  H   UNL     1       0.237   4.696  24.011  0.00  0.00    +0.210 HD
ENDBRANCH  14   3
BRANCH  10  16
ATOM     16  C   UNL     1      -2.955   1.614  23.091  0.00  0.00    +0.130 C 
BRANCH  16  18
ATOM      4  O   UNL     1      -3.993   0.467  24.954  0.00  0.00    -0.276 OA
ATOM      7  N   UNL     1      -5.034   2.339  24.058  0.00  0.00    -0.312 N 
ATOM     18  C   UNL     1      -4.027   1.386  24.140  0.00  0.00    +0.216 C 
ATOM     24  H   UNL     1      -4.995   3.058  23.341  0.00  0.00    +0.149 HD
BRANCH   7   9
ATOM      9  C   UNL     1      -6.165   2.343  24.940  0.00  0.00    +0.073 C 
ATOM     11  C   UNL     1      -6.017   1.999  26.394  0.00  0.00    +0.024 C 
ATOM     12  C   UNL     1      -6.333   3.408  25.984  0.00  0.00    +0.024 C 
ENDBRANCH   7   9
ENDBRANCH  16  18
ENDBRANCH  10  16
BRANCH  15  17
ATOM     17  C   UNL     1       0.023   1.605  26.018  0.00  0.00    +0.138 C 
BRANCH  17   8
ATOM      5  O   UNL     1       0.429  -0.830  24.551  0.00  0.00    -0.267 OA
ATOM      8  N   UNL     1      -0.937   0.560  25.812  0.00  0.00    -0.306 N 
ATOM     19  C   UNL     1      -0.653  -0.592  25.083  0.00  0.00    +0.279 C 
ATOM     27  H   UNL     1      -1.861   0.671  26.218  0.00  0.00    +0.149 HD
BRANCH  19  20
ATOM      6  O   UNL     1      -1.727  -2.418  23.879  0.00  0.00    -0.458 OA
ATOM     20  C   UNL     1      -1.762  -1.568  24.939  0.00  0.00    +0.189 A 
ATOM     21  C   UNL     1      -2.881  -1.798  25.707  0.00  0.00    +0.054 A 
ATOM     22  C   UNL     1      -3.577  -2.859  25.078  0.00  0.00    +0.042 A 
ATOM     23  C   UNL     1      -2.835  -3.200  23.971  0.00  0.00    +0.196 A 
ENDBRANCH  19  20
ENDBRANCH  17   8
ENDBRANCH  15  17
TORSDOF 8
ENDMDL
MODEL 10
REMARK VINA RESULT:      -3.4     18.626     19.632
REMARK  Name = 25390434
REMARK  8 active torsions:
REMARK  status: ('A' for Active; 'I' for Inactive)
REMARK    1  A    between atoms: O_2  and  C_13
REMARK    2  A    between atoms: O_3  and  C_14
REMARK    3  A    between atoms: N_7  and  C_9
REMARK    4  A    between atoms: N_8  and  C_17
REMARK    5  A    between atoms: C_10  and  C_16
REMARK    6  A    between atoms: C_15  and  C_17
REMARK    7  A    between atoms: C_16  and  C_18
REMARK    8  A    between atoms: C_19  and  C_20
REMARK                            x       y       z     vdW  Elec       q    Type
REMARK                         _______ _______ _______ _____ _____    ______ ____
ROOT
ATOM      1  O   UNL     1      17.284  -6.941  27.669  0.00  0.00    -0.366 OA
ATOM     10  C   UNL     1      16.351  -7.335  28.690  0.00  0.00    +0.158 C 
ATOM     13  C   UNL     1      15.521  -8.450  28.080  0.00  0.00    +0.175 C 
ATOM     14  C   UNL     1      16.548  -9.157  27.220  0.00  0.00    +0.176 C 
ATOM     15  C   UNL     1      17.365  -7.991  26.678  0.00  0.00    +0.167 C 
ENDROOT
BRANCH  13   2
ATOM      2  O   UNL     1      14.946  -9.283  29.065  0.00  0.00    -0.387 OA
ATOM     25  H   UNL     1      15.489  -9.201  29.868  0.00  0.00    +0.210 HD
ENDBRANCH  13   2
BRANCH  14   3
ATOM      3  O   UNL     1      17.405  -9.959  28.032  0.00  0.00    -0.387 OA
ATOM     26  H   UNL     1      18.225  -9.456  28.176  0.00  0.00    +0.210 HD
ENDBRANCH  14   3
BRANCH  10  16
ATOM     16  C   UNL     1      15.525  -6.134  29.118  0.00  0.00    +0.130 C 
BRANCH  16  18
ATOM      4  O   UNL     1      16.282  -6.029  31.415  0.00  0.00    -0.276 OA
ATOM      7  N   UNL     1      16.349  -4.107  30.114  0.00  0.00    -0.312 N 
ATOM     18  C   UNL     1      16.088  -5.450  30.349  0.00  0.00    +0.216 C 
ATOM     24  H   UNL     1      16.142  -3.700  29.206  0.00  0.00    +0.149 HD
BRANCH   7   9
ATOM      9  C   UNL     1      16.887  -3.238  31.122  0.00  0.00    +0.073 C 
ATOM     11  C   UNL     1      16.928  -1.751  30.924  0.00  0.00    +0.024 C 
ATOM     12  C   UNL     1      15.995  -2.347  31.937  0.00  0.00    +0.024 C 
ENDBRANCH   7   9
ENDBRANCH  16  18
ENDBRANCH  10  16
BRANCH  15  17
ATOM     17  C   UNL     1      16.819  -7.438  25.369  0.00  0.00    +0.138 C 
BRANCH  17   8
ATOM      5  O   UNL     1      17.385  -5.811  23.071  0.00  0.00    -0.267 OA
ATOM      8  N   UNL     1      16.907  -6.007  25.334  0.00  0.00    -0.306 N 
ATOM     19  C   UNL     1      17.188  -5.297  24.169  0.00  0.00    +0.279 C 
ATOM     27  H   UNL     1      16.756  -5.497  26.198  0.00  0.00    +0.149 HD
BRANCH  19  20
ATOM      6  O   UNL     1      17.300  -3.298  25.558  0.00  0.00    -0.458 OA
ATOM     20  C   UNL     1      17.269  -3.821  24.304  0.00  0.00    +0.189 A 
ATOM     21  C   UNL     1      17.325  -2.820  23.362  0.00  0.00    +0.054 A 
ATOM     22  C   UNL     1      17.395  -1.604  24.084  0.00  0.00    +0.042 A 
ATOM     23  C   UNL     1      17.376  -1.948  25.415  0.00  0.00    +0.196 A 
ENDBRANCH  19  20
ENDBRANCH  17   8
ENDBRANCH  15  17
TORSDOF 8
ENDMDL
