MODEL 1
REMARK VINA RESULT:      -3.8      0.000      0.000
REMARK  Name = 38028701
REMARK  11 active torsions:
REMARK  status: ('A' for Active; 'I' for Inactive)
REMARK    1  A    between atoms: N_4  and  C_13
REMARK    2  A    between atoms: N_5  and  C_21
REMARK    3  A    between atoms: C_6  and  C_10
REMARK    4  A    between atoms: C_7  and  C_13
REMARK    5  A    between atoms: C_9  and  C_14
REMARK    6  A    between atoms: C_10  and  C_15
REMARK    7  A    between atoms: C_10  and  C_16
REMARK    8  A    between atoms: C_11  and  C_17
REMARK    9  A    between atoms: C_14  and  C_18
REMARK   10  A    between atoms: C_19  and  C_20
REMARK   11  A    between atoms: C_21  and  C_24
REMARK                            x       y       z     vdW  Elec       q    Type
REMARK                         _______ _______ _______ _____ _____    ______ ____
ROOT
ATOM      6  C   UNL     1      -1.574   0.474  24.815  0.00  0.00    +0.000 C 
ATOM      7  C   UNL     1      -1.115  -0.931  24.351  0.00  0.00    +0.032 C 
ATOM      8  C   UNL     1      -2.747   0.356  25.800  0.00  0.00    +0.012 C 
ATOM      9  C   UNL     1      -3.956  -0.374  25.183  0.00  0.00    +0.023 C 
ATOM     11  C   UNL     1      -3.541  -1.644  24.470  0.00  0.00    -0.073 C 
ATOM     12  C   UNL     1      -2.264  -1.882  24.118  0.00  0.00    -0.022 C 
ATOM     17  C   UNL     1      -4.621  -2.658  24.210  0.00  0.00    +0.039 C 
ENDROOT
BRANCH   6  10
ATOM     10  C   UNL     1      -0.431   1.262  25.462  0.00  0.00    -0.013 C 
ATOM     15  C   UNL     1       0.201   2.211  24.450  0.00  0.00    +0.007 C 
ATOM     16  C   UNL     1      -0.936   2.029  26.680  0.00  0.00    +0.007 C 
ENDBRANCH   6  10
BRANCH   7  13
ATOM     13  C   UNL     1      -0.259  -0.842  23.082  0.00  0.00    +0.112 C 
BRANCH  13   4
ATOM      3  O   UNL     1       1.861  -0.219  21.250  0.00  0.00    -0.270 OA
ATOM      4  N   UNL     1       1.114  -0.621  23.410  0.00  0.00    -0.311 N 
ATOM     19  C   UNL     1       2.084  -0.323  22.453  0.00  0.00    +0.244 C 
ATOM     29  H   UNL     1       1.356  -0.598  24.395  0.00  0.00    +0.149 HD
BRANCH  19  20
ATOM      1  F   UNL     1       6.071  -2.068  24.623  0.00  0.00    -0.205 F 
ATOM     20  C   UNL     1       3.472  -0.146  22.953  0.00  0.00    +0.039 A 
ATOM     22  C   UNL     1       4.133  -1.211  23.566  0.00  0.00    +0.051 A 
ATOM     23  C   UNL     1       4.114   1.083  22.808  0.00  0.00    +0.013 A 
ATOM     25  C   UNL     1       5.436  -1.046  24.035  0.00  0.00    +0.124 A 
ATOM     26  C   UNL     1       5.417   1.248  23.278  0.00  0.00    +0.004 A 
ATOM     27  C   UNL     1       6.078   0.184  23.891  0.00  0.00    +0.038 A 
ENDBRANCH  19  20
ENDBRANCH  13   4
ENDBRANCH   7  13
BRANCH   9  14
ATOM     14  C   UNL     1      -4.740   0.551  24.246  0.00  0.00    +0.103 C 
BRANCH  14  18
ATOM      2  O   UNL     1      -5.909   2.149  25.638  0.00  0.00    -0.276 OA
ATOM      5  N   UNL     1      -4.043   2.830  24.433  0.00  0.00    -0.304 N 
ATOM     18  C   UNL     1      -4.987   1.910  24.862  0.00  0.00    +0.214 C 
ATOM     30  H   UNL     1      -3.307   2.528  23.800  0.00  0.00    +0.150 HD
BRANCH   5  21
ATOM     21  C   UNL     1      -4.035   4.211  24.859  0.00  0.00    +0.193 C 
BRANCH  21  24
ATOM     24  C   UNL     1      -2.668   4.703  25.026  0.00  0.00    -0.087 C 
ATOM     28  C   UNL     1      -1.545   5.105  25.160  0.00  0.00    +0.005 C 
ENDBRANCH  21  24
ENDBRANCH   5  21
ENDBRANCH  14  18
ENDBRANCH   9  14
TORSDOF 8
ENDMDL
MODEL 2
REMARK VINA RESULT:      -3.6      0.833      1.229
REMARK  Name = 38028701
REMARK  11 active torsions:
REMARK  status: ('A' for Active; 'I' for Inactive)
REMARK    1  A    between atoms: N_4  and  C_13
REMARK    2  A    between atoms: N_5  and  C_21
REMARK    3  A    between atoms: C_6  and  C_10
REMARK    4  A    between atoms: C_7  and  C_13
REMARK    5  A    between atoms: C_9  and  C_14
REMARK    6  A    between atoms: C_10  and  C_15
REMARK    7  A    between atoms: C_10  and  C_16
REMARK    8  A    between atoms: C_11  and  C_17
REMARK    9  A    between atoms: C_14  and  C_18
REMARK   10  A    between atoms: C_19  and  C_20
REMARK   11  A    between atoms: C_21  and  C_24
REMARK                            x       y       z     vdW  Elec       q    Type
REMARK                         _______ _______ _______ _____ _____    ______ ____
ROOT
ATOM      6  C   UNL     1      -1.606   0.679  24.919  0.00  0.00    +0.000 C 
ATOM      7  C   UNL     1      -1.087  -0.681  24.388  0.00  0.00    +0.032 C 
ATOM      8  C   UNL     1      -2.802   0.466  25.859  0.00  0.00    +0.012 C 
ATOM      9  C   UNL     1      -3.967  -0.262  25.164  0.00  0.00    +0.023 C 
ATOM     11  C   UNL     1      -3.492  -1.475  24.391  0.00  0.00    -0.073 C 
ATOM     12  C   UNL     1      -2.199  -1.652  24.064  0.00  0.00    -0.022 C 
ATOM     17  C   UNL     1      -4.530  -2.504  24.039  0.00  0.00    +0.039 C 
ENDROOT
BRANCH   6  10
ATOM     10  C   UNL     1      -0.508   1.462  25.645  0.00  0.00    -0.013 C 
ATOM     15  C   UNL     1       0.254   2.345  24.663  0.00  0.00    +0.007 C 
ATOM     16  C   UNL     1      -1.107   2.298  26.771  0.00  0.00    +0.007 C 
ENDBRANCH   6  10
BRANCH   7  13
ATOM     13  C   UNL     1      -0.200  -0.491  23.152  0.00  0.00    +0.112 C 
BRANCH  13   4
ATOM      3  O   UNL     1       2.040  -0.226  21.376  0.00  0.00    -0.270 OA
ATOM      4  N   UNL     1       1.181  -0.471  23.518  0.00  0.00    -0.311 N 
ATOM     19  C   UNL     1       2.211  -0.339  22.587  0.00  0.00    +0.244 C 
ATOM     29  H   UNL     1       1.397  -0.465  24.509  0.00  0.00    +0.149 HD
BRANCH  19  20
ATOM      1  F   UNL     1       6.327   1.940  23.821  0.00  0.00    -0.205 F 
ATOM     20  C   UNL     1       3.596  -0.361  23.126  0.00  0.00    +0.039 A 
ATOM     22  C   UNL     1       4.326   0.823  23.222  0.00  0.00    +0.051 A 
ATOM     23  C   UNL     1       4.164  -1.567  23.536  0.00  0.00    +0.013 A 
ATOM     25  C   UNL     1       5.626   0.803  23.728  0.00  0.00    +0.124 A 
ATOM     26  C   UNL     1       5.464  -1.588  24.042  0.00  0.00    +0.004 A 
ATOM     27  C   UNL     1       6.195  -0.403  24.138  0.00  0.00    +0.038 A 
ENDBRANCH  19  20
ENDBRANCH  13   4
ENDBRANCH   7  13
BRANCH   9  14
ATOM     14  C   UNL     1      -4.755   0.692  24.259  0.00  0.00    +0.103 C 
BRANCH  14  18
ATOM      2  O   UNL     1      -5.904   2.265  25.694  0.00  0.00    -0.276 OA
ATOM      5  N   UNL     1      -4.029   2.956  24.509  0.00  0.00    -0.304 N 
ATOM     18  C   UNL     1      -4.985   2.036  24.913  0.00  0.00    +0.214 C 
ATOM     30  H   UNL     1      -3.297   2.661  23.869  0.00  0.00    +0.150 HD
BRANCH   5  21
ATOM     21  C   UNL     1      -4.004   4.324  24.974  0.00  0.00    +0.193 C 
BRANCH  21  24
ATOM     24  C   UNL     1      -2.636   4.839  25.020  0.00  0.00    -0.087 C 
ATOM     28  C   UNL     1      -1.515   5.266  25.057  0.00  0.00    +0.005 C 
ENDBRANCH  21  24
ENDBRANCH   5  21
ENDBRANCH  14  18
ENDBRANCH   9  14
TORSDOF 8
ENDMDL
MODEL 3
REMARK VINA RESULT:      -3.2      1.493      2.874
REMARK  Name = 38028701
REMARK  11 active torsions:
REMARK  status: ('A' for Active; 'I' for Inactive)
REMARK    1  A    between atoms: N_4  and  C_13
REMARK    2  A    between atoms: N_5  and  C_21
REMARK    3  A    between atoms: C_6  and  C_10
REMARK    4  A    between atoms: C_7  and  C_13
REMARK    5  A    between atoms: C_9  and  C_14
REMARK    6  A    between atoms: C_10  and  C_15
REMARK    7  A    between atoms: C_10  and  C_16
REMARK    8  A    between atoms: C_11  and  C_17
REMARK    9  A    between atoms: C_14  and  C_18
REMARK   10  A    between atoms: C_19  and  C_20
REMARK   11  A    between atoms: C_21  and  C_24
REMARK                            x       y       z     vdW  Elec       q    Type
REMARK                         _______ _______ _______ _____ _____    ______ ____
ROOT
ATOM      6  C   UNL     1      -3.174  -0.101  25.014  0.00  0.00    +0.000 C 
ATOM      7  C   UNL     1      -1.983   0.693  24.422  0.00  0.00    +0.032 C 
ATOM      8  C   UNL     1      -4.382  -0.044  24.066  0.00  0.00    +0.012 C 
ATOM      9  C   UNL     1      -4.844   1.400  23.797  0.00  0.00    +0.023 C 
ATOM     11  C   UNL     1      -3.680   2.311  23.465  0.00  0.00    -0.073 C 
ATOM     12  C   UNL     1      -2.407   1.972  23.739  0.00  0.00    -0.022 C 
ATOM     17  C   UNL     1      -4.008   3.602  22.768  0.00  0.00    +0.039 C 
ENDROOT
BRANCH   6  10
ATOM     10  C   UNL     1      -2.803  -1.561  25.294  0.00  0.00    -0.013 C 
ATOM     15  C   UNL     1      -3.041  -1.900  26.761  0.00  0.00    +0.007 C 
ATOM     16  C   UNL     1      -3.597  -2.495  24.387  0.00  0.00    +0.007 C 
ENDBRANCH   6  10
BRANCH   7  13
ATOM     13  C   UNL     1      -0.939   1.010  25.498  0.00  0.00    +0.112 C 
BRANCH  13   4
ATOM      3  O   UNL     1       0.007  -0.814  23.493  0.00  0.00    -0.270 OA
ATOM      4  N   UNL     1       0.382   0.947  24.957  0.00  0.00    -0.311 N 
ATOM     19  C   UNL     1       0.760   0.025  23.981  0.00  0.00    +0.244 C 
ATOM     29  H   UNL     1       1.034   1.670  25.243  0.00  0.00    +0.149 HD
BRANCH  19  20
ATOM      1  F   UNL     1       5.200  -1.943  23.735  0.00  0.00    -0.205 F 
ATOM     20  C   UNL     1       2.178   0.073  23.540  0.00  0.00    +0.039 A 
ATOM     22  C   UNL     1       3.040  -0.978  23.851  0.00  0.00    +0.051 A 
ATOM     23  C   UNL     1       2.646   1.168  22.815  0.00  0.00    +0.013 A 
ATOM     25  C   UNL     1       4.372  -0.934  23.437  0.00  0.00    +0.124 A 
ATOM     26  C   UNL     1       3.977   1.213  22.401  0.00  0.00    +0.004 A 
ATOM     27  C   UNL     1       4.840   0.162  22.712  0.00  0.00    +0.038 A 
ENDBRANCH  19  20
ENDBRANCH  13   4
ENDBRANCH   7  13
BRANCH   9  14
ATOM     14  C   UNL     1      -5.652   1.951  24.977  0.00  0.00    +0.103 C 
BRANCH  14  18
ATOM      2  O   UNL     1      -5.731   4.348  25.298  0.00  0.00    -0.276 OA
ATOM      5  N   UNL     1      -3.895   3.150  26.068  0.00  0.00    -0.304 N 
ATOM     18  C   UNL     1      -5.129   3.289  25.451  0.00  0.00    +0.214 C 
ATOM     30  H   UNL     1      -3.487   2.223  26.159  0.00  0.00    +0.150 HD
BRANCH   5  21
ATOM     21  C   UNL     1      -3.157   4.264  26.616  0.00  0.00    +0.193 C 
BRANCH  21  24
ATOM     24  C   UNL     1      -2.061   4.658  25.730  0.00  0.00    -0.087 C 
ATOM     28  C   UNL     1      -1.162   4.984  25.006  0.00  0.00    +0.005 C 
ENDBRANCH  21  24
ENDBRANCH   5  21
ENDBRANCH  14  18
ENDBRANCH   9  14
TORSDOF 8
ENDMDL
MODEL 4
REMARK VINA RESULT:      -3.2      2.810      6.501
REMARK  Name = 38028701
REMARK  11 active torsions:
REMARK  status: ('A' for Active; 'I' for Inactive)
REMARK    1  A    between atoms: N_4  and  C_13
REMARK    2  A    between atoms: N_5  and  C_21
REMARK    3  A    between atoms: C_6  and  C_10
REMARK    4  A    between atoms: C_7  and  C_13
REMARK    5  A    between atoms: C_9  and  C_14
REMARK    6  A    between atoms: C_10  and  C_15
REMARK    7  A    between atoms: C_10  and  C_16
REMARK    8  A    between atoms: C_11  and  C_17
REMARK    9  A    between atoms: C_14  and  C_18
REMARK   10  A    between atoms: C_19  and  C_20
REMARK   11  A    between atoms: C_21  and  C_24
REMARK                            x       y       z     vdW  Elec       q    Type
REMARK                         _______ _______ _______ _____ _____    ______ ____
ROOT
ATOM      6  C   UNL     1      -4.116   3.280  25.675  0.00  0.00    +0.000 C 
ATOM      7  C   UNL     1      -3.924   3.958  24.296  0.00  0.00    +0.032 C 
ATOM      8  C   UNL     1      -3.260   3.981  26.741  0.00  0.00    +0.012 C 
ATOM      9  C   UNL     1      -1.760   3.959  26.391  0.00  0.00    +0.023 C 
ATOM     11  C   UNL     1      -1.511   4.362  24.952  0.00  0.00    -0.073 C 
ATOM     12  C   UNL     1      -2.494   4.368  24.032  0.00  0.00    -0.022 C 
ATOM     17  C   UNL     1      -0.117   4.802  24.603  0.00  0.00    +0.039 C 
ENDROOT
BRANCH   6  10
ATOM     10  C   UNL     1      -5.585   3.278  26.109  0.00  0.00    -0.013 C 
ATOM     15  C   UNL     1      -6.331   4.442  25.467  0.00  0.00    +0.007 C 
ATOM     16  C   UNL     1      -6.244   1.950  25.751  0.00  0.00    +0.007 C 
ENDBRANCH   6  10
BRANCH   7  13
ATOM     13  C   UNL     1      -4.412   3.050  23.160  0.00  0.00    +0.112 C 
BRANCH  13   4
ATOM      3  O   UNL     1      -1.997   1.497  23.135  0.00  0.00    -0.270 OA
ATOM      4  N   UNL     1      -4.279   1.673  23.519  0.00  0.00    -0.311 N 
ATOM     19  C   UNL     1      -3.063   0.992  23.477  0.00  0.00    +0.244 C 
ATOM     29  H   UNL     1      -5.099   1.214  23.902  0.00  0.00    +0.149 HD
BRANCH  19  20
ATOM      1  F   UNL     1      -0.901  -2.983  25.260  0.00  0.00    -0.205 F 
ATOM     20  C   UNL     1      -3.097  -0.444  23.857  0.00  0.00    +0.039 A 
ATOM     22  C   UNL     1      -1.961  -1.052  24.390  0.00  0.00    +0.051 A 
ATOM     23  C   UNL     1      -4.266  -1.183  23.681  0.00  0.00    +0.013 A 
ATOM     25  C   UNL     1      -1.992  -2.400  24.747  0.00  0.00    +0.124 A 
ATOM     26  C   UNL     1      -4.298  -2.532  24.038  0.00  0.00    +0.004 A 
ATOM     27  C   UNL     1      -3.162  -3.140  24.571  0.00  0.00    +0.038 A 
ENDBRANCH  19  20
ENDBRANCH  13   4
ENDBRANCH   7  13
BRANCH   9  14
ATOM     14  C   UNL     1      -1.142   2.589  26.692  0.00  0.00    +0.103 C 
BRANCH  14  18
ATOM      2  O   UNL     1       1.260   2.877  26.669  0.00  0.00    -0.276 OA
ATOM      5  N   UNL     1       0.220   1.796  24.894  0.00  0.00    -0.304 N 
ATOM     18  C   UNL     1       0.249   2.453  26.115  0.00  0.00    +0.214 C 
ATOM     30  H   UNL     1      -0.670   1.469  24.528  0.00  0.00    +0.150 HD
BRANCH   5  21
ATOM     21  C   UNL     1       1.406   1.528  24.114  0.00  0.00    +0.193 C 
BRANCH  21  24
ATOM     24  C   UNL     1       1.178   0.435  23.169  0.00  0.00    -0.087 C 
ATOM     28  C   UNL     1       0.996  -0.462  22.393  0.00  0.00    +0.005 C 
ENDBRANCH  21  24
ENDBRANCH   5  21
ENDBRANCH  14  18
ENDBRANCH   9  14
TORSDOF 8
ENDMDL
MODEL 5
REMARK VINA RESULT:      -1.7      2.167      4.049
REMARK  Name = 38028701
REMARK  11 active torsions:
REMARK  status: ('A' for Active; 'I' for Inactive)
REMARK    1  A    between atoms: N_4  and  C_13
REMARK    2  A    between atoms: N_5  and  C_21
REMARK    3  A    between atoms: C_6  and  C_10
REMARK    4  A    between atoms: C_7  and  C_13
REMARK    5  A    between atoms: C_9  and  C_14
REMARK    6  A    between atoms: C_10  and  C_15
REMARK    7  A    between atoms: C_10  and  C_16
REMARK    8  A    between atoms: C_11  and  C_17
REMARK    9  A    between atoms: C_14  and  C_18
REMARK   10  A    between atoms: C_19  and  C_20
REMARK   11  A    between atoms: C_21  and  C_24
REMARK                            x       y       z     vdW  Elec       q    Type
REMARK                         _______ _______ _______ _____ _____    ______ ____
ROOT
ATOM      6  C   UNL     1      -2.863   0.953  24.587  0.00  0.00    +0.000 C 
ATOM      7  C   UNL     1      -1.782   0.746  23.497  0.00  0.00    +0.032 C 
ATOM      8  C   UNL     1      -3.301   2.425  24.634  0.00  0.00    +0.012 C 
ATOM      9  C   UNL     1      -2.124   3.374  24.927  0.00  0.00    +0.023 C 
ATOM     11  C   UNL     1      -0.917   3.056  24.069  0.00  0.00    -0.073 C 
ATOM     12  C   UNL     1      -0.787   1.881  23.427  0.00  0.00    -0.022 C 
ATOM     17  C   UNL     1       0.118   4.137  23.930  0.00  0.00    +0.039 C 
ENDROOT
BRANCH   6  10
ATOM     10  C   UNL     1      -4.082   0.055  24.357  0.00  0.00    -0.013 C 
ATOM     15  C   UNL     1      -3.903  -1.280  25.070  0.00  0.00    +0.007 C 
ATOM     16  C   UNL     1      -5.354   0.754  24.828  0.00  0.00    +0.007 C 
ENDBRANCH   6  10
BRANCH   7  13
ATOM     13  C   UNL     1      -1.033  -0.576  23.703  0.00  0.00    +0.112 C 
BRANCH  13   4
ATOM      3  O   UNL     1       0.865  -0.615  21.550  0.00  0.00    -0.270 OA
ATOM      4  N   UNL     1       0.375  -0.352  23.803  0.00  0.00    -0.311 N 
ATOM     19  C   UNL     1       1.229  -0.390  22.701  0.00  0.00    +0.244 C 
ATOM     29  H   UNL     1       0.735  -0.067  24.708  0.00  0.00    +0.149 HD
BRANCH  19  20
ATOM      1  F   UNL     1       5.546  -1.946  24.311  0.00  0.00    -0.205 F 
ATOM     20  C   UNL     1       2.671  -0.160  22.976  0.00  0.00    +0.039 A 
ATOM     22  C   UNL     1       3.447  -1.180  23.526  0.00  0.00    +0.051 A 
ATOM     23  C   UNL     1       3.249   1.074  22.682  0.00  0.00    +0.013 A 
ATOM     25  C   UNL     1       4.801  -0.966  23.783  0.00  0.00    +0.124 A 
ATOM     26  C   UNL     1       4.603   1.290  22.940  0.00  0.00    +0.004 A 
ATOM     27  C   UNL     1       5.379   0.269  23.490  0.00  0.00    +0.038 A 
ENDBRANCH  19  20
ENDBRANCH  13   4
ENDBRANCH   7  13
BRANCH   9  14
ATOM     14  C   UNL     1      -1.760   3.359  26.416  0.00  0.00    +0.103 C 
BRANCH  14  18
ATOM      2  O   UNL     1      -0.471   1.311  26.380  0.00  0.00    -0.276 OA
ATOM      5  N   UNL     1       0.436   3.217  27.352  0.00  0.00    -0.304 N 
ATOM     18  C   UNL     1      -0.550   2.495  26.697  0.00  0.00    +0.214 C 
ATOM     30  H   UNL     1       0.278   4.200  27.555  0.00  0.00    +0.150 HD
BRANCH   5  21
ATOM     21  C   UNL     1       1.702   2.644  27.748  0.00  0.00    +0.193 C 
BRANCH  21  24
ATOM     24  C   UNL     1       1.731   2.374  29.185  0.00  0.00    -0.087 C 
ATOM     28  C   UNL     1       1.758   2.148  30.363  0.00  0.00    +0.005 C 
ENDBRANCH  21  24
ENDBRANCH   5  21
ENDBRANCH  14  18
ENDBRANCH   9  14
TORSDOF 8
ENDMDL
MODEL 6
REMARK VINA RESULT:      -1.6      2.848      7.687
REMARK  Name = 38028701
REMARK  11 active torsions:
REMARK  status: ('A' for Active; 'I' for Inactive)
REMARK    1  A    between atoms: N_4  and  C_13
REMARK    2  A    between atoms: N_5  and  C_21
REMARK    3  A    between atoms: C_6  and  C_10
REMARK    4  A    between atoms: C_7  and  C_13
REMARK    5  A    between atoms: C_9  and  C_14
REMARK    6  A    between atoms: C_10  and  C_15
REMARK    7  A    between atoms: C_10  and  C_16
REMARK    8  A    between atoms: C_11  and  C_17
REMARK    9  A    between atoms: C_14  and  C_18
REMARK   10  A    between atoms: C_19  and  C_20
REMARK   11  A    between atoms: C_21  and  C_24
REMARK                            x       y       z     vdW  Elec       q    Type
REMARK                         _______ _______ _______ _____ _____    ______ ____
ROOT
ATOM      6  C   UNL     1      -1.740  -1.814  24.473  0.00  0.00    +0.000 C 
ATOM      7  C   UNL     1      -2.504  -1.186  25.664  0.00  0.00    +0.032 C 
ATOM      8  C   UNL     1      -0.228  -1.591  24.628  0.00  0.00    +0.012 C 
ATOM      9  C   UNL     1       0.135  -0.095  24.706  0.00  0.00    +0.023 C 
ATOM     11  C   UNL     1      -0.761   0.651  25.673  0.00  0.00    -0.073 C 
ATOM     12  C   UNL     1      -1.931   0.142  26.100  0.00  0.00    -0.022 C 
ATOM     17  C   UNL     1      -0.262   1.978  26.173  0.00  0.00    +0.039 C 
ENDROOT
BRANCH   6  10
ATOM     10  C   UNL     1      -2.031  -3.312  24.336  0.00  0.00    -0.013 C 
ATOM     15  C   UNL     1      -3.535  -3.561  24.294  0.00  0.00    +0.007 C 
ATOM     16  C   UNL     1      -1.356  -3.873  23.089  0.00  0.00    +0.007 C 
ENDBRANCH   6  10
BRANCH   7  13
ATOM     13  C   UNL     1      -3.993  -1.018  25.340  0.00  0.00    +0.112 C 
BRANCH  13   4
ATOM      3  O   UNL     1      -3.504   0.953  23.310  0.00  0.00    -0.270 OA
ATOM      4  N   UNL     1      -4.369   0.361  25.381  0.00  0.00    -0.311 N 
ATOM     19  C   UNL     1      -4.090   1.254  24.347  0.00  0.00    +0.244 C 
ATOM     29  H   UNL     1      -4.939   0.662  26.164  0.00  0.00    +0.149 HD
BRANCH  19  20
ATOM      1  F   UNL     1      -3.801   5.990  23.280  0.00  0.00    -0.205 F 
ATOM     20  C   UNL     1      -4.525   2.659  24.553  0.00  0.00    +0.039 A 
ATOM     22  C   UNL     1      -3.947   3.685  23.805  0.00  0.00    +0.051 A 
ATOM     23  C   UNL     1      -5.511   2.953  25.495  0.00  0.00    +0.013 A 
ATOM     25  C   UNL     1      -4.355   5.005  23.998  0.00  0.00    +0.124 A 
ATOM     26  C   UNL     1      -5.919   4.273  25.688  0.00  0.00    +0.004 A 
ATOM     27  C   UNL     1      -5.341   5.299  24.940  0.00  0.00    +0.038 A 
ENDBRANCH  19  20
ENDBRANCH  13   4
ENDBRANCH   7  13
BRANCH   9  14
ATOM     14  C   UNL     1       0.107   0.554  23.318  0.00  0.00    +0.103 C 
BRANCH  14  18
ATOM      2  O   UNL     1       1.448  -0.403  21.545  0.00  0.00    -0.276 OA
ATOM      5  N   UNL     1       2.453   0.973  23.126  0.00  0.00    -0.304 N 
ATOM     18  C   UNL     1       1.385   0.304  22.548  0.00  0.00    +0.214 C 
ATOM     30  H   UNL     1       2.292   1.548  23.948  0.00  0.00    +0.150 HD
BRANCH   5  21
ATOM     21  C   UNL     1       3.798   0.913  22.602  0.00  0.00    +0.193 C 
BRANCH  21  24
ATOM     24  C   UNL     1       4.672   0.134  23.479  0.00  0.00    -0.087 C 
ATOM     28  C   UNL     1       5.386  -0.508  24.199  0.00  0.00    +0.005 C 
ENDBRANCH  21  24
ENDBRANCH   5  21
ENDBRANCH  14  18
ENDBRANCH   9  14
TORSDOF 8
ENDMDL
MODEL 7
REMARK VINA RESULT:      -1.1      1.518      3.462
REMARK  Name = 38028701
REMARK  11 active torsions:
REMARK  status: ('A' for Active; 'I' for Inactive)
REMARK    1  A    between atoms: N_4  and  C_13
REMARK    2  A    between atoms: N_5  and  C_21
REMARK    3  A    between atoms: C_6  and  C_10
REMARK    4  A    between atoms: C_7  and  C_13
REMARK    5  A    between atoms: C_9  and  C_14
REMARK    6  A    between atoms: C_10  and  C_15
REMARK    7  A    between atoms: C_10  and  C_16
REMARK    8  A    between atoms: C_11  and  C_17
REMARK    9  A    between atoms: C_14  and  C_18
REMARK   10  A    between atoms: C_19  and  C_20
REMARK   11  A    between atoms: C_21  and  C_24
REMARK                            x       y       z     vdW  Elec       q    Type
REMARK                         _______ _______ _______ _____ _____    ______ ____
ROOT
ATOM      6  C   UNL     1      -2.789   1.220  24.539  0.00  0.00    +0.000 C 
ATOM      7  C   UNL     1      -1.493   0.816  23.792  0.00  0.00    +0.032 C 
ATOM      8  C   UNL     1      -3.265   2.605  24.075  0.00  0.00    +0.012 C 
ATOM      9  C   UNL     1      -2.204   3.696  24.312  0.00  0.00    +0.023 C 
ATOM     11  C   UNL     1      -0.833   3.260  23.840  0.00  0.00    -0.073 C 
ATOM     12  C   UNL     1      -0.537   1.970  23.599  0.00  0.00    -0.022 C 
ATOM     17  C   UNL     1       0.180   4.346  23.606  0.00  0.00    +0.039 C 
ENDROOT
BRANCH   6  10
ATOM     10  C   UNL     1      -3.906   0.193  24.337  0.00  0.00    -0.013 C 
ATOM     15  C   UNL     1      -3.666  -0.613  23.066  0.00  0.00    +0.007 C 
ATOM     16  C   UNL     1      -4.008  -0.727  25.549  0.00  0.00    +0.007 C 
ENDBRANCH   6  10
BRANCH   7  13
ATOM     13  C   UNL     1      -0.773  -0.329  24.513  0.00  0.00    +0.112 C 
BRANCH  13   4
ATOM      3  O   UNL     1       0.771  -0.612  22.109  0.00  0.00    -0.270 OA
ATOM      4  N   UNL     1       0.644  -0.195  24.389  0.00  0.00    -0.311 N 
ATOM     19  C   UNL     1       1.318  -0.350  23.177  0.00  0.00    +0.244 C 
ATOM     29  H   UNL     1       1.154   0.114  25.210  0.00  0.00    +0.149 HD
BRANCH  19  20
ATOM      1  F   UNL     1       5.733  -2.108  24.213  0.00  0.00    -0.205 F 
ATOM     20  C   UNL     1       2.796  -0.203  23.220  0.00  0.00    +0.039 A 
ATOM     22  C   UNL     1       3.586  -1.245  23.706  0.00  0.00    +0.051 A 
ATOM     23  C   UNL     1       3.393   0.975  22.773  0.00  0.00    +0.013 A 
ATOM     25  C   UNL     1       4.974  -1.108  23.746  0.00  0.00    +0.124 A 
ATOM     26  C   UNL     1       4.781   1.113  22.814  0.00  0.00    +0.004 A 
ATOM     27  C   UNL     1       5.571   0.071  23.300  0.00  0.00    +0.038 A 
ENDBRANCH  19  20
ENDBRANCH  13   4
ENDBRANCH   7  13
BRANCH   9  14
ATOM     14  C   UNL     1      -2.168   4.121  25.785  0.00  0.00    +0.103 C 
BRANCH  14  18
ATOM      2  O   UNL     1      -3.714   4.058  27.645  0.00  0.00    -0.276 OA
ATOM      5  N   UNL     1      -4.535   3.982  25.473  0.00  0.00    -0.304 N 
ATOM     18  C   UNL     1      -3.534   4.053  26.430  0.00  0.00    +0.214 C 
ATOM     30  H   UNL     1      -4.281   4.000  24.489  0.00  0.00    +0.150 HD
BRANCH   5  21
ATOM     21  C   UNL     1      -5.939   3.904  25.802  0.00  0.00    +0.193 C 
BRANCH  21  24
ATOM     24  C   UNL     1      -6.309   2.550  26.214  0.00  0.00    -0.087 C 
ATOM     28  C   UNL     1      -6.615   1.441  26.555  0.00  0.00    +0.005 C 
ENDBRANCH  21  24
ENDBRANCH   5  21
ENDBRANCH  14  18
ENDBRANCH   9  14
TORSDOF 8
ENDMDL
MODEL 8
REMARK VINA RESULT:      -1.1      2.319      4.516
REMARK  Name = 38028701
REMARK  11 active torsions:
REMARK  status: ('A' for Active; 'I' for Inactive)
REMARK    1  A    between atoms: N_4  and  C_13
REMARK    2  A    between atoms: N_5  and  C_21
REMARK    3  A    between atoms: C_6  and  C_10
REMARK    4  A    between atoms: C_7  and  C_13
REMARK    5  A    between atoms: C_9  and  C_14
REMARK    6  A    between atoms: C_10  and  C_15
REMARK    7  A    between atoms: C_10  and  C_16
REMARK    8  A    between atoms: C_11  and  C_17
REMARK    9  A    between atoms: C_14  and  C_18
REMARK   10  A    between atoms: C_19  and  C_20
REMARK   11  A    between atoms: C_21  and  C_24
REMARK                            x       y       z     vdW  Elec       q    Type
REMARK                         _______ _______ _______ _____ _____    ______ ____
ROOT
ATOM      6  C   UNL     1      -1.840   3.981  24.744  0.00  0.00    +0.000 C 
ATOM      7  C   UNL     1      -2.035   3.603  26.234  0.00  0.00    +0.032 C 
ATOM      8  C   UNL     1      -3.095   4.679  24.199  0.00  0.00    +0.012 C 
ATOM      9  C   UNL     1      -4.351   3.796  24.318  0.00  0.00    +0.023 C 
ATOM     11  C   UNL     1      -4.470   3.168  25.692  0.00  0.00    -0.073 C 
ATOM     12  C   UNL     1      -3.427   3.103  26.540  0.00  0.00    -0.022 C 
ATOM     17  C   UNL     1      -5.826   2.656  26.088  0.00  0.00    +0.039 C 
ENDROOT
BRANCH   6  10
ATOM     10  C   UNL     1      -0.616   4.879  24.540  0.00  0.00    -0.013 C 
ATOM     15  C   UNL     1      -0.044   4.691  23.140  0.00  0.00    +0.007 C 
ATOM     16  C   UNL     1      -0.983   6.340  24.782  0.00  0.00    +0.007 C 
ENDBRANCH   6  10
BRANCH   7  13
ATOM     13  C   UNL     1      -1.007   2.557  26.679  0.00  0.00    +0.112 C 
BRANCH  13   4
ATOM      3  O   UNL     1      -0.837  -0.095  25.592  0.00  0.00    -0.270 OA
ATOM      4  N   UNL     1      -0.200   2.137  25.577  0.00  0.00    -0.311 N 
ATOM     19  C   UNL     1      -0.177   0.822  25.112  0.00  0.00    +0.244 C 
ATOM     29  H   UNL     1       0.301   2.858  25.069  0.00  0.00    +0.149 HD
BRANCH  19  20
ATOM      1  F   UNL     1       4.000   1.559  22.731  0.00  0.00    -0.205 F 
ATOM     20  C   UNL     1       0.734   0.542  23.972  0.00  0.00    +0.039 A 
ATOM     22  C   UNL     1       1.963   1.195  23.884  0.00  0.00    +0.051 A 
ATOM     23  C   UNL     1       0.361  -0.376  22.991  0.00  0.00    +0.013 A 
ATOM     25  C   UNL     1       2.819   0.932  22.815  0.00  0.00    +0.124 A 
ATOM     26  C   UNL     1       1.216  -0.639  21.920  0.00  0.00    +0.004 A 
ATOM     27  C   UNL     1       2.446   0.014  21.833  0.00  0.00    +0.038 A 
ENDBRANCH  19  20
ENDBRANCH  13   4
ENDBRANCH   7  13
BRANCH   9  14
ATOM     14  C   UNL     1      -4.381   2.726  23.221  0.00  0.00    +0.103 C 
BRANCH  14  18
ATOM      2  O   UNL     1      -2.392   1.350  23.124  0.00  0.00    -0.276 OA
ATOM      5  N   UNL     1      -4.183   0.681  24.444  0.00  0.00    -0.304 N 
ATOM     18  C   UNL     1      -3.523   1.530  23.569  0.00  0.00    +0.214 C 
ATOM     30  H   UNL     1      -5.115   0.929  24.767  0.00  0.00    +0.150 HD
BRANCH   5  21
ATOM     21  C   UNL     1      -3.604  -0.544  24.945  0.00  0.00    +0.193 C 
BRANCH  21  24
ATOM     24  C   UNL     1      -4.031  -1.693  24.148  0.00  0.00    -0.087 C 
ATOM     28  C   UNL     1      -4.385  -2.636  23.495  0.00  0.00    +0.005 C 
ENDBRANCH  21  24
ENDBRANCH   5  21
ENDBRANCH  14  18
ENDBRANCH   9  14
TORSDOF 8
ENDMDL
MODEL 9
REMARK VINA RESULT:      -1.1      1.771      3.811
REMARK  Name = 38028701
REMARK  11 active torsions:
REMARK  status: ('A' for Active; 'I' for Inactive)
REMARK    1  A    between atoms: N_4  and  C_13
REMARK    2  A    between atoms: N_5  and  C_21
REMARK    3  A    between atoms: C_6  and  C_10
REMARK    4  A    between atoms: C_7  and  C_13
REMARK    5  A    between atoms: C_9  and  C_14
REMARK    6  A    between atoms: C_10  and  C_15
REMARK    7  A    between atoms: C_10  and  C_16
REMARK    8  A    between atoms: C_11  and  C_17
REMARK    9  A    between atoms: C_14  and  C_18
REMARK   10  A    between atoms: C_19  and  C_20
REMARK   11  A    between atoms: C_21  and  C_24
REMARK                            x       y       z     vdW  Elec       q    Type
REMARK                         _______ _______ _______ _____ _____    ______ ____
ROOT
ATOM      6  C   UNL     1      -2.867   2.285  23.897  0.00  0.00    +0.000 C 
ATOM      7  C   UNL     1      -1.574   2.361  24.747  0.00  0.00    +0.032 C 
ATOM      8  C   UNL     1      -3.660   3.597  24.008  0.00  0.00    +0.012 C 
ATOM      9  C   UNL     1      -4.050   3.920  25.463  0.00  0.00    +0.023 C 
ATOM     11  C   UNL     1      -2.879   3.756  26.410  0.00  0.00    -0.073 C 
ATOM     12  C   UNL     1      -1.775   3.067  26.067  0.00  0.00    -0.022 C 
ATOM     17  C   UNL     1      -2.985   4.440  27.744  0.00  0.00    +0.039 C 
ENDROOT
BRANCH   6  10
ATOM     10  C   UNL     1      -2.565   1.985  22.426  0.00  0.00    -0.013 C 
ATOM     15  C   UNL     1      -2.857   0.523  22.110  0.00  0.00    +0.007 C 
ATOM     16  C   UNL     1      -3.373   2.907  21.518  0.00  0.00    +0.007 C 
ENDBRANCH   6  10
BRANCH   7  13
ATOM     13  C   UNL     1      -0.994   0.964  24.997  0.00  0.00    +0.112 C 
BRANCH  13   4
ATOM      3  O   UNL     1       0.208  -0.819  23.096  0.00  0.00    -0.270 OA
ATOM      4  N   UNL     1       0.386   0.915  24.628  0.00  0.00    -0.311 N 
ATOM     19  C   UNL     1       0.888   0.012  23.691  0.00  0.00    +0.244 C 
ATOM     29  H   UNL     1       0.993   1.633  25.008  0.00  0.00    +0.149 HD
BRANCH  19  20
ATOM      1  F   UNL     1       5.315  -1.996  23.862  0.00  0.00    -0.205 F 
ATOM     20  C   UNL     1       2.351   0.071  23.436  0.00  0.00    +0.039 A 
ATOM     22  C   UNL     1       3.162  -1.011  23.776  0.00  0.00    +0.051 A 
ATOM     23  C   UNL     1       2.912   1.208  22.854  0.00  0.00    +0.013 A 
ATOM     25  C   UNL     1       4.535  -0.957  23.536  0.00  0.00    +0.124 A 
ATOM     26  C   UNL     1       4.285   1.263  22.615  0.00  0.00    +0.004 A 
ATOM     27  C   UNL     1       5.097   0.181  22.955  0.00  0.00    +0.038 A 
ENDBRANCH  19  20
ENDBRANCH  13   4
ENDBRANCH   7  13
BRANCH   9  14
ATOM     14  C   UNL     1      -5.245   3.074  25.916  0.00  0.00    +0.103 C 
BRANCH  14  18
ATOM      2  O   UNL     1      -6.297   1.946  24.052  0.00  0.00    -0.276 OA
ATOM      5  N   UNL     1      -4.728   0.813  25.338  0.00  0.00    -0.304 N 
ATOM     18  C   UNL     1      -5.502   1.909  24.987  0.00  0.00    +0.214 C 
ATOM     30  H   UNL     1      -4.086   0.890  26.122  0.00  0.00    +0.150 HD
BRANCH   5  21
ATOM     21  C   UNL     1      -4.769  -0.443  24.625  0.00  0.00    +0.193 C 
BRANCH  21  24
ATOM     24  C   UNL     1      -3.762  -1.372  25.137  0.00  0.00    -0.087 C 
ATOM     28  C   UNL     1      -2.938  -2.136  25.559  0.00  0.00    +0.005 C 
ENDBRANCH  21  24
ENDBRANCH   5  21
ENDBRANCH  14  18
ENDBRANCH   9  14
TORSDOF 8
ENDMDL
MODEL 10
REMARK VINA RESULT:      -0.9      3.775      6.555
REMARK  Name = 38028701
REMARK  11 active torsions:
REMARK  status: ('A' for Active; 'I' for Inactive)
REMARK    1  A    between atoms: N_4  and  C_13
REMARK    2  A    between atoms: N_5  and  C_21
REMARK    3  A    between atoms: C_6  and  C_10
REMARK    4  A    between atoms: C_7  and  C_13
REMARK    5  A    between atoms: C_9  and  C_14
REMARK    6  A    between atoms: C_10  and  C_15
REMARK    7  A    between atoms: C_10  and  C_16
REMARK    8  A    between atoms: C_11  and  C_17
REMARK    9  A    between atoms: C_14  and  C_18
REMARK   10  A    between atoms: C_19  and  C_20
REMARK   11  A    between atoms: C_21  and  C_24
REMARK                            x       y       z     vdW  Elec       q    Type
REMARK                         _______ _______ _______ _____ _____    ______ ____
ROOT
ATOM      6  C   UNL     1      -3.745   3.218  25.611  0.00  0.00    +0.000 C 
ATOM      7  C   UNL     1      -3.700   3.879  24.210  0.00  0.00    +0.032 C 
ATOM      8  C   UNL     1      -2.794   3.943  26.575  0.00  0.00    +0.012 C 
ATOM      9  C   UNL     1      -1.336   3.930  26.076  0.00  0.00    +0.023 C 
ATOM     11  C   UNL     1      -1.239   4.316  24.615  0.00  0.00    -0.073 C 
ATOM     12  C   UNL     1      -2.309   4.299  23.799  0.00  0.00    -0.022 C 
ATOM     17  C   UNL     1       0.108   4.764  24.121  0.00  0.00    +0.039 C 
ENDROOT
BRANCH   6  10
ATOM     10  C   UNL     1      -5.162   3.208  26.190  0.00  0.00    -0.013 C 
ATOM     15  C   UNL     1      -5.968   4.383  25.647  0.00  0.00    +0.007 C 
ATOM     16  C   UNL     1      -5.856   1.886  25.877  0.00  0.00    +0.007 C 
ENDBRANCH   6  10
BRANCH   7  13
ATOM     13  C   UNL     1      -4.290   2.951  23.141  0.00  0.00    +0.112 C 
BRANCH  13   4
ATOM      3  O   UNL     1      -1.895   1.373  22.999  0.00  0.00    -0.270 OA
ATOM      4  N   UNL     1      -4.146   1.581  23.524  0.00  0.00    -0.311 N 
ATOM     19  C   UNL     1      -2.941   0.887  23.421  0.00  0.00    +0.244 C 
ATOM     29  H   UNL     1      -4.944   1.139  23.969  0.00  0.00    +0.149 HD
BRANCH  19  20
ATOM      1  F   UNL     1      -0.776  -3.000  25.386  0.00  0.00    -0.205 F 
ATOM     20  C   UNL     1      -2.964  -0.539  23.836  0.00  0.00    +0.039 A 
ATOM     22  C   UNL     1      -1.837  -1.111  24.427  0.00  0.00    +0.051 A 
ATOM     23  C   UNL     1      -4.111  -1.306  23.636  0.00  0.00    +0.013 A 
ATOM     25  C   UNL     1      -1.858  -2.450  24.818  0.00  0.00    +0.124 A 
ATOM     26  C   UNL     1      -4.132  -2.645  24.026  0.00  0.00    +0.004 A 
ATOM     27  C   UNL     1      -3.006  -3.217  24.617  0.00  0.00    +0.038 A 
ENDBRANCH  19  20
ENDBRANCH  13   4
ENDBRANCH   7  13
BRANCH   9  14
ATOM     14  C   UNL     1      -0.676   2.570  26.331  0.00  0.00    +0.103 C 
BRANCH  14  18
ATOM      2  O   UNL     1       1.646   2.823  26.963  0.00  0.00    -0.276 OA
ATOM      5  N   UNL     1       0.032   2.565  28.614  0.00  0.00    -0.304 N 
ATOM     18  C   UNL     1       0.476   2.670  27.305  0.00  0.00    +0.214 C 
ATOM     30  H   UNL     1      -0.963   2.456  28.793  0.00  0.00    +0.150 HD
BRANCH   5  21
ATOM     21  C   UNL     1       0.916   2.624  29.755  0.00  0.00    +0.193 C 
BRANCH  21  24
ATOM     24  C   UNL     1       2.317   2.637  29.336  0.00  0.00    -0.087 C 
ATOM     28  C   UNL     1       3.466   2.646  28.988  0.00  0.00    +0.005 C 
ENDBRANCH  21  24
ENDBRANCH   5  21
ENDBRANCH  14  18
ENDBRANCH   9  14
TORSDOF 8
ENDMDL
