MODEL 1
REMARK VINA RESULT:       1.1      0.000      0.000
REMARK  Name = 11884109
REMARK  9 active torsions:
REMARK  status: ('A' for Active; 'I' for Inactive)
REMARK    1  A    between atoms: S_1  and  N_9
REMARK    2  A    between atoms: S_1  and  C_18
REMARK    3  A    between atoms: O_5  and  C_14
REMARK    4  A    between atoms: O_5  and  C_17
REMARK    5  A    between atoms: N_9  and  C_13
REMARK    6  A    between atoms: N_10  and  C_20
REMARK    7  A    between atoms: C_23  and  C_24
REMARK    8  A    between atoms: C_23  and  C_29
REMARK    9  A    between atoms: C_23  and  C_30
REMARK                            x       y       z     vdW  Elec       q    Type
REMARK                         _______ _______ _______ _____ _____    ______ ____
ROOT
ATOM      3  O   UNL     1      -2.541   0.639  23.901  0.00  0.00    -0.369 OA
ATOM      4  O   UNL     1      -5.160  -0.856  24.510  0.00  0.00    -0.368 OA
ATOM     11  C   UNL     1      -4.392   0.090  25.283  0.00  0.00    +0.171 C 
ATOM     12  C   UNL     1      -2.930  -0.199  25.003  0.00  0.00    +0.191 C 
ATOM     13  C   UNL     1      -4.598   1.483  24.742  0.00  0.00    +0.133 C 
ATOM     14  C   UNL     1      -2.951  -1.659  24.615  0.00  0.00    +0.235 C 
ATOM     15  C   UNL     1      -3.609   1.549  23.595  0.00  0.00    +0.183 C 
ATOM     16  C   UNL     1      -4.260  -1.769  23.866  0.00  0.00    +0.207 C 
ENDROOT
BRANCH  13   9
ATOM      9  N   UNL     1      -4.236   2.484  25.774  0.00  0.00    -0.182 NA
ATOM     31  H   UNL     1      -4.040   2.112  26.711  0.00  0.00    +0.149 HD
BRANCH   9   1
ATOM      1  S   UNL     1      -3.398   3.886  25.264  0.00  0.00    +0.065 S 
ATOM      6  O   UNL     1      -3.399   4.864  26.334  0.00  0.00    -0.153 OA
ATOM      7  O   UNL     1      -3.835   4.232  23.927  0.00  0.00    -0.153 OA
BRANCH   1  18
ATOM      2  S   UNL     1      -1.024   2.576  26.358  0.00  0.00    -0.077 S 
ATOM     18  C   UNL     1      -1.680   3.424  25.042  0.00  0.00    +0.142 A 
ATOM     19  C   UNL     1      -0.810   3.625  24.023  0.00  0.00    +0.036 A 
ATOM     21  C   UNL     1       0.463   3.062  24.321  0.00  0.00    +0.010 A 
ATOM     22  C   UNL     1       0.486   2.459  25.560  0.00  0.00    +0.047 A 
ENDBRANCH   1  18
ENDBRANCH   9   1
ENDBRANCH  13   9
BRANCH  14   5
ATOM      5  O   UNL     1      -1.852  -2.047  23.824  0.00  0.00    -0.442 OA
BRANCH   5  17
ATOM      8  O   UNL     1      -0.279  -1.764  25.459  0.00  0.00    -0.226 OA
ATOM     10  N   UNL     1       0.177  -1.272  23.216  0.00  0.00    -0.251 N 
ATOM     17  C   UNL     1      -0.599  -1.693  24.279  0.00  0.00    +0.405 C 
ATOM     32  H   UNL     1      -0.269  -1.285  22.302  0.00  0.00    +0.158 HD
BRANCH  10  20
ATOM     20  C   UNL     1       1.517  -0.824  23.240  0.00  0.00    +0.036 A 
ATOM     24  C   UNL     1       4.146   0.054  23.288  0.00  0.00    -0.045 A 
ATOM     25  C   UNL     1       1.818   0.444  22.770  0.00  0.00    +0.024 A 
ATOM     26  C   UNL     1       2.505  -1.663  23.734  0.00  0.00    +0.024 A 
ATOM     27  C   UNL     1       3.140   0.886  22.794  0.00  0.00    +0.006 A 
ATOM     28  C   UNL     1       3.827  -1.220  23.758  0.00  0.00    +0.006 A 
BRANCH  24  23
ATOM     23  C   UNL     1       5.560   0.527  23.313  0.00  0.00    +0.013 C 
ATOM     29  C   UNL     1       5.963   1.103  24.684  0.00  0.00    +0.012 C 
ATOM     30  C   UNL     1       6.556  -0.571  22.895  0.00  0.00    +0.012 C 
ENDBRANCH  24  23
ENDBRANCH  10  20
ENDBRANCH   5  17
ENDBRANCH  14   5
TORSDOF 7
ENDMDL
MODEL 2
REMARK VINA RESULT:       2.0      1.523      2.126
REMARK  Name = 11884109
REMARK  9 active torsions:
REMARK  status: ('A' for Active; 'I' for Inactive)
REMARK    1  A    between atoms: S_1  and  N_9
REMARK    2  A    between atoms: S_1  and  C_18
REMARK    3  A    between atoms: O_5  and  C_14
REMARK    4  A    between atoms: O_5  and  C_17
REMARK    5  A    between atoms: N_9  and  C_13
REMARK    6  A    between atoms: N_10  and  C_20
REMARK    7  A    between atoms: C_23  and  C_24
REMARK    8  A    between atoms: C_23  and  C_29
REMARK    9  A    between atoms: C_23  and  C_30
REMARK                            x       y       z     vdW  Elec       q    Type
REMARK                         _______ _______ _______ _____ _____    ______ ____
ROOT
ATOM      3  O   UNL     1      -3.585   1.472  23.124  0.00  0.00    -0.369 OA
ATOM      4  O   UNL     1      -5.526   1.990  25.455  0.00  0.00    -0.368 OA
ATOM     11  C   UNL     1      -4.241   2.562  25.129  0.00  0.00    +0.171 C 
ATOM     12  C   UNL     1      -3.397   1.444  24.549  0.00  0.00    +0.191 C 
ATOM     13  C   UNL     1      -4.388   3.537  23.986  0.00  0.00    +0.133 C 
ATOM     14  C   UNL     1      -4.012   0.212  25.170  0.00  0.00    +0.235 C 
ATOM     15  C   UNL     1      -4.347   2.636  22.768  0.00  0.00    +0.183 C 
ATOM     16  C   UNL     1      -5.479   0.577  25.214  0.00  0.00    +0.207 C 
ENDROOT
BRANCH  13   9
ATOM      9  N   UNL     1      -3.233   4.465  23.963  0.00  0.00    -0.182 NA
ATOM     31  H   UNL     1      -3.258   5.195  23.239  0.00  0.00    +0.149 HD
BRANCH   9   1
ATOM      1  S   UNL     1      -2.466   4.821  25.450  0.00  0.00    +0.065 S 
ATOM      6  O   UNL     1      -3.400   4.608  26.537  0.00  0.00    -0.153 OA
ATOM      7  O   UNL     1      -1.738   6.066  25.314  0.00  0.00    -0.153 OA
BRANCH   1  18
ATOM      2  S   UNL     1      -0.217   3.344  24.307  0.00  0.00    -0.077 S 
ATOM     18  C   UNL     1      -1.174   3.600  25.685  0.00  0.00    +0.142 A 
ATOM     19  C   UNL     1      -0.821   2.846  26.754  0.00  0.00    +0.036 A 
ATOM     21  C   UNL     1       0.289   2.010  26.443  0.00  0.00    +0.010 A 
ATOM     22  C   UNL     1       0.719   2.180  25.144  0.00  0.00    +0.047 A 
ENDBRANCH   1  18
ENDBRANCH   9   1
ENDBRANCH  13   9
BRANCH  14   5
ATOM      5  O   UNL     1      -3.779  -0.966  24.433  0.00  0.00    -0.442 OA
BRANCH   5  17
ATOM      8  O   UNL     1      -2.157  -2.544  24.758  0.00  0.00    -0.226 OA
ATOM     10  N   UNL     1      -1.663  -0.441  23.855  0.00  0.00    -0.251 N 
ATOM     17  C   UNL     1      -2.480  -1.424  24.382  0.00  0.00    +0.405 C 
ATOM     32  H   UNL     1      -2.120   0.430  23.598  0.00  0.00    +0.158 HD
BRANCH  10  20
ATOM     20  C   UNL     1      -0.269  -0.496  23.630  0.00  0.00    +0.036 A 
ATOM     24  C   UNL     1       2.465  -0.604  23.188  0.00  0.00    -0.045 A 
ATOM     25  C   UNL     1       0.264   0.136  22.518  0.00  0.00    +0.024 A 
ATOM     26  C   UNL     1       0.537  -1.181  24.526  0.00  0.00    +0.024 A 
ATOM     27  C   UNL     1       1.640   0.081  22.295  0.00  0.00    +0.006 A 
ATOM     28  C   UNL     1       1.913  -1.235  24.303  0.00  0.00    +0.006 A 
BRANCH  24  23
ATOM     23  C   UNL     1       3.936  -0.662  22.950  0.00  0.00    +0.013 C 
ATOM     29  C   UNL     1       4.596   0.729  23.004  0.00  0.00    +0.012 C 
ATOM     30  C   UNL     1       4.653  -1.618  23.921  0.00  0.00    +0.012 C 
ENDBRANCH  24  23
ENDBRANCH  10  20
ENDBRANCH   5  17
ENDBRANCH  14   5
TORSDOF 7
ENDMDL
MODEL 3
REMARK VINA RESULT:       3.3      2.185      6.810
REMARK  Name = 11884109
REMARK  9 active torsions:
REMARK  status: ('A' for Active; 'I' for Inactive)
REMARK    1  A    between atoms: S_1  and  N_9
REMARK    2  A    between atoms: S_1  and  C_18
REMARK    3  A    between atoms: O_5  and  C_14
REMARK    4  A    between atoms: O_5  and  C_17
REMARK    5  A    between atoms: N_9  and  C_13
REMARK    6  A    between atoms: N_10  and  C_20
REMARK    7  A    between atoms: C_23  and  C_24
REMARK    8  A    between atoms: C_23  and  C_29
REMARK    9  A    between atoms: C_23  and  C_30
REMARK                            x       y       z     vdW  Elec       q    Type
REMARK                         _______ _______ _______ _____ _____    ______ ____
ROOT
ATOM      3  O   UNL     1      -2.019   2.406  24.397  0.00  0.00    -0.369 OA
ATOM      4  O   UNL     1      -0.467   5.034  24.780  0.00  0.00    -0.368 OA
ATOM     11  C   UNL     1      -0.192   3.685  25.210  0.00  0.00    +0.171 C 
ATOM     12  C   UNL     1      -1.524   3.060  25.578  0.00  0.00    +0.191 C 
ATOM     13  C   UNL     1       0.286   2.860  24.041  0.00  0.00    +0.133 C 
ATOM     14  C   UNL     1      -2.361   4.263  25.943  0.00  0.00    +0.235 C 
ATOM     15  C   UNL     1      -1.009   2.433  23.378  0.00  0.00    +0.183 C 
ATOM     16  C   UNL     1      -1.864   5.305  24.967  0.00  0.00    +0.207 C 
ENDROOT
BRANCH  13   9
ATOM      9  N   UNL     1       1.017   1.666  24.529  0.00  0.00    -0.182 NA
ATOM     31  H   UNL     1       0.963   1.489  25.540  0.00  0.00    +0.149 HD
BRANCH   9   1
ATOM      1  S   UNL     1       1.148   0.326  23.475  0.00  0.00    +0.065 S 
ATOM      6  O   UNL     1       0.825   0.741  22.124  0.00  0.00    -0.153 OA
ATOM      7  O   UNL     1       0.501  -0.816  24.088  0.00  0.00    -0.153 OA
BRANCH   1  18
ATOM      2  S   UNL     1       3.893   1.049  22.774  0.00  0.00    -0.077 S 
ATOM     18  C   UNL     1       2.878  -0.144  23.428  0.00  0.00    +0.142 A 
ATOM     19  C   UNL     1       3.524  -1.270  23.816  0.00  0.00    +0.036 A 
ATOM     21  C   UNL     1       4.923  -1.165  23.571  0.00  0.00    +0.010 A 
ATOM     22  C   UNL     1       5.261   0.046  23.006  0.00  0.00    +0.047 A 
ENDBRANCH   1  18
ENDBRANCH   9   1
ENDBRANCH  13   9
BRANCH  14   5
ATOM      5  O   UNL     1      -3.748   4.042  25.823  0.00  0.00    -0.442 OA
BRANCH   5  17
ATOM      8  O   UNL     1      -4.986   2.912  24.268  0.00  0.00    -0.226 OA
ATOM     10  N   UNL     1      -3.444   1.814  25.646  0.00  0.00    -0.251 N 
ATOM     17  C   UNL     1      -4.142   2.901  25.155  0.00  0.00    +0.405 C 
ATOM     32  H   UNL     1      -2.778   2.007  26.390  0.00  0.00    +0.158 HD
BRANCH  10  20
ATOM     20  C   UNL     1      -3.542   0.463  25.242  0.00  0.00    +0.036 A 
ATOM     24  C   UNL     1      -3.733  -2.186  24.450  0.00  0.00    -0.045 A 
ATOM     25  C   UNL     1      -2.699  -0.479  25.811  0.00  0.00    +0.024 A 
ATOM     26  C   UNL     1      -4.478   0.106  24.284  0.00  0.00    +0.024 A 
ATOM     27  C   UNL     1      -2.795  -1.811  25.413  0.00  0.00    +0.006 A 
ATOM     28  C   UNL     1      -4.573  -1.227  23.885  0.00  0.00    +0.006 A 
BRANCH  24  23
ATOM     23  C   UNL     1      -3.835  -3.612  24.023  0.00  0.00    +0.013 C 
ATOM     29  C   UNL     1      -5.018  -3.855  23.065  0.00  0.00    +0.012 C 
ATOM     30  C   UNL     1      -2.533  -4.131  23.386  0.00  0.00    +0.012 C 
ENDBRANCH  24  23
ENDBRANCH  10  20
ENDBRANCH   5  17
ENDBRANCH  14   5
TORSDOF 7
ENDMDL
MODEL 4
REMARK VINA RESULT:       4.1      2.221      3.979
REMARK  Name = 11884109
REMARK  9 active torsions:
REMARK  status: ('A' for Active; 'I' for Inactive)
REMARK    1  A    between atoms: S_1  and  N_9
REMARK    2  A    between atoms: S_1  and  C_18
REMARK    3  A    between atoms: O_5  and  C_14
REMARK    4  A    between atoms: O_5  and  C_17
REMARK    5  A    between atoms: N_9  and  C_13
REMARK    6  A    between atoms: N_10  and  C_20
REMARK    7  A    between atoms: C_23  and  C_24
REMARK    8  A    between atoms: C_23  and  C_29
REMARK    9  A    between atoms: C_23  and  C_30
REMARK                            x       y       z     vdW  Elec       q    Type
REMARK                         _______ _______ _______ _____ _____    ______ ____
ROOT
ATOM      3  O   UNL     1      -3.218   2.357  25.857  0.00  0.00    -0.369 OA
ATOM      4  O   UNL     1      -4.671   3.203  23.281  0.00  0.00    -0.368 OA
ATOM     11  C   UNL     1      -4.295   1.907  23.790  0.00  0.00    +0.171 C 
ATOM     12  C   UNL     1      -2.952   2.075  24.473  0.00  0.00    +0.191 C 
ATOM     13  C   UNL     1      -5.225   1.506  24.909  0.00  0.00    +0.133 C 
ATOM     14  C   UNL     1      -2.368   3.272  23.760  0.00  0.00    +0.235 C 
ATOM     15  C   UNL     1      -4.623   2.203  26.113  0.00  0.00    +0.183 C 
ATOM     16  C   UNL     1      -3.594   4.122  23.513  0.00  0.00    +0.207 C 
ENDROOT
BRANCH  13   9
ATOM      9  N   UNL     1      -5.177   0.037  25.105  0.00  0.00    -0.182 NA
ATOM     31  H   UNL     1      -6.035  -0.395  25.469  0.00  0.00    +0.149 HD
BRANCH   9   1
ATOM      1  S   UNL     1      -4.194  -0.876  24.044  0.00  0.00    +0.065 S 
ATOM      6  O   UNL     1      -3.861  -0.074  22.883  0.00  0.00    -0.153 OA
ATOM      7  O   UNL     1      -4.760  -2.202  23.906  0.00  0.00    -0.153 OA
BRANCH   1  18
ATOM      2  S   UNL     1      -1.794  -2.525  24.313  0.00  0.00    -0.077 S 
ATOM     18  C   UNL     1      -2.636  -1.167  24.884  0.00  0.00    +0.142 A 
ATOM     19  C   UNL     1      -2.009  -0.506  25.887  0.00  0.00    +0.036 A 
ATOM     21  C   UNL     1      -0.773  -1.133  26.216  0.00  0.00    +0.010 A 
ATOM     22  C   UNL     1      -0.532  -2.243  25.436  0.00  0.00    +0.047 A 
ENDBRANCH   1  18
ENDBRANCH   9   1
ENDBRANCH  13   9
BRANCH  14   5
ATOM      5  O   UNL     1      -1.391   3.953  24.512  0.00  0.00    -0.442 OA
BRANCH   5  17
ATOM      8  O   UNL     1       0.414   3.397  25.802  0.00  0.00    -0.226 OA
ATOM     10  N   UNL     1       0.113   2.505  23.658  0.00  0.00    -0.251 N 
ATOM     17  C   UNL     1      -0.210   3.283  24.754  0.00  0.00    +0.405 C 
ATOM     32  H   UNL     1      -0.535   2.543  22.875  0.00  0.00    +0.158 HD
BRANCH  10  20
ATOM     20  C   UNL     1       1.235   1.664  23.489  0.00  0.00    +0.036 A 
ATOM     24  C   UNL     1       3.437   0.013  23.156  0.00  0.00    -0.045 A 
ATOM     25  C   UNL     1       2.484   2.230  23.282  0.00  0.00    +0.024 A 
ATOM     26  C   UNL     1       1.066   0.289  23.533  0.00  0.00    +0.024 A 
ATOM     27  C   UNL     1       3.591   1.400  23.114  0.00  0.00    +0.006 A 
ATOM     28  C   UNL     1       2.175  -0.542  23.365  0.00  0.00    +0.006 A 
BRANCH  24  23
ATOM     23  C   UNL     1       4.622  -0.875  22.976  0.00  0.00    +0.013 C 
ATOM     29  C   UNL     1       5.954  -0.117  23.138  0.00  0.00    +0.012 C 
ATOM     30  C   UNL     1       4.596  -2.091  23.920  0.00  0.00    +0.012 C 
ENDBRANCH  24  23
ENDBRANCH  10  20
ENDBRANCH   5  17
ENDBRANCH  14   5
TORSDOF 7
ENDMDL
MODEL 5
REMARK VINA RESULT:       4.5      2.821      6.208
REMARK  Name = 11884109
REMARK  9 active torsions:
REMARK  status: ('A' for Active; 'I' for Inactive)
REMARK    1  A    between atoms: S_1  and  N_9
REMARK    2  A    between atoms: S_1  and  C_18
REMARK    3  A    between atoms: O_5  and  C_14
REMARK    4  A    between atoms: O_5  and  C_17
REMARK    5  A    between atoms: N_9  and  C_13
REMARK    6  A    between atoms: N_10  and  C_20
REMARK    7  A    between atoms: C_23  and  C_24
REMARK    8  A    between atoms: C_23  and  C_29
REMARK    9  A    between atoms: C_23  and  C_30
REMARK                            x       y       z     vdW  Elec       q    Type
REMARK                         _______ _______ _______ _____ _____    ______ ____
ROOT
ATOM      3  O   UNL     1      -3.506   3.779  24.147  0.00  0.00    -0.369 OA
ATOM      4  O   UNL     1      -3.045   5.636  26.557  0.00  0.00    -0.368 OA
ATOM     11  C   UNL     1      -2.306   4.498  26.064  0.00  0.00    +0.171 C 
ATOM     12  C   UNL     1      -3.325   3.502  25.546  0.00  0.00    +0.191 C 
ATOM     13  C   UNL     1      -1.520   4.888  24.837  0.00  0.00    +0.133 C 
ATOM     14  C   UNL     1      -4.557   3.846  26.349  0.00  0.00    +0.235 C 
ATOM     15  C   UNL     1      -2.545   4.759  23.727  0.00  0.00    +0.183 C 
ATOM     16  C   UNL     1      -4.448   5.349  26.472  0.00  0.00    +0.207 C 
ENDROOT
BRANCH  13   9
ATOM      9  N   UNL     1      -0.417   3.923  24.615  0.00  0.00    -0.182 NA
ATOM     31  H   UNL     1       0.452   4.315  24.230  0.00  0.00    +0.149 HD
BRANCH   9   1
ATOM      1  S   UNL     1      -0.305   2.583  25.673  0.00  0.00    +0.065 S 
ATOM      6  O   UNL     1      -1.598   2.341  26.283  0.00  0.00    -0.153 OA
ATOM      7  O   UNL     1       0.893   2.720  26.475  0.00  0.00    -0.153 OA
BRANCH   1  18
ATOM      2  S   UNL     1       1.294   1.351  23.558  0.00  0.00    -0.077 S 
ATOM     18  C   UNL     1       0.024   1.138  24.663  0.00  0.00    +0.142 A 
ATOM     19  C   UNL     1      -0.551  -0.088  24.619  0.00  0.00    +0.036 A 
ATOM     21  C   UNL     1       0.070  -0.906  23.632  0.00  0.00    +0.010 A 
ATOM     22  C   UNL     1       1.090  -0.248  22.980  0.00  0.00    +0.047 A 
ENDBRANCH   1  18
ENDBRANCH   9   1
ENDBRANCH  13   9
BRANCH  14   5
ATOM      5  O   UNL     1      -5.760   3.449  25.731  0.00  0.00    -0.442 OA
BRANCH   5  17
ATOM      8  O   UNL     1      -6.794   1.719  24.652  0.00  0.00    -0.226 OA
ATOM     10  N   UNL     1      -4.604   1.532  25.459  0.00  0.00    -0.251 N 
ATOM     17  C   UNL     1      -5.808   2.168  25.222  0.00  0.00    +0.405 C 
ATOM     32  H   UNL     1      -3.899   2.075  25.951  0.00  0.00    +0.158 HD
BRANCH  10  20
ATOM     20  C   UNL     1      -4.231   0.216  25.104  0.00  0.00    +0.036 A 
ATOM     24  C   UNL     1      -3.500  -2.366  24.408  0.00  0.00    -0.045 A 
ATOM     25  C   UNL     1      -4.335  -0.186  23.782  0.00  0.00    +0.024 A 
ATOM     26  C   UNL     1      -3.770  -0.648  26.085  0.00  0.00    +0.024 A 
ATOM     27  C   UNL     1      -3.967  -1.485  23.431  0.00  0.00    +0.006 A 
ATOM     28  C   UNL     1      -3.403  -1.947  25.735  0.00  0.00    +0.006 A 
BRANCH  24  23
ATOM     23  C   UNL     1      -3.108  -3.755  24.033  0.00  0.00    +0.013 C 
ATOM     29  C   UNL     1      -4.110  -4.406  23.060  0.00  0.00    +0.012 C 
ATOM     30  C   UNL     1      -1.687  -3.828  23.445  0.00  0.00    +0.012 C 
ENDBRANCH  24  23
ENDBRANCH  10  20
ENDBRANCH   5  17
ENDBRANCH  14   5
TORSDOF 7
ENDMDL
MODEL 6
REMARK VINA RESULT:       4.6      1.950      2.745
REMARK  Name = 11884109
REMARK  9 active torsions:
REMARK  status: ('A' for Active; 'I' for Inactive)
REMARK    1  A    between atoms: S_1  and  N_9
REMARK    2  A    between atoms: S_1  and  C_18
REMARK    3  A    between atoms: O_5  and  C_14
REMARK    4  A    between atoms: O_5  and  C_17
REMARK    5  A    between atoms: N_9  and  C_13
REMARK    6  A    between atoms: N_10  and  C_20
REMARK    7  A    between atoms: C_23  and  C_24
REMARK    8  A    between atoms: C_23  and  C_29
REMARK    9  A    between atoms: C_23  and  C_30
REMARK                            x       y       z     vdW  Elec       q    Type
REMARK                         _______ _______ _______ _____ _____    ______ ____
ROOT
ATOM      3  O   UNL     1      -2.906   0.627  23.598  0.00  0.00    -0.369 OA
ATOM      4  O   UNL     1      -2.153  -2.038  24.937  0.00  0.00    -0.368 OA
ATOM     11  C   UNL     1      -2.551  -0.765  25.488  0.00  0.00    +0.171 C 
ATOM     12  C   UNL     1      -1.935   0.306  24.609  0.00  0.00    +0.191 C 
ATOM     13  C   UNL     1      -4.037  -0.571  25.311  0.00  0.00    +0.133 C 
ATOM     14  C   UNL     1      -0.733  -0.399  24.025  0.00  0.00    +0.235 C 
ATOM     15  C   UNL     1      -4.141  -0.042  23.894  0.00  0.00    +0.183 C 
ATOM     16  C   UNL     1      -1.247  -1.810  23.848  0.00  0.00    +0.207 C 
ENDROOT
BRANCH  13   9
ATOM      9  N   UNL     1      -4.530   0.450  26.266  0.00  0.00    -0.182 NA
ATOM     31  H   UNL     1      -4.009   0.528  27.148  0.00  0.00    +0.149 HD
BRANCH   9   1
ATOM      1  S   UNL     1      -5.253   1.860  25.621  0.00  0.00    +0.065 S 
ATOM      6  O   UNL     1      -6.156   2.430  26.601  0.00  0.00    -0.153 OA
ATOM      7  O   UNL     1      -5.686   1.585  24.266  0.00  0.00    -0.153 OA
BRANCH   1  18
ATOM      2  S   UNL     1      -3.867   3.724  23.845  0.00  0.00    -0.077 S 
ATOM     18  C   UNL     1      -3.950   3.074  25.411  0.00  0.00    +0.142 A 
ATOM     19  C   UNL     1      -3.023   3.567  26.266  0.00  0.00    +0.036 A 
ATOM     21  C   UNL     1      -2.194   4.528  25.620  0.00  0.00    +0.010 A 
ATOM     22  C   UNL     1      -2.544   4.711  24.300  0.00  0.00    +0.047 A 
ENDBRANCH   1  18
ENDBRANCH   9   1
ENDBRANCH  13   9
BRANCH  14   5
ATOM      5  O   UNL     1      -0.287   0.161  22.811  0.00  0.00    -0.442 OA
BRANCH   5  17
ATOM      8  O   UNL     1       1.243  -0.617  21.300  0.00  0.00    -0.226 OA
ATOM     10  N   UNL     1       1.882   0.116  23.430  0.00  0.00    -0.251 N 
ATOM     17  C   UNL     1       0.993  -0.161  22.409  0.00  0.00    +0.405 C 
ATOM     32  H   UNL     1       1.480   0.495  24.284  0.00  0.00    +0.158 HD
BRANCH  10  20
ATOM     20  C   UNL     1       3.284  -0.064  23.435  0.00  0.00    +0.036 A 
ATOM     24  C   UNL     1       6.033  -0.417  23.446  0.00  0.00    -0.045 A 
ATOM     25  C   UNL     1       4.107   1.003  23.110  0.00  0.00    +0.024 A 
ATOM     26  C   UNL     1       3.808  -1.304  23.765  0.00  0.00    +0.024 A 
ATOM     27  C   UNL     1       5.489   0.825  23.115  0.00  0.00    +0.006 A 
ATOM     28  C   UNL     1       5.191  -1.481  23.770  0.00  0.00    +0.006 A 
BRANCH  24  23
ATOM     23  C   UNL     1       7.512  -0.607  23.450  0.00  0.00    +0.013 C 
ATOM     29  C   UNL     1       8.005  -1.411  22.232  0.00  0.00    +0.012 C 
ATOM     30  C   UNL     1       8.278   0.726  23.540  0.00  0.00    +0.012 C 
ENDBRANCH  24  23
ENDBRANCH  10  20
ENDBRANCH   5  17
ENDBRANCH  14   5
TORSDOF 7
ENDMDL
MODEL 7
REMARK VINA RESULT:       4.7      2.322      4.742
REMARK  Name = 11884109
REMARK  9 active torsions:
REMARK  status: ('A' for Active; 'I' for Inactive)
REMARK    1  A    between atoms: S_1  and  N_9
REMARK    2  A    between atoms: S_1  and  C_18
REMARK    3  A    between atoms: O_5  and  C_14
REMARK    4  A    between atoms: O_5  and  C_17
REMARK    5  A    between atoms: N_9  and  C_13
REMARK    6  A    between atoms: N_10  and  C_20
REMARK    7  A    between atoms: C_23  and  C_24
REMARK    8  A    between atoms: C_23  and  C_29
REMARK    9  A    between atoms: C_23  and  C_30
REMARK                            x       y       z     vdW  Elec       q    Type
REMARK                         _______ _______ _______ _____ _____    ______ ____
ROOT
ATOM      3  O   UNL     1      -3.336   1.784  25.578  0.00  0.00    -0.369 OA
ATOM      4  O   UNL     1      -6.296   2.480  25.114  0.00  0.00    -0.368 OA
ATOM     11  C   UNL     1      -5.354   1.718  24.330  0.00  0.00    +0.171 C 
ATOM     12  C   UNL     1      -4.009   2.405  24.470  0.00  0.00    +0.191 C 
ATOM     13  C   UNL     1      -5.139   0.364  24.960  0.00  0.00    +0.133 C 
ATOM     14  C   UNL     1      -4.399   3.831  24.779  0.00  0.00    +0.235 C 
ATOM     15  C   UNL     1      -4.094   0.649  26.022  0.00  0.00    +0.183 C 
ATOM     16  C   UNL     1      -5.636   3.645  25.629  0.00  0.00    +0.207 C 
ENDROOT
BRANCH  13   9
ATOM      9  N   UNL     1      -4.589  -0.579  23.957  0.00  0.00    -0.182 NA
ATOM     31  H   UNL     1      -4.150  -0.151  23.132  0.00  0.00    +0.149 HD
BRANCH   9   1
ATOM      1  S   UNL     1      -3.979  -2.075  24.519  0.00  0.00    +0.065 S 
ATOM      6  O   UNL     1      -4.194  -3.093  23.511  0.00  0.00    -0.153 OA
ATOM      7  O   UNL     1      -4.408  -2.269  25.890  0.00  0.00    -0.153 OA
BRANCH   1  18
ATOM      2  S   UNL     1      -1.695  -1.059  26.036  0.00  0.00    -0.077 S 
ATOM     18  C   UNL     1      -2.199  -1.904  24.653  0.00  0.00    +0.142 A 
ATOM     19  C   UNL     1      -1.185  -2.322  23.858  0.00  0.00    +0.036 A 
ATOM     21  C   UNL     1       0.076  -1.937  24.396  0.00  0.00    +0.010 A 
ATOM     22  C   UNL     1      -0.055  -1.243  25.580  0.00  0.00    +0.047 A 
ENDBRANCH   1  18
ENDBRANCH   9   1
ENDBRANCH  13   9
BRANCH  14   5
ATOM      5  O   UNL     1      -3.395   4.555  25.453  0.00  0.00    -0.442 OA
BRANCH   5  17
ATOM      8  O   UNL     1      -1.202   5.135  25.168  0.00  0.00    -0.226 OA
ATOM     10  N   UNL     1      -1.981   2.986  24.662  0.00  0.00    -0.251 N 
ATOM     17  C   UNL     1      -2.090   4.295  25.093  0.00  0.00    +0.405 C 
ATOM     32  H   UNL     1      -2.837   2.438  24.673  0.00  0.00    +0.158 HD
BRANCH  10  20
ATOM     20  C   UNL     1      -0.825   2.314  24.206  0.00  0.00    +0.036 A 
ATOM     24  C   UNL     1       1.443   0.994  23.311  0.00  0.00    -0.045 A 
ATOM     25  C   UNL     1      -0.905   1.513  23.077  0.00  0.00    +0.024 A 
ATOM     26  C   UNL     1       0.367   2.467  24.896  0.00  0.00    +0.024 A 
ATOM     27  C   UNL     1       0.235   0.849  22.627  0.00  0.00    +0.006 A 
ATOM     28  C   UNL     1       1.508   1.803  24.446  0.00  0.00    +0.006 A 
BRANCH  24  23
ATOM     23  C   UNL     1       2.663   0.283  22.830  0.00  0.00    +0.013 C 
ATOM     29  C   UNL     1       2.443  -0.405  21.469  0.00  0.00    +0.012 C 
ATOM     30  C   UNL     1       3.892   1.207  22.755  0.00  0.00    +0.012 C 
ENDBRANCH  24  23
ENDBRANCH  10  20
ENDBRANCH   5  17
ENDBRANCH  14   5
TORSDOF 7
ENDMDL
MODEL 8
REMARK VINA RESULT:       4.9      3.092      5.525
REMARK  Name = 11884109
REMARK  9 active torsions:
REMARK  status: ('A' for Active; 'I' for Inactive)
REMARK    1  A    between atoms: S_1  and  N_9
REMARK    2  A    between atoms: S_1  and  C_18
REMARK    3  A    between atoms: O_5  and  C_14
REMARK    4  A    between atoms: O_5  and  C_17
REMARK    5  A    between atoms: N_9  and  C_13
REMARK    6  A    between atoms: N_10  and  C_20
REMARK    7  A    between atoms: C_23  and  C_24
REMARK    8  A    between atoms: C_23  and  C_29
REMARK    9  A    between atoms: C_23  and  C_30
REMARK                            x       y       z     vdW  Elec       q    Type
REMARK                         _______ _______ _______ _____ _____    ______ ____
ROOT
ATOM      3  O   UNL     1      -3.039   1.652  24.459  0.00  0.00    -0.369 OA
ATOM      4  O   UNL     1      -5.803   2.156  25.712  0.00  0.00    -0.368 OA
ATOM     11  C   UNL     1      -5.372   1.264  24.663  0.00  0.00    +0.171 C 
ATOM     12  C   UNL     1      -4.306   1.997  23.873  0.00  0.00    +0.191 C 
ATOM     13  C   UNL     1      -4.639   0.087  25.258  0.00  0.00    +0.133 C 
ATOM     14  C   UNL     1      -4.657   3.446  24.114  0.00  0.00    +0.235 C 
ATOM     15  C   UNL     1      -3.233   0.623  25.442  0.00  0.00    +0.183 C 
ATOM     16  C   UNL     1      -5.148   3.421  25.543  0.00  0.00    +0.207 C 
ENDROOT
BRANCH  13   9
ATOM      9  N   UNL     1      -4.625  -1.040  24.295  0.00  0.00    -0.182 NA
ATOM     31  H   UNL     1      -4.907  -0.811  23.333  0.00  0.00    +0.149 HD
BRANCH   9   1
ATOM      1  S   UNL     1      -3.465  -2.275  24.530  0.00  0.00    +0.065 S 
ATOM      6  O   UNL     1      -3.623  -3.286  23.504  0.00  0.00    -0.153 OA
ATOM      7  O   UNL     1      -3.435  -2.626  25.936  0.00  0.00    -0.153 OA
BRANCH   1  18
ATOM      2  S   UNL     1      -0.733  -1.853  25.480  0.00  0.00    -0.077 S 
ATOM     18  C   UNL     1      -1.852  -1.549  24.241  0.00  0.00    +0.142 A 
ATOM     19  C   UNL     1      -1.361  -0.805  23.220  0.00  0.00    +0.036 A 
ATOM     21  C   UNL     1       0.001  -0.458  23.451  0.00  0.00    +0.010 A 
ATOM     22  C   UNL     1       0.469  -0.964  24.644  0.00  0.00    +0.047 A 
ENDBRANCH   1  18
ENDBRANCH   9   1
ENDBRANCH  13   9
BRANCH  14   5
ATOM      5  O   UNL     1      -3.568   4.325  23.941  0.00  0.00    -0.442 OA
BRANCH   5  17
ATOM      8  O   UNL     1      -2.679   5.489  25.696  0.00  0.00    -0.226 OA
ATOM     10  N   UNL     1      -1.947   3.332  25.154  0.00  0.00    -0.251 N 
ATOM     17  C   UNL     1      -2.711   4.475  25.010  0.00  0.00    +0.405 C 
ATOM     32  H   UNL     1      -2.120   2.589  24.481  0.00  0.00    +0.158 HD
BRANCH  10  20
ATOM     20  C   UNL     1      -0.950   3.068  26.120  0.00  0.00    +0.036 A 
ATOM     24  C   UNL     1       1.006   2.550  28.014  0.00  0.00    -0.045 A 
ATOM     25  C   UNL     1       0.355   2.850  25.707  0.00  0.00    +0.024 A 
ATOM     26  C   UNL     1      -1.296   3.032  27.461  0.00  0.00    +0.024 A 
ATOM     27  C   UNL     1       1.339   2.589  26.660  0.00  0.00    +0.006 A 
ATOM     28  C   UNL     1      -0.312   2.771  28.415  0.00  0.00    +0.006 A 
BRANCH  24  23
ATOM     23  C   UNL     1       2.058   2.269  29.034  0.00  0.00    +0.013 C 
ATOM     29  C   UNL     1       3.207   3.296  28.990  0.00  0.00    +0.012 C 
ATOM     30  C   UNL     1       1.488   2.185  30.462  0.00  0.00    +0.012 C 
ENDBRANCH  24  23
ENDBRANCH  10  20
ENDBRANCH   5  17
ENDBRANCH  14   5
TORSDOF 7
ENDMDL
MODEL 9
REMARK VINA RESULT:       5.0      2.983      4.481
REMARK  Name = 11884109
REMARK  9 active torsions:
REMARK  status: ('A' for Active; 'I' for Inactive)
REMARK    1  A    between atoms: S_1  and  N_9
REMARK    2  A    between atoms: S_1  and  C_18
REMARK    3  A    between atoms: O_5  and  C_14
REMARK    4  A    between atoms: O_5  and  C_17
REMARK    5  A    between atoms: N_9  and  C_13
REMARK    6  A    between atoms: N_10  and  C_20
REMARK    7  A    between atoms: C_23  and  C_24
REMARK    8  A    between atoms: C_23  and  C_29
REMARK    9  A    between atoms: C_23  and  C_30
REMARK                            x       y       z     vdW  Elec       q    Type
REMARK                         _______ _______ _______ _____ _____    ______ ____
ROOT
ATOM      3  O   UNL     1      -2.171  -0.380  24.469  0.00  0.00    -0.369 OA
ATOM      4  O   UNL     1      -3.550  -3.129  24.505  0.00  0.00    -0.368 OA
ATOM     11  C   UNL     1      -3.630  -2.002  25.402  0.00  0.00    +0.171 C 
ATOM     12  C   UNL     1      -2.240  -1.401  25.478  0.00  0.00    +0.191 C 
ATOM     13  C   UNL     1      -4.466  -0.910  24.782  0.00  0.00    +0.133 C 
ATOM     14  C   UNL     1      -1.354  -2.578  25.145  0.00  0.00    +0.235 C 
ATOM     15  C   UNL     1      -3.472  -0.189  23.893  0.00  0.00    +0.183 C 
ATOM     16  C   UNL     1      -2.181  -3.317  24.118  0.00  0.00    +0.207 C 
ENDROOT
BRANCH  13   9
ATOM      9  N   UNL     1      -4.957   0.010  25.835  0.00  0.00    -0.182 NA
ATOM     31  H   UNL     1      -4.320   0.167  26.627  0.00  0.00    +0.149 HD
BRANCH   9   1
ATOM      1  S   UNL     1      -5.991   1.287  25.359  0.00  0.00    +0.065 S 
ATOM      6  O   UNL     1      -6.561   1.911  26.537  0.00  0.00    -0.153 OA
ATOM      7  O   UNL     1      -6.829   0.828  24.269  0.00  0.00    -0.153 OA
BRANCH   1  18
ATOM      2  S   UNL     1      -4.972   4.026  25.432  0.00  0.00    -0.077 S 
ATOM     18  C   UNL     1      -4.964   2.546  24.601  0.00  0.00    +0.142 A 
ATOM     19  C   UNL     1      -4.185   2.536  23.493  0.00  0.00    +0.036 A 
ATOM     21  C   UNL     1      -3.556   3.799  23.301  0.00  0.00    +0.010 A 
ATOM     22  C   UNL     1      -3.896   4.703  24.284  0.00  0.00    +0.047 A 
ENDBRANCH   1  18
ENDBRANCH   9   1
ENDBRANCH  13   9
BRANCH  14   5
ATOM      5  O   UNL     1      -0.090  -2.207  24.643  0.00  0.00    -0.442 OA
BRANCH   5  17
ATOM      8  O   UNL     1       0.389  -0.705  22.987  0.00  0.00    -0.226 OA
ATOM     10  N   UNL     1      -0.317  -0.012  25.109  0.00  0.00    -0.251 N 
ATOM     17  C   UNL     1       0.029  -0.930  24.136  0.00  0.00    +0.405 C 
ATOM     32  H   UNL     1      -0.592  -0.395  26.010  0.00  0.00    +0.158 HD
BRANCH  10  20
ATOM     20  C   UNL     1      -0.333   1.398  25.008  0.00  0.00    +0.036 A 
ATOM     24  C   UNL     1      -0.366   4.162  24.810  0.00  0.00    -0.045 A 
ATOM     25  C   UNL     1       0.226   2.006  23.895  0.00  0.00    +0.024 A 
ATOM     26  C   UNL     1      -0.909   2.145  26.024  0.00  0.00    +0.024 A 
ATOM     27  C   UNL     1       0.210   3.396  23.796  0.00  0.00    +0.006 A 
ATOM     28  C   UNL     1      -0.924   3.536  25.925  0.00  0.00    +0.006 A 
BRANCH  24  23
ATOM     23  C   UNL     1      -0.382   5.650  24.704  0.00  0.00    +0.013 C 
ATOM     29  C   UNL     1      -0.102   6.140  23.270  0.00  0.00    +0.012 C 
ATOM     30  C   UNL     1      -1.698   6.263  25.218  0.00  0.00    +0.012 C 
ENDBRANCH  24  23
ENDBRANCH  10  20
ENDBRANCH   5  17
ENDBRANCH  14   5
TORSDOF 7
ENDMDL
