MODEL 1
REMARK VINA RESULT:       2.1      0.000      0.000
REMARK  Name = 11866303
REMARK  13 active torsions:
REMARK  status: ('A' for Active; 'I' for Inactive)
REMARK    1  A    between atoms: S_1  and  C_30
REMARK    2  A    between atoms: S_1  and  C_35
REMARK    3  A    between atoms: O_2  and  C_11
REMARK    4  A    between atoms: O_3  and  C_13
REMARK    5  A    between atoms: O_7  and  C_24
REMARK    6  A    between atoms: O_7  and  C_34
REMARK    7  A    between atoms: N_8  and  C_12
REMARK    8  A    between atoms: N_9  and  C_18
REMARK    9  A    between atoms: C_15  and  C_17
REMARK   10  A    between atoms: C_18  and  C_20
REMARK   11  A    between atoms: C_18  and  C_22
REMARK   12  A    between atoms: C_19  and  C_21
REMARK   13  A    between atoms: C_20  and  C_23
REMARK                            x       y       z     vdW  Elec       q    Type
REMARK                         _______ _______ _______ _____ _____    ______ ____
ROOT
ATOM     11  C   UNL     1      -1.076  -2.335  25.007  0.00  0.00    +0.167 C 
ATOM     12  C   UNL     1      -0.614  -1.472  23.817  0.00  0.00    +0.128 C 
ATOM     13  C   UNL     1      -2.604  -2.452  25.057  0.00  0.00    +0.149 C 
ATOM     14  C   UNL     1      -3.289  -1.074  25.100  0.00  0.00    +0.074 C 
ATOM     15  C   UNL     1      -2.619  -0.049  24.230  0.00  0.00    +0.015 C 
ATOM     16  C   UNL     1      -1.425  -0.217  23.641  0.00  0.00    +0.006 C 
ENDROOT
BRANCH  15  17
ATOM      4  O   UNL     1      -3.108   1.873  22.968  0.00  0.00    -0.271 OA
ATOM      9  N   UNL     1      -4.206   1.544  24.998  0.00  0.00    -0.300 N 
ATOM     17  C   UNL     1      -3.322   1.214  23.985  0.00  0.00    +0.241 C 
ATOM     39  H   UNL     1      -4.354   0.882  25.755  0.00  0.00    +0.150 HD
BRANCH   9  18
ATOM     18  C   UNL     1      -5.012   2.744  24.983  0.00  0.00    +0.163 C 
BRANCH  18  22
ATOM      6  O   UNL     1      -7.299   1.967  24.717  0.00  0.00    -0.274 OA
ATOM     10  N   UNL     1      -6.536   2.431  26.833  0.00  0.00    -0.328 N 
ATOM     22  C   UNL     1      -6.402   2.354  25.463  0.00  0.00    +0.231 C 
ATOM     40  H   UNL     1      -5.779   2.732  27.439  0.00  0.00    +0.145 HD
ATOM     41  H   UNL     1      -7.411   2.186  27.285  0.00  0.00    +0.145 HD
ENDBRANCH  18  22
BRANCH  18  20
ATOM     20  C   UNL     1      -4.428   3.848  25.874  0.00  0.00    +0.067 C 
BRANCH  20  23
ATOM     23  C   UNL     1      -2.943   4.028  25.667  0.00  0.00    -0.045 A 
ATOM     26  C   UNL     1      -2.486   5.120  24.946  0.00  0.00    +0.004 A 
ATOM     27  C   UNL     1      -2.066   3.099  26.200  0.00  0.00    +0.004 A 
ATOM     31  C   UNL     1      -1.115   5.286  24.754  0.00  0.00    +0.000 A 
ATOM     32  C   UNL     1      -0.693   3.266  26.009  0.00  0.00    +0.000 A 
ATOM     33  C   UNL     1      -0.218   4.360  25.285  0.00  0.00    +0.000 A 
ENDBRANCH  20  23
ENDBRANCH  18  20
ENDBRANCH   9  18
ENDBRANCH  15  17
BRANCH  12   8
ATOM      5  O   UNL     1       1.133  -0.703  21.672  0.00  0.00    -0.270 OA
ATOM      8  N   UNL     1       0.779  -1.114  23.927  0.00  0.00    -0.302 N 
ATOM     19  C   UNL     1       1.546  -0.756  22.828  0.00  0.00    +0.248 C 
ATOM     36  H   UNL     1       1.216  -1.235  24.835  0.00  0.00    +0.150 HD
BRANCH  19  21
ATOM     21  C   UNL     1       2.971  -0.441  23.104  0.00  0.00    +0.078 A 
ATOM     24  C   UNL     1       3.404   0.869  23.074  0.00  0.00    +0.133 A 
ATOM     25  C   UNL     1       3.825  -1.489  23.385  0.00  0.00    +0.018 A 
ATOM     28  C   UNL     1       4.746   1.144  23.334  0.00  0.00    +0.061 A 
ATOM     29  C   UNL     1       5.168  -1.214  23.646  0.00  0.00    +0.015 A 
ATOM     30  C   UNL     1       5.629   0.102  23.621  0.00  0.00    +0.011 A 
BRANCH  30   1
ATOM      1  S   UNL     1       7.343   0.453  23.954  0.00  0.00    -0.128 S 
ATOM     35  C   UNL     1       8.181  -0.632  22.765  0.00  0.00    +0.090 C 
ENDBRANCH  30   1
BRANCH  24   7
ATOM      7  O   UNL     1       2.557   1.901  22.796  0.00  0.00    -0.494 OA
ATOM     34  C   UNL     1       1.409   2.039  23.630  0.00  0.00    +0.277 C 
ENDBRANCH  24   7
ENDBRANCH  19  21
ENDBRANCH  12   8
BRANCH  11   2
ATOM      2  O   UNL     1      -0.619  -1.750  26.228  0.00  0.00    -0.387 OA
ATOM     37  H   UNL     1      -0.187  -2.452  26.744  0.00  0.00    +0.210 HD
ENDBRANCH  11   2
BRANCH  13   3
ATOM      3  O   UNL     1      -3.077  -3.198  23.938  0.00  0.00    -0.389 OA
ATOM     38  H   UNL     1      -2.422  -3.102  23.225  0.00  0.00    +0.210 HD
ENDBRANCH  13   3
TORSDOF 11
ENDMDL
MODEL 2
REMARK VINA RESULT:       3.8      0.988      1.654
REMARK  Name = 11866303
REMARK  13 active torsions:
REMARK  status: ('A' for Active; 'I' for Inactive)
REMARK    1  A    between atoms: S_1  and  C_30
REMARK    2  A    between atoms: S_1  and  C_35
REMARK    3  A    between atoms: O_2  and  C_11
REMARK    4  A    between atoms: O_3  and  C_13
REMARK    5  A    between atoms: O_7  and  C_24
REMARK    6  A    between atoms: O_7  and  C_34
REMARK    7  A    between atoms: N_8  and  C_12
REMARK    8  A    between atoms: N_9  and  C_18
REMARK    9  A    between atoms: C_15  and  C_17
REMARK   10  A    between atoms: C_18  and  C_20
REMARK   11  A    between atoms: C_18  and  C_22
REMARK   12  A    between atoms: C_19  and  C_21
REMARK   13  A    between atoms: C_20  and  C_23
REMARK                            x       y       z     vdW  Elec       q    Type
REMARK                         _______ _______ _______ _____ _____    ______ ____
ROOT
ATOM     11  C   UNL     1      -1.038  -1.885  24.957  0.00  0.00    +0.167 C 
ATOM     12  C   UNL     1      -0.576  -1.067  23.736  0.00  0.00    +0.128 C 
ATOM     13  C   UNL     1      -2.565  -2.016  25.001  0.00  0.00    +0.149 C 
ATOM     14  C   UNL     1      -3.264  -0.645  24.983  0.00  0.00    +0.074 C 
ATOM     15  C   UNL     1      -2.598   0.351  24.076  0.00  0.00    +0.015 C 
ATOM     16  C   UNL     1      -1.399   0.171  23.503  0.00  0.00    +0.006 C 
ENDROOT
BRANCH  15  17
ATOM      4  O   UNL     1      -3.293   2.081  22.646  0.00  0.00    -0.271 OA
ATOM      9  N   UNL     1      -3.971   2.118  24.875  0.00  0.00    -0.300 N 
ATOM     17  C   UNL     1      -3.313   1.595  23.776  0.00  0.00    +0.241 C 
ATOM     39  H   UNL     1      -3.978   1.587  25.742  0.00  0.00    +0.150 HD
BRANCH   9  18
ATOM     18  C   UNL     1      -4.741   3.340  24.827  0.00  0.00    +0.163 C 
BRANCH  18  22
ATOM      6  O   UNL     1      -6.287   2.056  26.194  0.00  0.00    -0.274 OA
ATOM     10  N   UNL     1      -6.600   4.324  26.019  0.00  0.00    -0.328 N 
ATOM     22  C   UNL     1      -5.950   3.143  25.730  0.00  0.00    +0.231 C 
ATOM     40  H   UNL     1      -6.296   5.219  25.646  0.00  0.00    +0.145 HD
ATOM     41  H   UNL     1      -7.415   4.336  26.622  0.00  0.00    +0.145 HD
ENDBRANCH  18  22
BRANCH  18  20
ATOM     20  C   UNL     1      -3.928   4.559  25.279  0.00  0.00    +0.067 C 
BRANCH  20  23
ATOM     23  C   UNL     1      -2.449   4.265  25.358  0.00  0.00    -0.045 A 
ATOM     26  C   UNL     1      -1.572   4.980  24.557  0.00  0.00    +0.004 A 
ATOM     27  C   UNL     1      -1.997   3.288  26.229  0.00  0.00    +0.004 A 
ATOM     31  C   UNL     1      -0.206   4.708  24.630  0.00  0.00    +0.000 A 
ATOM     32  C   UNL     1      -0.630   3.016  26.301  0.00  0.00    +0.000 A 
ATOM     33  C   UNL     1       0.266   3.727  25.502  0.00  0.00    +0.000 A 
ENDBRANCH  20  23
ENDBRANCH  18  20
ENDBRANCH   9  18
ENDBRANCH  15  17
BRANCH  12   8
ATOM      5  O   UNL     1       1.182  -0.380  21.572  0.00  0.00    -0.270 OA
ATOM      8  N   UNL     1       0.813  -0.691  23.841  0.00  0.00    -0.302 N 
ATOM     19  C   UNL     1       1.585  -0.375  22.732  0.00  0.00    +0.248 C 
ATOM     36  H   UNL     1       1.242  -0.765  24.757  0.00  0.00    +0.150 HD
BRANCH  19  21
ATOM     21  C   UNL     1       3.004  -0.034  23.006  0.00  0.00    +0.078 A 
ATOM     24  C   UNL     1       3.822  -0.950  23.635  0.00  0.00    +0.133 A 
ATOM     25  C   UNL     1       3.461   1.209  22.615  0.00  0.00    +0.018 A 
ATOM     28  C   UNL     1       5.152  -0.610  23.885  0.00  0.00    +0.061 A 
ATOM     29  C   UNL     1       4.791   1.549  22.865  0.00  0.00    +0.015 A 
ATOM     30  C   UNL     1       5.637   0.640  23.500  0.00  0.00    +0.011 A 
BRANCH  30   1
ATOM      1  S   UNL     1       7.335   1.074  23.818  0.00  0.00    -0.128 S 
ATOM     35  C   UNL     1       8.221  -0.311  23.049  0.00  0.00    +0.090 C 
ENDBRANCH  30   1
BRANCH  24   7
ATOM      7  O   UNL     1       3.368  -2.177  24.020  0.00  0.00    -0.494 OA
ATOM     34  C   UNL     1       4.346  -3.132  24.424  0.00  0.00    +0.277 C 
ENDBRANCH  24   7
ENDBRANCH  19  21
ENDBRANCH  12   8
BRANCH  11   2
ATOM      2  O   UNL     1      -0.596  -1.247  26.157  0.00  0.00    -0.387 OA
ATOM     37  H   UNL     1       0.376  -1.216  26.130  0.00  0.00    +0.210 HD
ENDBRANCH  11   2
BRANCH  13   3
ATOM      3  O   UNL     1      -3.022  -2.812  23.910  0.00  0.00    -0.389 OA
ATOM     38  H   UNL     1      -3.620  -3.489  24.272  0.00  0.00    +0.210 HD
ENDBRANCH  13   3
TORSDOF 11
ENDMDL
MODEL 3
REMARK VINA RESULT:       6.0      1.967      4.822
REMARK  Name = 11866303
REMARK  13 active torsions:
REMARK  status: ('A' for Active; 'I' for Inactive)
REMARK    1  A    between atoms: S_1  and  C_30
REMARK    2  A    between atoms: S_1  and  C_35
REMARK    3  A    between atoms: O_2  and  C_11
REMARK    4  A    between atoms: O_3  and  C_13
REMARK    5  A    between atoms: O_7  and  C_24
REMARK    6  A    between atoms: O_7  and  C_34
REMARK    7  A    between atoms: N_8  and  C_12
REMARK    8  A    between atoms: N_9  and  C_18
REMARK    9  A    between atoms: C_15  and  C_17
REMARK   10  A    between atoms: C_18  and  C_20
REMARK   11  A    between atoms: C_18  and  C_22
REMARK   12  A    between atoms: C_19  and  C_21
REMARK   13  A    between atoms: C_20  and  C_23
REMARK                            x       y       z     vdW  Elec       q    Type
REMARK                         _______ _______ _______ _____ _____    ______ ____
ROOT
ATOM     11  C   UNL     1      -0.329   4.981  24.357  0.00  0.00    +0.167 C 
ATOM     12  C   UNL     1      -0.387   3.681  25.182  0.00  0.00    +0.128 C 
ATOM     13  C   UNL     1      -1.627   5.788  24.490  0.00  0.00    +0.149 C 
ATOM     14  C   UNL     1      -2.864   4.963  24.097  0.00  0.00    +0.074 C 
ATOM     15  C   UNL     1      -2.793   3.531  24.549  0.00  0.00    +0.015 C 
ATOM     16  C   UNL     1      -1.693   2.947  25.045  0.00  0.00    +0.006 C 
ENDROOT
BRANCH  15  17
ATOM      4  O   UNL     1      -4.803   2.858  23.532  0.00  0.00    -0.271 OA
ATOM      9  N   UNL     1      -4.143   1.833  25.519  0.00  0.00    -0.300 N 
ATOM     17  C   UNL     1      -4.012   2.720  24.465  0.00  0.00    +0.241 C 
ATOM     39  H   UNL     1      -3.386   1.757  26.193  0.00  0.00    +0.150 HD
BRANCH   9  18
ATOM     18  C   UNL     1      -5.263   0.930  25.656  0.00  0.00    +0.163 C 
BRANCH  18  22
ATOM      6  O   UNL     1      -6.783   2.410  26.843  0.00  0.00    -0.274 OA
ATOM     10  N   UNL     1      -7.280   1.833  24.676  0.00  0.00    -0.328 N 
ATOM     22  C   UNL     1      -6.510   1.786  25.819  0.00  0.00    +0.231 C 
ATOM     40  H   UNL     1      -7.030   1.330  23.830  0.00  0.00    +0.145 HD
ATOM     41  H   UNL     1      -8.133   2.380  24.644  0.00  0.00    +0.145 HD
ENDBRANCH  18  22
BRANCH  18  20
ATOM     20  C   UNL     1      -5.409  -0.004  24.448  0.00  0.00    +0.067 C 
BRANCH  20  23
ATOM     23  C   UNL     1      -4.473  -1.187  24.521  0.00  0.00    -0.045 A 
ATOM     26  C   UNL     1      -3.633  -1.322  25.615  0.00  0.00    +0.004 A 
ATOM     27  C   UNL     1      -4.471  -2.114  23.492  0.00  0.00    +0.004 A 
ATOM     31  C   UNL     1      -2.769  -2.414  25.682  0.00  0.00    +0.000 A 
ATOM     32  C   UNL     1      -3.606  -3.208  23.560  0.00  0.00    +0.000 A 
ATOM     33  C   UNL     1      -2.755  -3.357  24.654  0.00  0.00    +0.000 A 
ENDBRANCH  20  23
ENDBRANCH  18  20
ENDBRANCH   9  18
ENDBRANCH  15  17
BRANCH  12   8
ATOM      5  O   UNL     1      -0.374   1.757  23.050  0.00  0.00    -0.270 OA
ATOM      8  N   UNL     1       0.690   2.784  24.837  0.00  0.00    -0.302 N 
ATOM     19  C   UNL     1       0.602   1.884  23.785  0.00  0.00    +0.248 C 
ATOM     36  H   UNL     1       1.488   2.760  25.463  0.00  0.00    +0.150 HD
BRANCH  19  21
ATOM     21  C   UNL     1       1.786   1.012  23.576  0.00  0.00    +0.078 A 
ATOM     24  C   UNL     1       1.636  -0.360  23.575  0.00  0.00    +0.133 A 
ATOM     25  C   UNL     1       3.014   1.615  23.389  0.00  0.00    +0.018 A 
ATOM     28  C   UNL     1       2.760  -1.163  23.380  0.00  0.00    +0.061 A 
ATOM     29  C   UNL     1       4.137   0.813  23.193  0.00  0.00    +0.015 A 
ATOM     30  C   UNL     1       4.012  -0.576  23.188  0.00  0.00    +0.011 A 
BRANCH  30   1
ATOM      1  S   UNL     1       5.447  -1.601  22.937  0.00  0.00    -0.128 S 
ATOM     35  C   UNL     1       6.797  -0.429  23.252  0.00  0.00    +0.090 C 
ENDBRANCH  30   1
BRANCH  24   7
ATOM      7  O   UNL     1       0.422  -0.952  23.761  0.00  0.00    -0.494 OA
ATOM     34  C   UNL     1       0.084  -1.333  25.092  0.00  0.00    +0.277 C 
ENDBRANCH  24   7
ENDBRANCH  19  21
ENDBRANCH  12   8
BRANCH  11   2
ATOM      2  O   UNL     1      -0.122   4.667  22.979  0.00  0.00    -0.387 OA
ATOM     37  H   UNL     1       0.778   4.309  22.893  0.00  0.00    +0.210 HD
ENDBRANCH  11   2
BRANCH  13   3
ATOM      3  O   UNL     1      -1.768   6.277  25.822  0.00  0.00    -0.389 OA
ATOM     38  H   UNL     1      -0.958   6.041  26.308  0.00  0.00    +0.210 HD
ENDBRANCH  13   3
TORSDOF 11
ENDMDL
