MODEL 1
REMARK VINA RESULT:       5.2      0.000      0.000
REMARK  Name = 7144202
REMARK  5 active torsions:
REMARK  status: ('A' for Active; 'I' for Inactive)
REMARK    1  A    between atoms: S_1  and  N_9
REMARK    2  A    between atoms: S_1  and  C_22
REMARK    3  A    between atoms: O_8  and  C_32
REMARK    4  A    between atoms: O_8  and  C_34
REMARK    5  A    between atoms: C_18  and  C_23
REMARK                            x       y       z     vdW  Elec       q    Type
REMARK                         _______ _______ _______ _____ _____    ______ ____
ROOT
ATOM      7  O   UNL     1      -3.219   4.879  26.311  0.00  0.00    -0.268 OA
ATOM      9  N   UNL     1      -3.588   0.548  23.937  0.00  0.00    -0.176 NA
ATOM     10  N   UNL     1      -2.533   3.442  24.593  0.00  0.00    -0.311 N 
ATOM     11  C   UNL     1      -4.154   2.669  22.762  0.00  0.00    +0.025 C 
ATOM     12  C   UNL     1      -1.834   1.866  22.763  0.00  0.00    +0.053 C 
ATOM     13  C   UNL     1      -2.902   2.546  21.910  0.00  0.00    +0.017 C 
ATOM     14  C   UNL     1      -4.653   1.285  23.204  0.00  0.00    +0.114 C 
ATOM     15  C   UNL     1      -2.317   0.457  23.161  0.00  0.00    +0.119 C 
ATOM     16  C   UNL     1      -3.848   3.582  23.950  0.00  0.00    +0.130 C 
ATOM     17  C   UNL     1      -1.493   2.695  24.005  0.00  0.00    +0.034 A 
ATOM     18  C   UNL     1      -0.252   2.713  24.558  0.00  0.00    +0.002 A 
ATOM     19  C   UNL     1      -2.350   4.198  25.765  0.00  0.00    +0.252 A 
ATOM     20  C   UNL     1      -0.027   3.477  25.770  0.00  0.00    +0.015 A 
ATOM     21  C   UNL     1      -0.997   4.171  26.364  0.00  0.00    +0.071 A 
ENDROOT
BRANCH  18  23
ATOM     23  C   UNL     1       0.875   1.960  23.965  0.00  0.00    -0.016 A 
ATOM     26  C   UNL     1       0.822   0.571  23.902  0.00  0.00    +0.012 A 
ATOM     27  C   UNL     1       1.982   2.646  23.476  0.00  0.00    +0.012 A 
ATOM     28  C   UNL     1       1.886  -0.138  23.345  0.00  0.00    +0.046 A 
ATOM     29  C   UNL     1       3.046   1.938  22.919  0.00  0.00    +0.046 A 
ATOM     32  C   UNL     1       2.998   0.544  22.853  0.00  0.00    +0.130 A 
BRANCH  32   8
ATOM      8  O   UNL     1       4.035  -0.148  22.309  0.00  0.00    -0.406 OA
BRANCH   8  34
ATOM      2  F   UNL     1       5.064  -1.436  23.894  0.00  0.00    -0.133 F 
ATOM      3  F   UNL     1       5.377   0.726  23.899  0.00  0.00    -0.133 F 
ATOM      4  F   UNL     1       6.298  -0.483  22.329  0.00  0.00    -0.133 F 
ATOM     34  C   UNL     1       5.200  -0.351  23.103  0.00  0.00    +0.575 C 
ENDBRANCH   8  34
ENDBRANCH  32   8
ENDBRANCH  18  23
BRANCH   9   1
ATOM      1  S   UNL     1      -4.083  -0.892  24.717  0.00  0.00    +0.061 S 
ATOM      5  O   UNL     1      -4.739  -1.751  23.753  0.00  0.00    -0.153 OA
ATOM      6  O   UNL     1      -4.725  -0.554  25.970  0.00  0.00    -0.153 OA
BRANCH   1  22
ATOM     22  C   UNL     1      -2.509  -1.601  25.087  0.00  0.00    +0.105 A 
ATOM     24  C   UNL     1      -1.702  -1.000  26.038  0.00  0.00    +0.028 A 
ATOM     25  C   UNL     1      -2.107  -2.745  24.419  0.00  0.00    +0.028 A 
ATOM     30  C   UNL     1      -0.458  -1.558  26.330  0.00  0.00    +0.002 A 
ATOM     31  C   UNL     1      -0.862  -3.304  24.710  0.00  0.00    +0.002 A 
ATOM     33  C   UNL     1      -0.038  -2.710  25.666  0.00  0.00    +0.000 A 
ENDBRANCH   1  22
ENDBRANCH   9   1
TORSDOF 5
ENDMDL
MODEL 2
REMARK VINA RESULT:       8.8      1.880      2.379
REMARK  Name = 7144202
REMARK  5 active torsions:
REMARK  status: ('A' for Active; 'I' for Inactive)
REMARK    1  A    between atoms: S_1  and  N_9
REMARK    2  A    between atoms: S_1  and  C_22
REMARK    3  A    between atoms: O_8  and  C_32
REMARK    4  A    between atoms: O_8  and  C_34
REMARK    5  A    between atoms: C_18  and  C_23
REMARK                            x       y       z     vdW  Elec       q    Type
REMARK                         _______ _______ _______ _____ _____    ______ ____
ROOT
ATOM      7  O   UNL     1      -2.945   4.468  29.096  0.00  0.00    -0.268 OA
ATOM      9  N   UNL     1      -4.816   2.282  25.065  0.00  0.00    -0.176 NA
ATOM     10  N   UNL     1      -2.779   3.916  26.826  0.00  0.00    -0.311 N 
ATOM     11  C   UNL     1      -4.495   4.751  25.112  0.00  0.00    +0.025 C 
ATOM     12  C   UNL     1      -2.649   3.303  24.391  0.00  0.00    +0.053 C 
ATOM     13  C   UNL     1      -3.347   4.634  24.124  0.00  0.00    +0.017 C 
ATOM     14  C   UNL     1      -5.496   3.600  24.928  0.00  0.00    +0.114 C 
ATOM     15  C   UNL     1      -3.642   2.148  24.154  0.00  0.00    +0.119 C 
ATOM     16  C   UNL     1      -3.918   4.797  26.528  0.00  0.00    +0.130 C 
ATOM     17  C   UNL     1      -2.073   3.243  25.809  0.00  0.00    +0.034 A 
ATOM     18  C   UNL     1      -0.940   2.558  26.113  0.00  0.00    +0.002 A 
ATOM     19  C   UNL     1      -2.374   3.886  28.172  0.00  0.00    +0.252 A 
ATOM     20  C   UNL     1      -0.494   2.501  27.491  0.00  0.00    +0.015 A 
ATOM     21  C   UNL     1      -1.156   3.104  28.479  0.00  0.00    +0.071 A 
ENDROOT
BRANCH  18  23
ATOM     23  C   UNL     1      -0.155   1.853  25.076  0.00  0.00    -0.016 A 
ATOM     26  C   UNL     1      -0.405   0.510  24.814  0.00  0.00    +0.012 A 
ATOM     27  C   UNL     1       0.830   2.537  24.371  0.00  0.00    +0.012 A 
ATOM     28  C   UNL     1       0.336  -0.155  23.838  0.00  0.00    +0.046 A 
ATOM     29  C   UNL     1       1.572   1.873  23.395  0.00  0.00    +0.046 A 
ATOM     32  C   UNL     1       1.325   0.526  23.127  0.00  0.00    +0.130 A 
BRANCH  32   8
ATOM      8  O   UNL     1       2.048  -0.123  22.175  0.00  0.00    -0.406 OA
BRANCH   8  34
ATOM      2  F   UNL     1       4.083  -0.954  22.806  0.00  0.00    -0.133 F 
ATOM      3  F   UNL     1       3.760   1.206  22.806  0.00  0.00    -0.133 F 
ATOM      4  F   UNL     1       3.926   0.152  20.899  0.00  0.00    -0.133 F 
ATOM     34  C   UNL     1       3.460   0.056  22.162  0.00  0.00    +0.575 C 
ENDBRANCH   8  34
ENDBRANCH  32   8
ENDBRANCH  18  23
BRANCH   9   1
ATOM      1  S   UNL     1      -5.848   0.920  25.148  0.00  0.00    +0.061 S 
ATOM      5  O   UNL     1      -6.672   0.876  23.959  0.00  0.00    -0.153 OA
ATOM      6  O   UNL     1      -6.441   0.858  26.468  0.00  0.00    -0.153 OA
BRANCH   1  22
ATOM     22  C   UNL     1      -4.657  -0.377  25.027  0.00  0.00    +0.105 A 
ATOM     24  C   UNL     1      -3.721  -0.536  26.035  0.00  0.00    +0.028 A 
ATOM     25  C   UNL     1      -4.678  -1.215  23.924  0.00  0.00    +0.028 A 
ATOM     30  C   UNL     1      -2.780  -1.560  25.939  0.00  0.00    +0.002 A 
ATOM     31  C   UNL     1      -3.735  -2.239  23.827  0.00  0.00    +0.002 A 
ATOM     33  C   UNL     1      -2.786  -2.411  24.834  0.00  0.00    +0.000 A 
ENDBRANCH   1  22
ENDBRANCH   9   1
TORSDOF 5
ENDMDL
