MODEL 1
REMARK VINA RESULT:      -5.7      0.000      0.000
REMARK  Name = 56775695
REMARK  6 active torsions:
REMARK  status: ('A' for Active; 'I' for Inactive)
REMARK    1  A    between atoms: N_4  and  C_7
REMARK    2  A    between atoms: N_4  and  C_11
REMARK    3  A    between atoms: C_7  and  C_10
REMARK    4  A    between atoms: C_10  and  C_12
REMARK    5  A    between atoms: C_11  and  C_13
REMARK    6  A    between atoms: C_15  and  C_18
REMARK                            x       y       z     vdW  Elec       q    Type
REMARK                         _______ _______ _______ _____ _____    ______ ____
ROOT
ATOM      2  O   UNL     1      -5.779   3.851  25.372  0.00  0.00    -0.376 OA
ATOM      7  C   UNL     1      -3.716   3.316  25.270  0.00  0.00    +0.072 C 
ATOM      8  C   UNL     1      -4.863   3.175  26.263  0.00  0.00    +0.184 C 
ATOM      9  C   UNL     1      -4.713   4.102  24.428  0.00  0.00    +0.184 C 
ENDROOT
BRANCH   7   4
ATOM      4  N   UNL     1      -3.479   2.018  24.634  0.00  0.00    -0.302 NA
ATOM     26  H   UNL     1      -4.089   1.790  23.852  0.00  0.00    +0.123 HD
BRANCH   4  11
ATOM     11  C   UNL     1      -3.536   0.967  25.650  0.00  0.00    +0.118 C 
BRANCH  11  13
ATOM      1 CL   UNL     1      -1.007  -0.679  26.281  0.00  0.00    -0.083 Cl
ATOM     13  C   UNL     1      -3.425  -0.400  25.057  0.00  0.00    -0.015 A 
ATOM     16  C   UNL     1      -2.315  -1.212  25.291  0.00  0.00    +0.045 A 
ATOM     17  C   UNL     1      -4.468  -0.860  24.252  0.00  0.00    +0.006 A 
ATOM     19  C   UNL     1      -2.248  -2.483  24.720  0.00  0.00    +0.020 A 
ATOM     20  C   UNL     1      -4.401  -2.131  23.681  0.00  0.00    +0.000 A 
ATOM     21  C   UNL     1      -3.291  -2.943  23.915  0.00  0.00    +0.001 A 
ENDBRANCH  11  13
ENDBRANCH   4  11
ENDBRANCH   7   4
BRANCH   7  10
ATOM     10  C   UNL     1      -2.451   3.987  25.713  0.00  0.00    +0.085 C 
BRANCH  10  12
ATOM      3  O   UNL     1       0.598   2.050  25.643  0.00  0.00    -0.353 OA
ATOM      5  N   UNL     1      -0.367   2.801  26.303  0.00  0.00    -0.083 NA
ATOM     12  C   UNL     1      -1.242   3.148  25.355  0.00  0.00    +0.086 A 
ATOM     14  C   UNL     1      -0.885   2.650  24.090  0.00  0.00    +0.077 A 
ATOM     15  C   UNL     1       0.279   1.967  24.326  0.00  0.00    +0.186 A 
BRANCH  15  18
ATOM      6  N   UNL     1       2.465   1.657  23.537  0.00  0.00    -0.252 NA
ATOM     18  C   UNL     1       1.188   1.215  23.511  0.00  0.00    +0.109 A 
ATOM     22  C   UNL     1       0.758   0.128  22.767  0.00  0.00    +0.031 A 
ATOM     23  C   UNL     1       1.701  -0.550  22.001  0.00  0.00    +0.004 A 
ATOM     24  C   UNL     1       3.353   0.973  22.781  0.00  0.00    +0.111 A 
ATOM     25  C   UNL     1       3.025  -0.125  22.003  0.00  0.00    +0.020 A 
ENDBRANCH  15  18
ENDBRANCH  10  12
ENDBRANCH   7  10
TORSDOF 6
ENDMDL
MODEL 2
REMARK VINA RESULT:      -5.4      1.520      1.937
REMARK  Name = 56775695
REMARK  6 active torsions:
REMARK  status: ('A' for Active; 'I' for Inactive)
REMARK    1  A    between atoms: N_4  and  C_7
REMARK    2  A    between atoms: N_4  and  C_11
REMARK    3  A    between atoms: C_7  and  C_10
REMARK    4  A    between atoms: C_10  and  C_12
REMARK    5  A    between atoms: C_11  and  C_13
REMARK    6  A    between atoms: C_15  and  C_18
REMARK                            x       y       z     vdW  Elec       q    Type
REMARK                         _______ _______ _______ _____ _____    ______ ____
ROOT
ATOM      2  O   UNL     1      -6.151   3.378  25.942  0.00  0.00    -0.376 OA
ATOM      7  C   UNL     1      -4.439   2.532  24.989  0.00  0.00    +0.072 C 
ATOM      8  C   UNL     1      -4.742   3.704  25.915  0.00  0.00    +0.184 C 
ATOM      9  C   UNL     1      -5.946   2.309  24.991  0.00  0.00    +0.184 C 
ENDROOT
BRANCH   7   4
ATOM      4  N   UNL     1      -3.803   1.467  25.769  0.00  0.00    -0.302 NA
ATOM     26  H   UNL     1      -2.790   1.524  25.852  0.00  0.00    +0.123 HD
BRANCH   4  11
ATOM     11  C   UNL     1      -4.198   0.169  25.223  0.00  0.00    +0.118 C 
BRANCH  11  13
ATOM      1 CL   UNL     1      -4.584  -2.410  23.578  0.00  0.00    -0.083 Cl
ATOM     13  C   UNL     1      -3.048  -0.781  25.132  0.00  0.00    -0.015 A 
ATOM     16  C   UNL     1      -3.137  -1.971  24.408  0.00  0.00    +0.045 A 
ATOM     17  C   UNL     1      -1.864  -0.454  25.792  0.00  0.00    +0.006 A 
ATOM     19  C   UNL     1      -2.041  -2.832  24.346  0.00  0.00    +0.020 A 
ATOM     20  C   UNL     1      -0.769  -1.315  25.730  0.00  0.00    +0.000 A 
ATOM     21  C   UNL     1      -0.857  -2.505  25.007  0.00  0.00    +0.001 A 
ENDBRANCH  11  13
ENDBRANCH   4  11
ENDBRANCH   7   4
BRANCH   7  10
ATOM     10  C   UNL     1      -3.744   2.796  23.688  0.00  0.00    +0.085 C 
BRANCH  10  12
ATOM      3  O   UNL     1      -0.240   2.557  24.539  0.00  0.00    -0.353 OA
ATOM      5  N   UNL     1      -1.518   3.071  24.723  0.00  0.00    -0.083 NA
ATOM     12  C   UNL     1      -2.267   2.474  23.791  0.00  0.00    +0.086 A 
ATOM     14  C   UNL     1      -1.525   1.581  22.999  0.00  0.00    +0.077 A 
ATOM     15  C   UNL     1      -0.256   1.671  23.511  0.00  0.00    +0.186 A 
BRANCH  15  18
ATOM      6  N   UNL     1       2.081   1.830  23.425  0.00  0.00    -0.252 NA
ATOM     18  C   UNL     1       0.999   1.051  23.203  0.00  0.00    +0.109 A 
ATOM     22  C   UNL     1       1.063  -0.245  22.717  0.00  0.00    +0.031 A 
ATOM     23  C   UNL     1       2.319  -0.775  22.442  0.00  0.00    +0.004 A 
ATOM     24  C   UNL     1       3.285   1.280  23.147  0.00  0.00    +0.111 A 
ATOM     25  C   UNL     1       3.456  -0.004  22.658  0.00  0.00    +0.020 A 
ENDBRANCH  15  18
ENDBRANCH  10  12
ENDBRANCH   7  10
TORSDOF 6
ENDMDL
MODEL 3
REMARK VINA RESULT:      -4.5     15.483     18.148
REMARK  Name = 56775695
REMARK  6 active torsions:
REMARK  status: ('A' for Active; 'I' for Inactive)
REMARK    1  A    between atoms: N_4  and  C_7
REMARK    2  A    between atoms: N_4  and  C_11
REMARK    3  A    between atoms: C_7  and  C_10
REMARK    4  A    between atoms: C_10  and  C_12
REMARK    5  A    between atoms: C_11  and  C_13
REMARK    6  A    between atoms: C_15  and  C_18
REMARK                            x       y       z     vdW  Elec       q    Type
REMARK                         _______ _______ _______ _____ _____    ______ ____
ROOT
ATOM      2  O   UNL     1      -1.165  -9.151  11.418  0.00  0.00    -0.376 OA
ATOM      7  C   UNL     1      -3.146  -9.934  11.303  0.00  0.00    +0.072 C 
ATOM      8  C   UNL     1      -1.787 -10.394  11.817  0.00  0.00    +0.184 C 
ATOM      9  C   UNL     1      -2.401  -8.693  10.827  0.00  0.00    +0.184 C 
ENDROOT
BRANCH   7   4
ATOM      4  N   UNL     1      -3.986  -9.571  12.448  0.00  0.00    -0.302 NA
ATOM     26  H   UNL     1      -3.635  -8.815  13.032  0.00  0.00    +0.123 HD
BRANCH   4  11
ATOM     11  C   UNL     1      -4.241 -10.764  13.255  0.00  0.00    +0.118 C 
BRANCH  11  13
ATOM      1 CL   UNL     1      -2.956 -10.532  16.048  0.00  0.00    -0.083 Cl
ATOM     13  C   UNL     1      -5.138 -10.481  14.416  0.00  0.00    -0.015 A 
ATOM     16  C   UNL     1      -4.640 -10.360  15.714  0.00  0.00    +0.045 A 
ATOM     17  C   UNL     1      -6.505 -10.337  14.178  0.00  0.00    +0.006 A 
ATOM     19  C   UNL     1      -5.509 -10.096  16.772  0.00  0.00    +0.020 A 
ATOM     20  C   UNL     1      -7.374 -10.072  15.236  0.00  0.00    +0.000 A 
ATOM     21  C   UNL     1      -6.876  -9.951  16.534  0.00  0.00    +0.001 A 
ENDBRANCH  11  13
ENDBRANCH   4  11
ENDBRANCH   7   4
BRANCH   7  10
ATOM     10  C   UNL     1      -3.866 -10.781  10.298  0.00  0.00    +0.085 C 
BRANCH  10  12
ATOM      3  O   UNL     1      -6.165  -9.037   8.124  0.00  0.00    -0.353 OA
ATOM      5  N   UNL     1      -4.987  -9.735   8.362  0.00  0.00    -0.083 NA
ATOM     12  C   UNL     1      -5.011 -10.014   9.669  0.00  0.00    +0.086 A 
ATOM     14  C   UNL     1      -6.167  -9.525  10.299  0.00  0.00    +0.077 A 
ATOM     15  C   UNL     1      -6.860  -8.918   9.284  0.00  0.00    +0.186 A 
BRANCH  15  18
ATOM      6  N   UNL     1      -9.103  -8.745   9.942  0.00  0.00    -0.252 NA
ATOM     18  C   UNL     1      -8.108  -8.219   9.194  0.00  0.00    +0.109 A 
ATOM     22  C   UNL     1      -8.250  -7.098   8.392  0.00  0.00    +0.031 A 
ATOM     23  C   UNL     1      -9.493  -6.475   8.358  0.00  0.00    +0.004 A 
ATOM     24  C   UNL     1     -10.297  -8.113   9.884  0.00  0.00    +0.111 A 
ATOM     25  C   UNL     1     -10.541  -6.987   9.116  0.00  0.00    +0.020 A 
ENDBRANCH  15  18
ENDBRANCH  10  12
ENDBRANCH   7  10
TORSDOF 6
ENDMDL
MODEL 4
REMARK VINA RESULT:      -4.4      1.811      2.565
REMARK  Name = 56775695
REMARK  6 active torsions:
REMARK  status: ('A' for Active; 'I' for Inactive)
REMARK    1  A    between atoms: N_4  and  C_7
REMARK    2  A    between atoms: N_4  and  C_11
REMARK    3  A    between atoms: C_7  and  C_10
REMARK    4  A    between atoms: C_10  and  C_12
REMARK    5  A    between atoms: C_11  and  C_13
REMARK    6  A    between atoms: C_15  and  C_18
REMARK                            x       y       z     vdW  Elec       q    Type
REMARK                         _______ _______ _______ _____ _____    ______ ____
ROOT
ATOM      2  O   UNL     1      -2.114   4.702  25.308  0.00  0.00    -0.376 OA
ATOM      7  C   UNL     1      -1.857   2.745  24.498  0.00  0.00    +0.072 C 
ATOM      8  C   UNL     1      -0.977   3.834  25.101  0.00  0.00    +0.184 C 
ATOM      9  C   UNL     1      -2.989   3.752  24.661  0.00  0.00    +0.184 C 
ENDROOT
BRANCH   7   4
ATOM      4  N   UNL     1      -2.028   1.676  25.485  0.00  0.00    -0.302 NA
ATOM     26  H   UNL     1      -1.344   0.924  25.446  0.00  0.00    +0.123 HD
BRANCH   4  11
ATOM     11  C   UNL     1      -3.385   1.139  25.382  0.00  0.00    +0.118 C 
BRANCH  11  13
ATOM      1 CL   UNL     1      -1.101  -0.664  26.402  0.00  0.00    -0.083 Cl
ATOM     13  C   UNL     1      -3.395  -0.299  24.977  0.00  0.00    -0.015 A 
ATOM     16  C   UNL     1      -2.401  -1.185  25.393  0.00  0.00    +0.045 A 
ATOM     17  C   UNL     1      -4.433  -0.750  24.162  0.00  0.00    +0.006 A 
ATOM     19  C   UNL     1      -2.446  -2.520  24.994  0.00  0.00    +0.020 A 
ATOM     20  C   UNL     1      -4.478  -2.086  23.763  0.00  0.00    +0.000 A 
ATOM     21  C   UNL     1      -3.484  -2.971  24.179  0.00  0.00    +0.001 A 
ENDBRANCH  11  13
ENDBRANCH   4  11
ENDBRANCH   7   4
BRANCH   7  10
ATOM     10  C   UNL     1      -1.535   2.227  23.129  0.00  0.00    +0.085 C 
BRANCH  10  12
ATOM      3  O   UNL     1       0.800  -0.530  23.126  0.00  0.00    -0.353 OA
ATOM      5  N   UNL     1      -0.485  -0.006  23.048  0.00  0.00    -0.083 NA
ATOM     12  C   UNL     1      -0.327   1.315  23.168  0.00  0.00    +0.086 A 
ATOM     14  C   UNL     1       1.022   1.680  23.323  0.00  0.00    +0.077 A 
ATOM     15  C   UNL     1       1.688   0.483  23.289  0.00  0.00    +0.186 A 
BRANCH  15  18
ATOM      6  N   UNL     1       3.264  -1.194  23.739  0.00  0.00    -0.252 NA
ATOM     18  C   UNL     1       3.065   0.094  23.383  0.00  0.00    +0.109 A 
ATOM     22  C   UNL     1       4.087   0.994  23.125  0.00  0.00    +0.031 A 
ATOM     23  C   UNL     1       5.397   0.541  23.238  0.00  0.00    +0.004 A 
ATOM     24  C   UNL     1       4.550  -1.599  23.838  0.00  0.00    +0.111 A 
ATOM     25  C   UNL     1       5.641  -0.779  23.601  0.00  0.00    +0.020 A 
ENDBRANCH  15  18
ENDBRANCH  10  12
ENDBRANCH   7  10
TORSDOF 6
ENDMDL
MODEL 5
REMARK VINA RESULT:      -3.5     14.233     16.785
REMARK  Name = 56775695
REMARK  6 active torsions:
REMARK  status: ('A' for Active; 'I' for Inactive)
REMARK    1  A    between atoms: N_4  and  C_7
REMARK    2  A    between atoms: N_4  and  C_11
REMARK    3  A    between atoms: C_7  and  C_10
REMARK    4  A    between atoms: C_10  and  C_12
REMARK    5  A    between atoms: C_11  and  C_13
REMARK    6  A    between atoms: C_15  and  C_18
REMARK                            x       y       z     vdW  Elec       q    Type
REMARK                         _______ _______ _______ _____ _____    ______ ____
ROOT
ATOM      2  O   UNL     1      -0.692  -9.637  16.317  0.00  0.00    -0.376 OA
ATOM      7  C   UNL     1      -1.763 -10.068  14.523  0.00  0.00    +0.072 C 
ATOM      8  C   UNL     1      -1.434 -10.779  15.830  0.00  0.00    +0.184 C 
ATOM      9  C   UNL     1      -0.889  -8.944  15.064  0.00  0.00    +0.184 C 
ENDROOT
BRANCH   7   4
ATOM      4  N   UNL     1      -3.163  -9.637  14.559  0.00  0.00    -0.302 NA
ATOM     26  H   UNL     1      -3.368  -8.850  15.172  0.00  0.00    +0.123 HD
BRANCH   4  11
ATOM     11  C   UNL     1      -4.010 -10.781  14.897  0.00  0.00    +0.118 C 
BRANCH  11  13
ATOM      1 CL   UNL     1      -6.845  -9.795  14.189  0.00  0.00    -0.083 Cl
ATOM     13  C   UNL     1      -4.947 -10.480  16.021  0.00  0.00    -0.015 A 
ATOM     16  C   UNL     1      -6.247 -10.029  15.791  0.00  0.00    +0.045 A 
ATOM     17  C   UNL     1      -4.493 -10.660  17.328  0.00  0.00    +0.006 A 
ATOM     19  C   UNL     1      -7.092  -9.759  16.868  0.00  0.00    +0.020 A 
ATOM     20  C   UNL     1      -5.338 -10.390  18.404  0.00  0.00    +0.000 A 
ATOM     21  C   UNL     1      -6.638  -9.939  18.174  0.00  0.00    +0.001 A 
ENDBRANCH  11  13
ENDBRANCH   4  11
ENDBRANCH   7   4
BRANCH   7  10
ATOM     10  C   UNL     1      -1.389 -10.722  13.227  0.00  0.00    +0.085 C 
BRANCH  10  12
ATOM      3  O   UNL     1      -2.787  -9.145  10.292  0.00  0.00    -0.353 OA
ATOM      5  N   UNL     1      -1.735  -9.419  11.158  0.00  0.00    -0.083 NA
ATOM     12  C   UNL     1      -2.259 -10.214  12.096  0.00  0.00    +0.086 A 
ATOM     14  C   UNL     1      -3.622 -10.474  11.876  0.00  0.00    +0.077 A 
ATOM     15  C   UNL     1      -3.905  -9.778  10.730  0.00  0.00    +0.186 A 
BRANCH  15  18
ATOM      6  N   UNL     1      -5.433  -8.299   9.742  0.00  0.00    -0.252 NA
ATOM     18  C   UNL     1      -5.080  -9.590   9.930  0.00  0.00    +0.109 A 
ATOM     22  C   UNL     1      -5.776 -10.669   9.408  0.00  0.00    +0.031 A 
ATOM     23  C   UNL     1      -6.907 -10.404   8.642  0.00  0.00    +0.004 A 
ATOM     24  C   UNL     1      -6.537  -8.081   8.992  0.00  0.00    +0.111 A 
ATOM     25  C   UNL     1      -7.301  -9.088   8.426  0.00  0.00    +0.020 A 
ENDBRANCH  15  18
ENDBRANCH  10  12
ENDBRANCH   7  10
TORSDOF 6
ENDMDL
MODEL 6
REMARK VINA RESULT:      -3.3      1.912      5.654
REMARK  Name = 56775695
REMARK  6 active torsions:
REMARK  status: ('A' for Active; 'I' for Inactive)
REMARK    1  A    between atoms: N_4  and  C_7
REMARK    2  A    between atoms: N_4  and  C_11
REMARK    3  A    between atoms: C_7  and  C_10
REMARK    4  A    between atoms: C_10  and  C_12
REMARK    5  A    between atoms: C_11  and  C_13
REMARK    6  A    between atoms: C_15  and  C_18
REMARK                            x       y       z     vdW  Elec       q    Type
REMARK                         _______ _______ _______ _____ _____    ______ ____
ROOT
ATOM      2  O   UNL     1       2.054  -0.516  21.674  0.00  0.00    -0.376 OA
ATOM      7  C   UNL     1       1.291   0.588  23.332  0.00  0.00    +0.072 C 
ATOM      8  C   UNL     1       0.752  -0.001  22.035  0.00  0.00    +0.184 C 
ATOM      9  C   UNL     1       2.647   0.099  22.840  0.00  0.00    +0.184 C 
ENDROOT
BRANCH   7   4
ATOM      4  N   UNL     1       0.861  -0.257  24.449  0.00  0.00    -0.302 NA
ATOM     26  H   UNL     1       1.603  -0.605  25.053  0.00  0.00    +0.123 HD
BRANCH   4  11
ATOM     11  C   UNL     1       0.060  -1.367  23.933  0.00  0.00    +0.118 C 
BRANCH  11  13
ATOM      1 CL   UNL     1      -1.830  -3.639  23.057  0.00  0.00    -0.083 Cl
ATOM     13  C   UNL     1      -1.229  -1.528  24.671  0.00  0.00    -0.015 A 
ATOM     16  C   UNL     1      -2.142  -2.529  24.341  0.00  0.00    +0.045 A 
ATOM     17  C   UNL     1      -1.509  -0.646  25.715  0.00  0.00    +0.006 A 
ATOM     19  C   UNL     1      -3.335  -2.648  25.054  0.00  0.00    +0.020 A 
ATOM     20  C   UNL     1      -2.701  -0.764  26.429  0.00  0.00    +0.000 A 
ATOM     21  C   UNL     1      -3.615  -1.766  26.098  0.00  0.00    +0.001 A 
ENDBRANCH  11  13
ENDBRANCH   4  11
ENDBRANCH   7   4
BRANCH   7  10
ATOM     10  C   UNL     1       1.099   2.050  23.601  0.00  0.00    +0.085 C 
BRANCH  10  12
ATOM      3  O   UNL     1      -1.542   2.806  25.948  0.00  0.00    -0.353 OA
ATOM      5  N   UNL     1      -0.202   2.668  25.607  0.00  0.00    -0.083 NA
ATOM     12  C   UNL     1      -0.209   2.298  24.323  0.00  0.00    +0.086 A 
ATOM     14  C   UNL     1      -1.511   2.189  23.805  0.00  0.00    +0.077 A 
ATOM     15  C   UNL     1      -2.312   2.519  24.867  0.00  0.00    +0.186 A 
BRANCH  15  18
ATOM      6  N   UNL     1      -4.148   3.827  25.513  0.00  0.00    -0.252 NA
ATOM     18  C   UNL     1      -3.728   2.623  25.066  0.00  0.00    +0.109 A 
ATOM     22  C   UNL     1      -4.571   1.553  24.812  0.00  0.00    +0.031 A 
ATOM     23  C   UNL     1      -5.933   1.732  25.030  0.00  0.00    +0.004 A 
ATOM     24  C   UNL     1      -5.478   3.964  25.712  0.00  0.00    +0.111 A 
ATOM     25  C   UNL     1      -6.403   2.958  25.489  0.00  0.00    +0.020 A 
ENDBRANCH  15  18
ENDBRANCH  10  12
ENDBRANCH   7  10
TORSDOF 6
ENDMDL
MODEL 7
REMARK VINA RESULT:      -2.7      2.786      4.759
REMARK  Name = 56775695
REMARK  6 active torsions:
REMARK  status: ('A' for Active; 'I' for Inactive)
REMARK    1  A    between atoms: N_4  and  C_7
REMARK    2  A    between atoms: N_4  and  C_11
REMARK    3  A    between atoms: C_7  and  C_10
REMARK    4  A    between atoms: C_10  and  C_12
REMARK    5  A    between atoms: C_11  and  C_13
REMARK    6  A    between atoms: C_15  and  C_18
REMARK                            x       y       z     vdW  Elec       q    Type
REMARK                         _______ _______ _______ _____ _____    ______ ____
ROOT
ATOM      2  O   UNL     1      -0.200   5.297  23.556  0.00  0.00    -0.376 OA
ATOM      7  C   UNL     1      -0.810   4.111  25.221  0.00  0.00    +0.072 C 
ATOM      8  C   UNL     1       0.004   5.377  24.985  0.00  0.00    +0.184 C 
ATOM      9  C   UNL     1      -0.902   4.042  23.702  0.00  0.00    +0.184 C 
ENDROOT
BRANCH   7   4
ATOM      4  N   UNL     1      -2.121   4.486  25.757  0.00  0.00    -0.302 NA
ATOM     26  H   UNL     1      -2.450   3.936  26.548  0.00  0.00    +0.123 HD
BRANCH   4  11
ATOM     11  C   UNL     1      -3.107   4.467  24.677  0.00  0.00    +0.118 C 
BRANCH  11  13
ATOM      1 CL   UNL     1      -3.303   2.161  22.640  0.00  0.00    -0.083 Cl
ATOM     13  C   UNL     1      -4.163   3.432  24.892  0.00  0.00    -0.015 A 
ATOM     16  C   UNL     1      -4.322   2.355  24.019  0.00  0.00    +0.045 A 
ATOM     17  C   UNL     1      -5.002   3.561  25.999  0.00  0.00    +0.006 A 
ATOM     19  C   UNL     1      -5.319   1.409  24.254  0.00  0.00    +0.020 A 
ATOM     20  C   UNL     1      -5.999   2.615  26.234  0.00  0.00    +0.000 A 
ATOM     21  C   UNL     1      -6.158   1.538  25.361  0.00  0.00    +0.001 A 
ENDBRANCH  11  13
ENDBRANCH   4  11
ENDBRANCH   7   4
BRANCH   7  10
ATOM     10  C   UNL     1      -0.182   2.972  25.965  0.00  0.00    +0.085 C 
BRANCH  10  12
ATOM      3  O   UNL     1      -0.387  -0.148  24.154  0.00  0.00    -0.353 OA
ATOM      5  N   UNL     1       0.276   1.014  24.532  0.00  0.00    -0.083 NA
ATOM     12  C   UNL     1      -0.572   1.645  25.349  0.00  0.00    +0.086 A 
ATOM     14  C   UNL     1      -1.773   0.936  25.524  0.00  0.00    +0.077 A 
ATOM     15  C   UNL     1      -1.605  -0.184  24.751  0.00  0.00    +0.186 A 
BRANCH  15  18
ATOM      6  N   UNL     1      -1.739  -2.507  24.465  0.00  0.00    -0.252 NA
ATOM     18  C   UNL     1      -2.410  -1.334  24.457  0.00  0.00    +0.109 A 
ATOM     22  C   UNL     1      -3.764  -1.216  24.189  0.00  0.00    +0.031 A 
ATOM     23  C   UNL     1      -4.476  -2.379  23.912  0.00  0.00    +0.004 A 
ATOM     24  C   UNL     1      -2.463  -3.615  24.192  0.00  0.00    +0.111 A 
ATOM     25  C   UNL     1      -3.820  -3.605  23.912  0.00  0.00    +0.020 A 
ENDBRANCH  15  18
ENDBRANCH  10  12
ENDBRANCH   7  10
TORSDOF 6
ENDMDL
MODEL 8
REMARK VINA RESULT:      -2.2      2.220      6.507
REMARK  Name = 56775695
REMARK  6 active torsions:
REMARK  status: ('A' for Active; 'I' for Inactive)
REMARK    1  A    between atoms: N_4  and  C_7
REMARK    2  A    between atoms: N_4  and  C_11
REMARK    3  A    between atoms: C_7  and  C_10
REMARK    4  A    between atoms: C_10  and  C_12
REMARK    5  A    between atoms: C_11  and  C_13
REMARK    6  A    between atoms: C_15  and  C_18
REMARK                            x       y       z     vdW  Elec       q    Type
REMARK                         _______ _______ _______ _____ _____    ______ ____
ROOT
ATOM      2  O   UNL     1       2.943   0.100  21.763  0.00  0.00    -0.376 OA
ATOM      7  C   UNL     1       1.183  -0.042  22.961  0.00  0.00    +0.072 C 
ATOM      8  C   UNL     1       2.660   0.269  23.171  0.00  0.00    +0.184 C 
ATOM      9  C   UNL     1       1.575  -0.295  21.510  0.00  0.00    +0.184 C 
ENDROOT
BRANCH   7   4
ATOM      4  N   UNL     1       0.422   1.209  23.033  0.00  0.00    -0.302 NA
ATOM     26  H   UNL     1       0.383   1.753  22.174  0.00  0.00    +0.123 HD
BRANCH   4  11
ATOM     11  C   UNL     1       0.940   2.024  24.131  0.00  0.00    +0.118 C 
BRANCH  11  13
ATOM      1 CL   UNL     1      -0.156   1.602  26.982  0.00  0.00    -0.083 Cl
ATOM     13  C   UNL     1      -0.073   2.996  24.642  0.00  0.00    -0.015 A 
ATOM     16  C   UNL     1      -0.621   2.880  25.919  0.00  0.00    +0.045 A 
ATOM     17  C   UNL     1      -0.469   4.040  23.806  0.00  0.00    +0.006 A 
ATOM     19  C   UNL     1      -1.565   3.807  26.361  0.00  0.00    +0.020 A 
ATOM     20  C   UNL     1      -1.413   4.968  24.247  0.00  0.00    +0.000 A 
ATOM     21  C   UNL     1      -1.961   4.852  25.525  0.00  0.00    +0.001 A 
ENDBRANCH  11  13
ENDBRANCH   4  11
ENDBRANCH   7   4
BRANCH   7  10
ATOM     10  C   UNL     1       0.555  -1.151  23.749  0.00  0.00    +0.085 C 
BRANCH  10  12
ATOM      3  O   UNL     1      -2.409  -0.631  25.748  0.00  0.00    -0.353 OA
ATOM      5  N   UNL     1      -1.194  -1.253  25.489  0.00  0.00    -0.083 NA
ATOM     12  C   UNL     1      -0.763  -0.707  24.348  0.00  0.00    +0.086 A 
ATOM     14  C   UNL     1      -1.654   0.257  23.847  0.00  0.00    +0.077 A 
ATOM     15  C   UNL     1      -2.672   0.266  24.764  0.00  0.00    +0.186 A 
BRANCH  15  18
ATOM      6  N   UNL     1      -3.891   2.222  24.333  0.00  0.00    -0.252 NA
ATOM     18  C   UNL     1      -3.901   0.994  24.897  0.00  0.00    +0.109 A 
ATOM     22  C   UNL     1      -4.991   0.453  25.559  0.00  0.00    +0.031 A 
ATOM     23  C   UNL     1      -6.147   1.222  25.646  0.00  0.00    +0.004 A 
ATOM     24  C   UNL     1      -5.032   2.940  24.437  0.00  0.00    +0.111 A 
ATOM     25  C   UNL     1      -6.175   2.491  25.077  0.00  0.00    +0.020 A 
ENDBRANCH  15  18
ENDBRANCH  10  12
ENDBRANCH   7  10
TORSDOF 6
ENDMDL
MODEL 9
REMARK VINA RESULT:      -1.8      2.245      3.496
REMARK  Name = 56775695
REMARK  6 active torsions:
REMARK  status: ('A' for Active; 'I' for Inactive)
REMARK    1  A    between atoms: N_4  and  C_7
REMARK    2  A    between atoms: N_4  and  C_11
REMARK    3  A    between atoms: C_7  and  C_10
REMARK    4  A    between atoms: C_10  and  C_12
REMARK    5  A    between atoms: C_11  and  C_13
REMARK    6  A    between atoms: C_15  and  C_18
REMARK                            x       y       z     vdW  Elec       q    Type
REMARK                         _______ _______ _______ _____ _____    ______ ____
ROOT
ATOM      2  O   UNL     1      -0.947   5.241  24.987  0.00  0.00    -0.376 OA
ATOM      7  C   UNL     1      -1.367   3.179  24.634  0.00  0.00    +0.072 C 
ATOM      8  C   UNL     1      -0.136   4.052  24.847  0.00  0.00    +0.184 C 
ATOM      9  C   UNL     1      -2.146   4.487  24.698  0.00  0.00    +0.184 C 
ENDROOT
BRANCH   7   4
ATOM      4  N   UNL     1      -1.622   2.416  25.858  0.00  0.00    -0.302 NA
ATOM     26  H   UNL     1      -0.805   2.208  26.429  0.00  0.00    +0.123 HD
BRANCH   4  11
ATOM     11  C   UNL     1      -2.335   1.185  25.518  0.00  0.00    +0.118 C 
BRANCH  11  13
ATOM      1 CL   UNL     1      -3.988  -1.050  24.184  0.00  0.00    -0.083 Cl
ATOM     13  C   UNL     1      -3.802   1.408  25.347  0.00  0.00    -0.015 A 
ATOM     16  C   UNL     1      -4.624   0.450  24.753  0.00  0.00    +0.045 A 
ATOM     17  C   UNL     1      -4.346   2.611  25.797  0.00  0.00    +0.006 A 
ATOM     19  C   UNL     1      -5.990   0.695  24.611  0.00  0.00    +0.020 A 
ATOM     20  C   UNL     1      -5.712   2.856  25.655  0.00  0.00    +0.000 A 
ATOM     21  C   UNL     1      -6.534   1.898  25.061  0.00  0.00    +0.001 A 
ENDBRANCH  11  13
ENDBRANCH   4  11
ENDBRANCH   7   4
BRANCH   7  10
ATOM     10  C   UNL     1      -1.455   2.340  23.396  0.00  0.00    +0.085 C 
BRANCH  10  12
ATOM      3  O   UNL     1       0.875  -0.360  22.814  0.00  0.00    -0.353 OA
ATOM      5  N   UNL     1      -0.400   0.194  22.780  0.00  0.00    -0.083 NA
ATOM     12  C   UNL     1      -0.254   1.425  23.277  0.00  0.00    +0.086 A 
ATOM     14  C   UNL     1       1.076   1.702  23.638  0.00  0.00    +0.077 A 
ATOM     15  C   UNL     1       1.745   0.547  23.326  0.00  0.00    +0.186 A 
BRANCH  15  18
ATOM      6  N   UNL     1       4.023   1.088  23.201  0.00  0.00    -0.252 NA
ATOM     18  C   UNL     1       3.109   0.117  23.421  0.00  0.00    +0.109 A 
ATOM     22  C   UNL     1       3.431  -1.198  23.715  0.00  0.00    +0.031 A 
ATOM     23  C   UNL     1       4.778  -1.537  23.790  0.00  0.00    +0.004 A 
ATOM     24  C   UNL     1       5.322   0.722  23.282  0.00  0.00    +0.111 A 
ATOM     25  C   UNL     1       5.747  -0.565  23.570  0.00  0.00    +0.020 A 
ENDBRANCH  15  18
ENDBRANCH  10  12
ENDBRANCH   7  10
TORSDOF 6
ENDMDL
MODEL 10
REMARK VINA RESULT:      -1.7      2.333      4.890
REMARK  Name = 56775695
REMARK  6 active torsions:
REMARK  status: ('A' for Active; 'I' for Inactive)
REMARK    1  A    between atoms: N_4  and  C_7
REMARK    2  A    between atoms: N_4  and  C_11
REMARK    3  A    between atoms: C_7  and  C_10
REMARK    4  A    between atoms: C_10  and  C_12
REMARK    5  A    between atoms: C_11  and  C_13
REMARK    6  A    between atoms: C_15  and  C_18
REMARK                            x       y       z     vdW  Elec       q    Type
REMARK                         _______ _______ _______ _____ _____    ______ ____
ROOT
ATOM      2  O   UNL     1      -0.601   5.800  24.614  0.00  0.00    -0.376 OA
ATOM      7  C   UNL     1      -2.087   4.303  24.937  0.00  0.00    +0.072 C 
ATOM      8  C   UNL     1      -0.850   4.485  24.066  0.00  0.00    +0.184 C 
ATOM      9  C   UNL     1      -1.814   5.730  25.397  0.00  0.00    +0.184 C 
ENDROOT
BRANCH   7   4
ATOM      4  N   UNL     1      -1.762   3.383  26.031  0.00  0.00    -0.302 NA
ATOM     26  H   UNL     1      -1.891   3.751  26.972  0.00  0.00    +0.123 HD
BRANCH   4  11
ATOM     11  C   UNL     1      -0.395   2.893  25.858  0.00  0.00    +0.118 C 
BRANCH  11  13
ATOM      1 CL   UNL     1       1.079   2.049  23.285  0.00  0.00    -0.083 Cl
ATOM     13  C   UNL     1      -0.354   1.438  25.521  0.00  0.00    -0.015 A 
ATOM     16  C   UNL     1       0.291   0.969  24.376  0.00  0.00    +0.045 A 
ATOM     17  C   UNL     1      -0.981   0.540  26.385  0.00  0.00    +0.006 A 
ATOM     19  C   UNL     1       0.309  -0.398  24.096  0.00  0.00    +0.020 A 
ATOM     20  C   UNL     1      -0.964  -0.827  26.105  0.00  0.00    +0.000 A 
ATOM     21  C   UNL     1      -0.319  -1.296  24.960  0.00  0.00    +0.001 A 
ENDBRANCH  11  13
ENDBRANCH   4  11
ENDBRANCH   7   4
BRANCH   7  10
ATOM     10  C   UNL     1      -3.397   3.988  24.282  0.00  0.00    +0.085 C 
BRANCH  10  12
ATOM      3  O   UNL     1      -4.888   0.900  25.420  0.00  0.00    -0.353 OA
ATOM      5  N   UNL     1      -4.778   2.285  25.418  0.00  0.00    -0.083 NA
ATOM     12  C   UNL     1      -3.801   2.553  24.547  0.00  0.00    +0.086 A 
ATOM     14  C   UNL     1      -3.263   1.388  23.972  0.00  0.00    +0.077 A 
ATOM     15  C   UNL     1      -3.982   0.377  24.555  0.00  0.00    +0.186 A 
BRANCH  15  18
ATOM      6  N   UNL     1      -4.424  -1.528  23.261  0.00  0.00    -0.252 NA
ATOM     18  C   UNL     1      -3.978  -1.053  24.446  0.00  0.00    +0.109 A 
ATOM     22  C   UNL     1      -3.547  -1.855  25.490  0.00  0.00    +0.031 A 
ATOM     23  C   UNL     1      -3.574  -3.233  25.307  0.00  0.00    +0.004 A 
ATOM     24  C   UNL     1      -4.436  -2.873  23.119  0.00  0.00    +0.111 A 
ATOM     25  C   UNL     1      -4.026  -3.759  24.101  0.00  0.00    +0.020 A 
ENDBRANCH  15  18
ENDBRANCH  10  12
ENDBRANCH   7  10
TORSDOF 6
ENDMDL
