MODEL 1
REMARK VINA RESULT:      -2.3      0.000      0.000
REMARK  Name = 45361599
REMARK  13 active torsions:
REMARK  status: ('A' for Active; 'I' for Inactive)
REMARK    1  A    between atoms: O_3  and  C_12
REMARK    2  A    between atoms: O_6  and  C_27
REMARK    3  A    between atoms: O_6  and  C_31
REMARK    4  A    between atoms: N_7  and  C_16
REMARK    5  A    between atoms: N_8  and  C_26
REMARK    6  A    between atoms: C_9  and  C_19
REMARK    7  A    between atoms: C_11  and  C_21
REMARK    8  A    between atoms: C_15  and  C_20
REMARK    9  A    between atoms: C_20  and  C_22
REMARK   10  A    between atoms: C_20  and  C_23
REMARK   11  A    between atoms: C_24  and  C_25
REMARK   12  A    between atoms: C_25  and  C_27
REMARK   13  A    between atoms: C_26  and  C_28
REMARK                            x       y       z     vdW  Elec       q    Type
REMARK                         _______ _______ _______ _____ _____    ______ ____
ROOT
ATOM      9  C   UNL     1      -2.287  -1.015  25.202  0.00  0.00    -0.027 C 
ATOM     10  C   UNL     1      -2.386   0.100  24.108  0.00  0.00    +0.028 C 
ATOM     11  C   UNL     1      -0.964   0.679  23.769  0.00  0.00    +0.012 C 
ATOM     12  C   UNL     1      -3.468   1.156  24.474  0.00  0.00    +0.122 C 
ATOM     13  C   UNL     1      -3.684  -1.639  25.429  0.00  0.00    +0.007 C 
ATOM     14  C   UNL     1      -1.347  -2.134  24.699  0.00  0.00    +0.009 C 
ATOM     15  C   UNL     1      -4.837   0.516  24.801  0.00  0.00    +0.029 C 
ATOM     16  C   UNL     1      -0.007  -0.467  23.337  0.00  0.00    +0.076 C 
ATOM     17  C   UNL     1      -4.737  -0.613  25.826  0.00  0.00    +0.007 C 
ATOM     18  C   UNL     1       0.040  -1.628  24.331  0.00  0.00    +0.023 C 
ATOM     19  C   UNL     1      -1.759  -0.474  26.555  0.00  0.00    +0.011 C 
ATOM     21  C   UNL     1      -0.984   1.761  22.678  0.00  0.00    +0.010 C 
ENDROOT
BRANCH  16   7
ATOM      5  O   UNL     1       1.538  -0.619  20.904  0.00  0.00    -0.276 OA
ATOM      7  N   UNL     1       1.344   0.013  23.130  0.00  0.00    -0.312 N 
ATOM     24  C   UNL     1       2.005  -0.107  21.918  0.00  0.00    +0.215 C 
ATOM     35  H   UNL     1       1.843   0.396  23.928  0.00  0.00    +0.149 HD
BRANCH  24  25
ATOM     25  C   UNL     1       3.404   0.484  21.988  0.00  0.00    +0.124 C 
BRANCH  25  27
ATOM     27  C   UNL     1       3.838   0.817  23.407  0.00  0.00    +0.168 C 
BRANCH  27   6
ATOM      6  O   UNL     1       5.224   0.535  23.556  0.00  0.00    -0.382 OA
ATOM     31  C   UNL     1       5.435  -0.742  24.141  0.00  0.00    +0.194 C 
ENDBRANCH  27   6
ENDBRANCH  25  27
ENDBRANCH  24  25
ENDBRANCH  16   7
BRANCH  12   3
ATOM      3  O   UNL     1      -3.679   2.028  23.362  0.00  0.00    -0.391 OA
ATOM     36  H   UNL     1      -2.813   2.350  23.061  0.00  0.00    +0.210 HD
ENDBRANCH  12   3
BRANCH  15  20
ATOM     20  C   UNL     1      -5.851   1.560  25.286  0.00  0.00    +0.077 C 
ATOM     22  C   UNL     1      -7.050   1.604  24.346  0.00  0.00    +0.017 C 
BRANCH  20  23
ATOM      4  O   UNL     1      -5.427   3.852  24.626  0.00  0.00    -0.276 OA
ATOM      8  N   UNL     1      -4.274   2.990  26.445  0.00  0.00    -0.311 N 
ATOM     23  C   UNL     1      -5.179   2.925  25.395  0.00  0.00    +0.216 C 
ATOM     37  H   UNL     1      -4.164   2.197  27.069  0.00  0.00    +0.149 HD
BRANCH   8  26
ATOM     26  C   UNL     1      -3.513   4.180  26.748  0.00  0.00    +0.139 C 
BRANCH  26  28
ATOM      1  F   UNL     1       0.896   2.169  26.195  0.00  0.00    -0.205 F 
ATOM      2  F   UNL     1      -0.200   6.035  23.689  0.00  0.00    -0.205 F 
ATOM     28  C   UNL     1      -2.154   4.153  26.113  0.00  0.00    -0.025 A 
ATOM     29  C   UNL     1      -1.801   5.126  25.178  0.00  0.00    +0.043 A 
ATOM     30  C   UNL     1      -1.242   3.154  26.456  0.00  0.00    +0.043 A 
ATOM     32  C   UNL     1       0.021   3.129  25.865  0.00  0.00    +0.126 A 
ATOM     33  C   UNL     1      -0.537   5.101  24.587  0.00  0.00    +0.126 A 
ATOM     34  C   UNL     1       0.373   4.102  24.930  0.00  0.00    +0.076 A 
ENDBRANCH  26  28
ENDBRANCH   8  26
ENDBRANCH  20  23
ENDBRANCH  15  20
TORSDOF 9
ENDMDL
MODEL 2
REMARK VINA RESULT:      -2.3      0.018      1.416
REMARK  Name = 45361599
REMARK  13 active torsions:
REMARK  status: ('A' for Active; 'I' for Inactive)
REMARK    1  A    between atoms: O_3  and  C_12
REMARK    2  A    between atoms: O_6  and  C_27
REMARK    3  A    between atoms: O_6  and  C_31
REMARK    4  A    between atoms: N_7  and  C_16
REMARK    5  A    between atoms: N_8  and  C_26
REMARK    6  A    between atoms: C_9  and  C_19
REMARK    7  A    between atoms: C_11  and  C_21
REMARK    8  A    between atoms: C_15  and  C_20
REMARK    9  A    between atoms: C_20  and  C_22
REMARK   10  A    between atoms: C_20  and  C_23
REMARK   11  A    between atoms: C_24  and  C_25
REMARK   12  A    between atoms: C_25  and  C_27
REMARK   13  A    between atoms: C_26  and  C_28
REMARK                            x       y       z     vdW  Elec       q    Type
REMARK                         _______ _______ _______ _____ _____    ______ ____
ROOT
ATOM      9  C   UNL     1      -2.284  -1.024  25.200  0.00  0.00    -0.027 C 
ATOM     10  C   UNL     1      -2.378   0.092  24.106  0.00  0.00    +0.028 C 
ATOM     11  C   UNL     1      -0.954   0.668  23.771  0.00  0.00    +0.012 C 
ATOM     12  C   UNL     1      -3.458   1.151  24.471  0.00  0.00    +0.122 C 
ATOM     13  C   UNL     1      -3.683  -1.645  25.423  0.00  0.00    +0.007 C 
ATOM     14  C   UNL     1      -1.346  -2.145  24.698  0.00  0.00    +0.009 C 
ATOM     15  C   UNL     1      -4.829   0.514  24.795  0.00  0.00    +0.029 C 
ATOM     16  C   UNL     1       0.002  -0.479  23.340  0.00  0.00    +0.076 C 
ATOM     17  C   UNL     1      -4.735  -0.616  25.819  0.00  0.00    +0.007 C 
ATOM     18  C   UNL     1       0.043  -1.642  24.333  0.00  0.00    +0.023 C 
ATOM     19  C   UNL     1      -1.757  -0.485  26.554  0.00  0.00    +0.011 C 
ATOM     21  C   UNL     1      -0.969   1.751  22.681  0.00  0.00    +0.010 C 
ENDROOT
BRANCH  16   7
ATOM      5  O   UNL     1       1.541  -0.606  20.902  0.00  0.00    -0.276 OA
ATOM      7  N   UNL     1       1.354  -0.002  23.136  0.00  0.00    -0.312 N 
ATOM     24  C   UNL     1       2.012  -0.110  21.921  0.00  0.00    +0.215 C 
ATOM     35  H   UNL     1       1.856   0.368  23.939  0.00  0.00    +0.149 HD
BRANCH  24  25
ATOM     25  C   UNL     1       3.413   0.475  21.996  0.00  0.00    +0.124 C 
BRANCH  25  27
ATOM     27  C   UNL     1       3.827   0.848  23.412  0.00  0.00    +0.168 C 
BRANCH  27   6
ATOM      6  O   UNL     1       5.212   0.575  23.586  0.00  0.00    -0.382 OA
ATOM     31  C   UNL     1       5.421  -0.709  24.157  0.00  0.00    +0.194 C 
ENDBRANCH  27   6
ENDBRANCH  25  27
ENDBRANCH  24  25
ENDBRANCH  16   7
BRANCH  12   3
ATOM      3  O   UNL     1      -3.665   2.024  23.360  0.00  0.00    -0.391 OA
ATOM     36  H   UNL     1      -4.520   2.470  23.480  0.00  0.00    +0.210 HD
ENDBRANCH  12   3
BRANCH  15  20
ATOM     20  C   UNL     1      -5.842   1.559  25.278  0.00  0.00    +0.077 C 
ATOM     22  C   UNL     1      -7.039   1.608  24.335  0.00  0.00    +0.017 C 
BRANCH  20  23
ATOM      4  O   UNL     1      -5.406   3.849  24.618  0.00  0.00    -0.276 OA
ATOM      8  N   UNL     1      -4.271   2.988  26.447  0.00  0.00    -0.311 N 
ATOM     23  C   UNL     1      -5.167   2.923  25.391  0.00  0.00    +0.216 C 
ATOM     37  H   UNL     1      -4.168   2.196  27.074  0.00  0.00    +0.149 HD
BRANCH   8  26
ATOM     26  C   UNL     1      -3.508   4.176  26.754  0.00  0.00    +0.139 C 
BRANCH  26  28
ATOM      1  F   UNL     1      -0.209   6.050  23.691  0.00  0.00    -0.205 F 
ATOM      2  F   UNL     1       0.903   2.178  26.179  0.00  0.00    -0.205 F 
ATOM     28  C   UNL     1      -2.151   4.153  26.113  0.00  0.00    -0.025 A 
ATOM     29  C   UNL     1      -1.237   3.156  26.450  0.00  0.00    +0.043 A 
ATOM     30  C   UNL     1      -1.804   5.131  25.181  0.00  0.00    +0.043 A 
ATOM     32  C   UNL     1      -0.543   5.111  24.585  0.00  0.00    +0.126 A 
ATOM     33  C   UNL     1       0.025   3.136  25.855  0.00  0.00    +0.126 A 
ATOM     34  C   UNL     1       0.371   4.114  24.923  0.00  0.00    +0.076 A 
ENDBRANCH  26  28
ENDBRANCH   8  26
ENDBRANCH  20  23
ENDBRANCH  15  20
TORSDOF 9
ENDMDL
