MODEL 1
REMARK VINA RESULT:       3.2      0.000      0.000
REMARK  Name = 26744874
REMARK  6 active torsions:
REMARK  status: ('A' for Active; 'I' for Inactive)
REMARK    1  A    between atoms: O_2  and  C_28
REMARK    2  A    between atoms: N_4  and  C_15
REMARK    3  A    between atoms: C_10  and  C_16
REMARK    4  A    between atoms: C_15  and  C_17
REMARK    5  A    between atoms: C_21  and  C_25
REMARK    6  A    between atoms: C_24  and  C_28
REMARK                            x       y       z     vdW  Elec       q    Type
REMARK                         _______ _______ _______ _____ _____    ______ ____
ROOT
ATOM      4  N   UNL     1      -0.588   2.103  25.924  0.00  0.00    -0.281 NA
ATOM      5  N   UNL     1      -2.719   5.186  26.050  0.00  0.00    -0.347 N 
ATOM      6  N   UNL     1      -1.831   5.637  24.049  0.00  0.00    -0.240 NA
ATOM     10  C   UNL     1      -0.578   2.047  24.421  0.00  0.00    +0.152 C 
ATOM     11  C   UNL     1      -0.533   3.476  23.769  0.00  0.00    +0.086 C 
ATOM     12  C   UNL     1      -1.767   2.847  26.455  0.00  0.00    +0.140 C 
ATOM     13  C   UNL     1      -1.966   4.106  25.709  0.00  0.00    +0.053 A 
ATOM     14  C   UNL     1      -1.439   4.401  24.479  0.00  0.00    +0.065 A 
ATOM     18  C   UNL     1      -2.605   6.084  25.017  0.00  0.00    +0.197 A 
ATOM     31  H   UNL     1      -3.261   5.309  26.896  0.00  0.00    +0.167 HD
ENDROOT
BRANCH  10  16
ATOM      1  O   UNL     1       0.279   0.461  22.758  0.00  0.00    -0.336 OA
ATOM      7  N   UNL     1       1.817   1.156  24.230  0.00  0.00    -0.190 NA
ATOM      8  N   UNL     1       1.473  -0.185  22.409  0.00  0.00    -0.056 NA
ATOM     16  C   UNL     1       0.570   1.231  23.839  0.00  0.00    +0.245 A 
ATOM     21  C   UNL     1       2.332   0.276  23.323  0.00  0.00    +0.202 A 
BRANCH  21  25
ATOM      9  N   UNL     1       6.394  -0.897  23.421  0.00  0.00    -0.263 NA
ATOM     25  C   UNL     1       3.709  -0.122  23.356  0.00  0.00    +0.025 A 
ATOM     26  C   UNL     1       4.057  -1.400  23.778  0.00  0.00    +0.031 A 
ATOM     27  C   UNL     1       4.703   0.770  22.967  0.00  0.00    +0.031 A 
ATOM     29  C   UNL     1       5.401  -1.736  23.792  0.00  0.00    +0.111 A 
ATOM     30  C   UNL     1       6.018   0.337  23.017  0.00  0.00    +0.111 A 
ENDBRANCH  21  25
ENDBRANCH  10  16
BRANCH   4  15
ATOM     15  C   UNL     1      -0.578   0.765  26.532  0.00  0.00    +0.120 C 
BRANCH  15  17
ATOM     17  C   UNL     1      -1.520  -0.176  25.830  0.00  0.00    -0.033 A 
ATOM     19  C   UNL     1      -2.868   0.156  25.697  0.00  0.00    +0.006 A 
ATOM     20  C   UNL     1      -1.044  -1.381  25.312  0.00  0.00    +0.006 A 
ATOM     22  C   UNL     1      -3.740  -0.716  25.044  0.00  0.00    +0.015 A 
ATOM     23  C   UNL     1      -1.916  -2.253  24.660  0.00  0.00    +0.015 A 
ATOM     24  C   UNL     1      -3.264  -1.920  24.527  0.00  0.00    +0.059 A 
BRANCH  24  28
ATOM      3  O   UNL     1      -5.192  -2.497  23.233  0.00  0.00    -0.245 OA
ATOM     28  C   UNL     1      -4.172  -2.830  23.847  0.00  0.00    +0.337 C 
BRANCH  28   2
ATOM      2  O   UNL     1      -3.782  -4.130  23.950  0.00  0.00    -0.477 OA
ATOM     32  H   UNL     1      -3.252  -4.288  24.761  0.00  0.00    +0.295 HD
ENDBRANCH  28   2
ENDBRANCH  24  28
ENDBRANCH  15  17
ENDBRANCH   4  15
TORSDOF 6
ENDMDL
MODEL 2
REMARK VINA RESULT:       3.7      2.609      7.275
REMARK  Name = 26744874
REMARK  6 active torsions:
REMARK  status: ('A' for Active; 'I' for Inactive)
REMARK    1  A    between atoms: O_2  and  C_28
REMARK    2  A    between atoms: N_4  and  C_15
REMARK    3  A    between atoms: C_10  and  C_16
REMARK    4  A    between atoms: C_15  and  C_17
REMARK    5  A    between atoms: C_21  and  C_25
REMARK    6  A    between atoms: C_24  and  C_28
REMARK                            x       y       z     vdW  Elec       q    Type
REMARK                         _______ _______ _______ _____ _____    ______ ____
ROOT
ATOM      4  N   UNL     1       1.970   1.402  23.636  0.00  0.00    -0.281 NA
ATOM      5  N   UNL     1       5.489   0.152  23.296  0.00  0.00    -0.347 N 
ATOM      6  N   UNL     1       4.605  -1.852  23.742  0.00  0.00    -0.240 NA
ATOM     10  C   UNL     1       1.356   0.090  23.231  0.00  0.00    +0.152 C 
ATOM     11  C   UNL     1       2.171  -1.142  23.765  0.00  0.00    +0.086 C 
ATOM     12  C   UNL     1       3.360   1.560  23.120  0.00  0.00    +0.140 C 
ATOM     13  C   UNL     1       4.140   0.326  23.344  0.00  0.00    +0.053 A 
ATOM     14  C   UNL     1       3.621  -0.914  23.610  0.00  0.00    +0.065 A 
ATOM     18  C   UNL     1       5.721  -1.178  23.543  0.00  0.00    +0.197 A 
ATOM     31  H   UNL     1       6.189   0.860  23.112  0.00  0.00    +0.167 HD
ENDROOT
BRANCH  10  16
ATOM      1  O   UNL     1      -0.456  -1.320  24.093  0.00  0.00    -0.336 OA
ATOM      7  N   UNL     1      -1.058   0.804  23.711  0.00  0.00    -0.190 NA
ATOM      8  N   UNL     1      -1.810  -1.229  24.443  0.00  0.00    -0.056 NA
ATOM     16  C   UNL     1      -0.092  -0.080  23.674  0.00  0.00    +0.245 A 
ATOM     21  C   UNL     1      -2.092   0.052  24.189  0.00  0.00    +0.202 A 
BRANCH  21  25
ATOM      9  N   UNL     1      -5.933   1.705  24.822  0.00  0.00    -0.263 NA
ATOM     25  C   UNL     1      -3.394   0.612  24.404  0.00  0.00    +0.025 A 
ATOM     26  C   UNL     1      -3.815   1.709  23.659  0.00  0.00    +0.031 A 
ATOM     27  C   UNL     1      -4.243   0.062  25.359  0.00  0.00    +0.031 A 
ATOM     29  C   UNL     1      -5.081   2.212  23.903  0.00  0.00    +0.111 A 
ATOM     30  C   UNL     1      -5.490   0.640  25.527  0.00  0.00    +0.111 A 
ENDBRANCH  21  25
ENDBRANCH  10  16
BRANCH   4  15
ATOM     15  C   UNL     1       1.178   2.553  23.179  0.00  0.00    +0.120 C 
BRANCH  15  17
ATOM     17  C   UNL     1       0.102   2.920  24.165  0.00  0.00    -0.033 A 
ATOM     19  C   UNL     1       0.150   2.422  25.467  0.00  0.00    +0.006 A 
ATOM     20  C   UNL     1      -0.943   3.759  23.777  0.00  0.00    +0.006 A 
ATOM     22  C   UNL     1      -0.848   2.763  26.381  0.00  0.00    +0.015 A 
ATOM     23  C   UNL     1      -1.940   4.099  24.691  0.00  0.00    +0.015 A 
ATOM     24  C   UNL     1      -1.892   3.601  25.993  0.00  0.00    +0.059 A 
BRANCH  24  28
ATOM      3  O   UNL     1      -2.755   4.185  28.147  0.00  0.00    -0.245 OA
ATOM     28  C   UNL     1      -2.933   3.957  26.945  0.00  0.00    +0.337 C 
BRANCH  28   2
ATOM      2  O   UNL     1      -4.165   4.020  26.372  0.00  0.00    -0.477 OA
ATOM     32  H   UNL     1      -4.730   3.262  26.636  0.00  0.00    +0.295 HD
ENDBRANCH  28   2
ENDBRANCH  24  28
ENDBRANCH  15  17
ENDBRANCH   4  15
TORSDOF 6
ENDMDL
MODEL 3
REMARK VINA RESULT:       4.2      2.979      4.856
REMARK  Name = 26744874
REMARK  6 active torsions:
REMARK  status: ('A' for Active; 'I' for Inactive)
REMARK    1  A    between atoms: O_2  and  C_28
REMARK    2  A    between atoms: N_4  and  C_15
REMARK    3  A    between atoms: C_10  and  C_16
REMARK    4  A    between atoms: C_15  and  C_17
REMARK    5  A    between atoms: C_21  and  C_25
REMARK    6  A    between atoms: C_24  and  C_28
REMARK                            x       y       z     vdW  Elec       q    Type
REMARK                         _______ _______ _______ _____ _____    ______ ____
ROOT
ATOM      4  N   UNL     1      -1.973   2.767  24.276  0.00  0.00    -0.281 NA
ATOM      5  N   UNL     1      -5.621   2.578  25.127  0.00  0.00    -0.347 N 
ATOM      6  N   UNL     1      -5.452   0.442  24.489  0.00  0.00    -0.240 NA
ATOM     10  C   UNL     1      -1.732   1.306  24.541  0.00  0.00    +0.152 C 
ATOM     11  C   UNL     1      -2.945   0.410  24.105  0.00  0.00    +0.086 C 
ATOM     12  C   UNL     1      -3.165   3.285  25.009  0.00  0.00    +0.140 C 
ATOM     13  C   UNL     1      -4.303   2.353  24.873  0.00  0.00    +0.053 A 
ATOM     14  C   UNL     1      -4.223   1.040  24.492  0.00  0.00    +0.065 A 
ATOM     18  C   UNL     1      -6.274   1.396  24.880  0.00  0.00    +0.197 A 
ATOM     31  H   UNL     1      -6.043   3.444  25.439  0.00  0.00    +0.167 HD
ENDROOT
BRANCH  10  16
ATOM      1  O   UNL     1      -0.654   0.135  22.675  0.00  0.00    -0.336 OA
ATOM      7  N   UNL     1       0.765   0.785  24.282  0.00  0.00    -0.190 NA
ATOM      8  N   UNL     1       0.620  -0.281  22.263  0.00  0.00    -0.056 NA
ATOM     16  C   UNL     1      -0.478   0.755  23.871  0.00  0.00    +0.245 A 
ATOM     21  C   UNL     1       1.401   0.138  23.263  0.00  0.00    +0.202 A 
BRANCH  21  25
ATOM      9  N   UNL     1       5.584  -0.482  23.293  0.00  0.00    -0.263 NA
ATOM     25  C   UNL     1       2.819  -0.072  23.273  0.00  0.00    +0.025 A 
ATOM     26  C   UNL     1       3.676   0.922  22.813  0.00  0.00    +0.031 A 
ATOM     27  C   UNL     1       3.344  -1.272  23.742  0.00  0.00    +0.031 A 
ATOM     29  C   UNL     1       5.038   0.670  22.845  0.00  0.00    +0.111 A 
ATOM     30  C   UNL     1       4.721  -1.425  23.731  0.00  0.00    +0.111 A 
ENDBRANCH  21  25
ENDBRANCH  10  16
BRANCH   4  15
ATOM     15  C   UNL     1      -0.817   3.599  24.637  0.00  0.00    +0.120 C 
BRANCH  15  17
ATOM     17  C   UNL     1      -0.292   3.264  26.008  0.00  0.00    -0.033 A 
ATOM     19  C   UNL     1       1.078   3.097  26.209  0.00  0.00    +0.006 A 
ATOM     20  C   UNL     1      -1.176   3.121  27.078  0.00  0.00    +0.006 A 
ATOM     22  C   UNL     1       1.564   2.787  27.480  0.00  0.00    +0.015 A 
ATOM     23  C   UNL     1      -0.691   2.811  28.348  0.00  0.00    +0.015 A 
ATOM     24  C   UNL     1       0.679   2.644  28.548  0.00  0.00    +0.059 A 
BRANCH  24  28
ATOM      3  O   UNL     1       0.687   2.697  30.941  0.00  0.00    -0.245 OA
ATOM     28  C   UNL     1       1.185   2.322  29.874  0.00  0.00    +0.337 C 
BRANCH  28   2
ATOM      2  O   UNL     1       2.298   1.540  29.830  0.00  0.00    -0.477 OA
ATOM     32  H   UNL     1       2.957   1.805  30.507  0.00  0.00    +0.295 HD
ENDBRANCH  28   2
ENDBRANCH  24  28
ENDBRANCH  15  17
ENDBRANCH   4  15
TORSDOF 6
ENDMDL
MODEL 4
REMARK VINA RESULT:       4.4      3.105      5.094
REMARK  Name = 26744874
REMARK  6 active torsions:
REMARK  status: ('A' for Active; 'I' for Inactive)
REMARK    1  A    between atoms: O_2  and  C_28
REMARK    2  A    between atoms: N_4  and  C_15
REMARK    3  A    between atoms: C_10  and  C_16
REMARK    4  A    between atoms: C_15  and  C_17
REMARK    5  A    between atoms: C_21  and  C_25
REMARK    6  A    between atoms: C_24  and  C_28
REMARK                            x       y       z     vdW  Elec       q    Type
REMARK                         _______ _______ _______ _____ _____    ______ ____
ROOT
ATOM      4  N   UNL     1      -1.851   0.233  23.423  0.00  0.00    -0.281 NA
ATOM      5  N   UNL     1      -4.754  -1.989  24.262  0.00  0.00    -0.347 N 
ATOM      6  N   UNL     1      -3.253  -3.643  24.173  0.00  0.00    -0.240 NA
ATOM     10  C   UNL     1      -0.836  -0.688  24.042  0.00  0.00    +0.152 C 
ATOM     11  C   UNL     1      -1.194  -2.203  23.830  0.00  0.00    +0.086 C 
ATOM     12  C   UNL     1      -3.215   0.037  23.995  0.00  0.00    +0.140 C 
ATOM     13  C   UNL     1      -3.540  -1.401  24.083  0.00  0.00    +0.053 A 
ATOM     14  C   UNL     1      -2.637  -2.431  24.039  0.00  0.00    +0.065 A 
ATOM     18  C   UNL     1      -4.530  -3.343  24.309  0.00  0.00    +0.197 A 
ATOM     31  H   UNL     1      -5.649  -1.525  24.348  0.00  0.00    +0.167 HD
ENDROOT
BRANCH  10  16
ATOM      1  O   UNL     1       0.717  -0.041  22.257  0.00  0.00    -0.336 OA
ATOM      7  N   UNL     1       1.723  -0.636  24.168  0.00  0.00    -0.190 NA
ATOM      8  N   UNL     1       2.093   0.085  22.028  0.00  0.00    -0.056 NA
ATOM     16  C   UNL     1       0.586  -0.469  23.540  0.00  0.00    +0.245 A 
ATOM     21  C   UNL     1       2.619  -0.284  23.200  0.00  0.00    +0.202 A 
BRANCH  21  25
ATOM      9  N   UNL     1       6.789  -0.360  23.899  0.00  0.00    -0.263 NA
ATOM     25  C   UNL     1       4.033  -0.309  23.437  0.00  0.00    +0.025 A 
ATOM     26  C   UNL     1       4.642  -1.469  23.905  0.00  0.00    +0.031 A 
ATOM     27  C   UNL     1       4.802   0.826  23.201  0.00  0.00    +0.031 A 
ATOM     29  C   UNL     1       6.010  -1.443  24.117  0.00  0.00    +0.111 A 
ATOM     30  C   UNL     1       6.163   0.749  23.445  0.00  0.00    +0.111 A 
ENDBRANCH  21  25
ENDBRANCH  10  16
BRANCH   4  15
ATOM     15  C   UNL     1      -1.488   1.648  23.578  0.00  0.00    +0.120 C 
BRANCH  15  17
ATOM     17  C   UNL     1      -2.644   2.470  24.083  0.00  0.00    -0.033 A 
ATOM     19  C   UNL     1      -3.699   2.790  23.229  0.00  0.00    +0.006 A 
ATOM     20  C   UNL     1      -2.659   2.912  25.406  0.00  0.00    +0.006 A 
ATOM     22  C   UNL     1      -4.770   3.551  23.699  0.00  0.00    +0.015 A 
ATOM     23  C   UNL     1      -3.730   3.673  25.875  0.00  0.00    +0.015 A 
ATOM     24  C   UNL     1      -4.785   3.993  25.021  0.00  0.00    +0.059 A 
BRANCH  24  28
ATOM      3  O   UNL     1      -6.203   5.918  25.116  0.00  0.00    -0.245 OA
ATOM     28  C   UNL     1      -5.901   4.786  25.511  0.00  0.00    +0.337 C 
BRANCH  28   2
ATOM      2  O   UNL     1      -6.610   4.145  26.479  0.00  0.00    -0.477 OA
ATOM     32  H   UNL     1      -6.616   3.173  26.345  0.00  0.00    +0.295 HD
ENDBRANCH  28   2
ENDBRANCH  24  28
ENDBRANCH  15  17
ENDBRANCH   4  15
TORSDOF 6
ENDMDL
