MODEL 1
REMARK VINA RESULT:       4.4      0.000      0.000
REMARK  Name = 45360554
REMARK  7 active torsions:
REMARK  status: ('A' for Active; 'I' for Inactive)
REMARK    1  A    between atoms: O_6  and  C_12
REMARK    2  A    between atoms: N_8  and  C_11
REMARK    3  A    between atoms: N_9  and  C_13
REMARK    4  A    between atoms: N_10  and  C_29
REMARK    5  A    between atoms: C_18  and  C_22
REMARK    6  A    between atoms: C_22  and  C_23
REMARK    7  A    between atoms: C_33  and  C_36
REMARK                            x       y       z     vdW  Elec       q    Type
REMARK                         _______ _______ _______ _____ _____    ______ ____
ROOT
ATOM      4  O   UNL     1      -3.722   3.569  26.826  0.00  0.00    -0.342 OA
ATOM      5  O   UNL     1      -5.317   5.015  25.963  0.00  0.00    -0.347 OA
ATOM     11  C   UNL     1      -4.508   3.209  24.574  0.00  0.00    +0.143 C 
ATOM     12  C   UNL     1      -3.385   4.112  24.016  0.00  0.00    +0.159 C 
ATOM     13  C   UNL     1      -2.394   4.599  25.097  0.00  0.00    +0.136 C 
ATOM     14  C   UNL     1      -4.893   3.643  26.000  0.00  0.00    +0.270 C 
ATOM     15  C   UNL     1      -3.048   4.783  26.482  0.00  0.00    +0.170 C 
ATOM     19  C   UNL     1      -4.209   5.758  26.495  0.00  0.00    +0.196 C 
ENDROOT
BRANCH  13   9
ATOM      7  O   UNL     1      -1.336   2.950  23.007  0.00  0.00    -0.252 OA
ATOM      9  N   UNL     1      -1.279   3.682  25.199  0.00  0.00    -0.291 N 
ATOM     10  N   UNL     1       0.260   2.126  24.518  0.00  0.00    -0.269 N 
ATOM     24  C   UNL     1      -0.826   2.913  24.125  0.00  0.00    +0.304 C 
ATOM     37  H   UNL     1      -0.858   3.537  26.111  0.00  0.00    +0.151 HD
ATOM     39  H   UNL     1       0.560   2.213  25.486  0.00  0.00    +0.156 HD
BRANCH  10  29
ATOM     29  C   UNL     1       1.000   1.212  23.733  0.00  0.00    +0.035 A 
ATOM     31  C   UNL     1       2.393   1.196  23.806  0.00  0.00    +0.035 A 
ATOM     32  C   UNL     1       0.337   0.326  22.882  0.00  0.00    +0.023 A 
ATOM     33  C   UNL     1       3.123   0.296  23.031  0.00  0.00    +0.057 A 
ATOM     34  C   UNL     1       1.067  -0.574  22.107  0.00  0.00    +0.002 A 
ATOM     35  C   UNL     1       2.460  -0.589  22.182  0.00  0.00    +0.012 A 
BRANCH  33  36
ATOM      1  F   UNL     1       5.225   0.245  21.890  0.00  0.00    -0.166 F 
ATOM      2  F   UNL     1       5.089  -0.804  23.789  0.00  0.00    -0.166 F 
ATOM      3  F   UNL     1       5.139   1.369  23.742  0.00  0.00    -0.166 F 
ATOM     36  C   UNL     1       4.613   0.279  23.110  0.00  0.00    +0.417 C 
ENDBRANCH  33  36
ENDBRANCH  10  29
ENDBRANCH  13   9
BRANCH  11   8
ATOM      8  N   UNL     1      -4.073   1.811  24.582  0.00  0.00    -0.293 NA
ATOM     16  C   UNL     1      -3.872   1.327  23.210  0.00  0.00    +0.085 C 
ATOM     17  C   UNL     1      -5.043   0.975  25.302  0.00  0.00    +0.085 C 
ATOM     18  C   UNL     1      -4.315  -1.045  23.965  0.00  0.00    -0.004 C 
ATOM     20  C   UNL     1      -3.365  -0.116  23.201  0.00  0.00    +0.019 C 
ATOM     21  C   UNL     1      -4.576  -0.481  25.366  0.00  0.00    +0.019 C 
BRANCH  18  22
ATOM     22  C   UNL     1      -3.756  -2.462  24.039  0.00  0.00    +0.038 C 
BRANCH  22  23
ATOM     23  C   UNL     1      -2.345  -2.477  24.561  0.00  0.00    -0.047 A 
ATOM     25  C   UNL     1      -1.470  -3.491  24.176  0.00  0.00    +0.003 A 
ATOM     26  C   UNL     1      -1.913  -1.475  25.430  0.00  0.00    +0.003 A 
ATOM     27  C   UNL     1      -0.161  -3.504  24.660  0.00  0.00    +0.000 A 
ATOM     28  C   UNL     1      -0.604  -1.488  25.914  0.00  0.00    +0.000 A 
ATOM     30  C   UNL     1       0.271  -2.502  25.529  0.00  0.00    +0.000 A 
ENDBRANCH  22  23
ENDBRANCH  18  22
ENDBRANCH  11   8
BRANCH  12   6
ATOM      6  O   UNL     1      -4.004   5.256  23.411  0.00  0.00    -0.388 OA
ATOM     38  H   UNL     1      -4.459   4.952  22.607  0.00  0.00    +0.210 HD
ENDBRANCH  12   6
TORSDOF 7
ENDMDL
