MODEL 1
REMARK VINA RESULT:       3.7      0.000      0.000
REMARK  Name = 75368629
REMARK  7 active torsions:
REMARK  status: ('A' for Active; 'I' for Inactive)
REMARK    1  A    between atoms: O_5  and  C_28
REMARK    2  A    between atoms: O_5  and  C_30
REMARK    3  A    between atoms: N_7  and  C_15
REMARK    4  A    between atoms: N_8  and  C_16
REMARK    5  A    between atoms: C_15  and  C_17
REMARK    6  A    between atoms: C_16  and  C_18
REMARK    7  A    between atoms: C_25  and  C_29
REMARK                            x       y       z     vdW  Elec       q    Type
REMARK                         _______ _______ _______ _____ _____    ______ ____
ROOT
ATOM      4  O   UNL     1      -1.877  -3.382  23.470  0.00  0.00    -0.252 OA
ATOM      6  N   UNL     1      -3.168  -1.857  24.704  0.00  0.00    -0.278 N 
ATOM      7  N   UNL     1      -5.011   0.204  25.225  0.00  0.00    -0.295 NA
ATOM      8  N   UNL     1      -1.010  -2.122  25.266  0.00  0.00    -0.279 N 
ATOM      9  C   UNL     1      -3.003  -1.050  25.895  0.00  0.00    +0.109 C 
ATOM     10  C   UNL     1      -3.614   0.334  25.690  0.00  0.00    +0.109 C 
ATOM     11  C   UNL     1      -1.493  -1.057  26.128  0.00  0.00    +0.133 C 
ATOM     12  C   UNL     1      -4.472  -1.934  24.076  0.00  0.00    +0.125 C 
ATOM     13  C   UNL     1      -5.072  -0.532  23.946  0.00  0.00    +0.104 C 
ATOM     14  C   UNL     1      -2.005  -2.561  24.369  0.00  0.00    +0.305 C 
ENDROOT
BRANCH   7  15
ATOM     15  C   UNL     1      -5.625   1.524  25.083  0.00  0.00    +0.119 C 
BRANCH  15  17
ATOM     17  C   UNL     1      -4.592   2.617  25.005  0.00  0.00    -0.033 A 
ATOM     19  C   UNL     1      -4.251   3.337  26.151  0.00  0.00    +0.005 A 
ATOM     20  C   UNL     1      -3.975   2.910  23.789  0.00  0.00    +0.005 A 
ATOM     23  C   UNL     1      -3.294   4.349  26.080  0.00  0.00    +0.012 A 
ATOM     24  C   UNL     1      -3.019   3.923  23.718  0.00  0.00    +0.012 A 
ATOM     25  C   UNL     1      -2.679   4.642  24.863  0.00  0.00    +0.055 A 
BRANCH  25  29
ATOM      1  F   UNL     1      -1.645   6.388  23.597  0.00  0.00    -0.166 F 
ATOM      2  F   UNL     1      -0.373   5.274  24.954  0.00  0.00    -0.166 F 
ATOM      3  F   UNL     1      -1.830   6.682  25.742  0.00  0.00    -0.166 F 
ATOM     29  C   UNL     1      -1.653   5.722  24.789  0.00  0.00    +0.417 C 
ENDBRANCH  25  29
ENDBRANCH  15  17
ENDBRANCH   7  15
BRANCH   8  16
ATOM     16  C   UNL     1       0.374  -2.538  25.264  0.00  0.00    +0.144 C 
BRANCH  16  18
ATOM     18  C   UNL     1       1.224  -1.659  24.385  0.00  0.00    -0.030 A 
ATOM     21  C   UNL     1       0.634  -0.633  23.647  0.00  0.00    +0.009 A 
ATOM     22  C   UNL     1       2.600  -1.870  24.311  0.00  0.00    +0.009 A 
ATOM     26  C   UNL     1       1.422   0.182  22.833  0.00  0.00    +0.046 A 
ATOM     27  C   UNL     1       3.388  -1.055  23.498  0.00  0.00    +0.046 A 
ATOM     28  C   UNL     1       2.799  -0.030  22.759  0.00  0.00    +0.120 A 
BRANCH  28   5
ATOM      5  O   UNL     1       3.568   0.766  21.967  0.00  0.00    -0.495 OA
ATOM     30  C   UNL     1       4.704   1.381  22.572  0.00  0.00    +0.277 C 
ENDBRANCH  28   5
ENDBRANCH  16  18
ENDBRANCH   8  16
TORSDOF 6
ENDMDL
MODEL 2
REMARK VINA RESULT:       7.0      2.222      3.297
REMARK  Name = 75368629
REMARK  7 active torsions:
REMARK  status: ('A' for Active; 'I' for Inactive)
REMARK    1  A    between atoms: O_5  and  C_28
REMARK    2  A    between atoms: O_5  and  C_30
REMARK    3  A    between atoms: N_7  and  C_15
REMARK    4  A    between atoms: N_8  and  C_16
REMARK    5  A    between atoms: C_15  and  C_17
REMARK    6  A    between atoms: C_16  and  C_18
REMARK    7  A    between atoms: C_25  and  C_29
REMARK                            x       y       z     vdW  Elec       q    Type
REMARK                         _______ _______ _______ _____ _____    ______ ____
ROOT
ATOM      4  O   UNL     1       0.551  -1.654  21.983  0.00  0.00    -0.252 OA
ATOM      6  N   UNL     1      -0.839  -1.299  23.842  0.00  0.00    -0.278 N 
ATOM      7  N   UNL     1      -3.193  -1.204  25.380  0.00  0.00    -0.295 NA
ATOM      8  N   UNL     1       0.701   0.260  23.353  0.00  0.00    -0.279 N 
ATOM      9  C   UNL     1      -0.931  -0.346  24.928  0.00  0.00    +0.109 C 
ATOM     10  C   UNL     1      -2.390   0.022  25.192  0.00  0.00    +0.109 C 
ATOM     11  C   UNL     1      -0.050   0.813  24.467  0.00  0.00    +0.133 C 
ATOM     12  C   UNL     1      -1.694  -2.469  23.853  0.00  0.00    +0.125 C 
ATOM     13  C   UNL     1      -3.133  -2.061  24.179  0.00  0.00    +0.104 C 
ATOM     14  C   UNL     1       0.186  -0.986  22.941  0.00  0.00    +0.305 C 
ENDROOT
BRANCH   7  15
ATOM     15  C   UNL     1      -4.580  -0.861  25.693  0.00  0.00    +0.119 C 
BRANCH  15  17
ATOM     17  C   UNL     1      -4.827   0.621  25.594  0.00  0.00    -0.033 A 
ATOM     19  C   UNL     1      -5.730   1.237  26.462  0.00  0.00    +0.005 A 
ATOM     20  C   UNL     1      -4.152   1.379  24.637  0.00  0.00    +0.005 A 
ATOM     23  C   UNL     1      -5.958   2.609  26.372  0.00  0.00    +0.012 A 
ATOM     24  C   UNL     1      -4.381   2.752  24.547  0.00  0.00    +0.012 A 
ATOM     25  C   UNL     1      -5.284   3.367  25.414  0.00  0.00    +0.055 A 
BRANCH  25  29
ATOM      1  F   UNL     1      -4.908   5.556  26.302  0.00  0.00    -0.166 F 
ATOM      2  F   UNL     1      -6.845   5.180  25.404  0.00  0.00    -0.166 F 
ATOM      3  F   UNL     1      -5.084   5.367  24.144  0.00  0.00    -0.166 F 
ATOM     29  C   UNL     1      -5.526   4.835  25.320  0.00  0.00    +0.417 C 
ENDBRANCH  25  29
ENDBRANCH  15  17
ENDBRANCH   7  15
BRANCH   8  16
ATOM     16  C   UNL     1       1.745   1.006  22.687  0.00  0.00    +0.144 C 
BRANCH  16  18
ATOM     18  C   UNL     1       3.115   0.484  23.030  0.00  0.00    -0.030 A 
ATOM     21  C   UNL     1       3.266  -0.819  23.505  0.00  0.00    +0.009 A 
ATOM     22  C   UNL     1       4.232   1.303  22.871  0.00  0.00    +0.009 A 
ATOM     26  C   UNL     1       4.535  -1.303  23.822  0.00  0.00    +0.046 A 
ATOM     27  C   UNL     1       5.502   0.819  23.188  0.00  0.00    +0.046 A 
ATOM     28  C   UNL     1       5.653  -0.483  23.664  0.00  0.00    +0.120 A 
BRANCH  28   5
ATOM      5  O   UNL     1       6.892  -0.955  23.971  0.00  0.00    -0.495 OA
ATOM     30  C   UNL     1       7.976  -0.514  23.156  0.00  0.00    +0.277 C 
ENDBRANCH  28   5
ENDBRANCH  16  18
ENDBRANCH   8  16
TORSDOF 6
ENDMDL
MODEL 3
REMARK VINA RESULT:       7.2      3.851      5.857
REMARK  Name = 75368629
REMARK  7 active torsions:
REMARK  status: ('A' for Active; 'I' for Inactive)
REMARK    1  A    between atoms: O_5  and  C_28
REMARK    2  A    between atoms: O_5  and  C_30
REMARK    3  A    between atoms: N_7  and  C_15
REMARK    4  A    between atoms: N_8  and  C_16
REMARK    5  A    between atoms: C_15  and  C_17
REMARK    6  A    between atoms: C_16  and  C_18
REMARK    7  A    between atoms: C_25  and  C_29
REMARK                            x       y       z     vdW  Elec       q    Type
REMARK                         _______ _______ _______ _____ _____    ______ ____
ROOT
ATOM      4  O   UNL     1      -0.241   5.227  25.513  0.00  0.00    -0.252 OA
ATOM      6  N   UNL     1      -2.203   4.186  24.749  0.00  0.00    -0.278 N 
ATOM      7  N   UNL     1      -4.643   2.789  24.848  0.00  0.00    -0.295 NA
ATOM      8  N   UNL     1      -0.290   3.794  23.640  0.00  0.00    -0.279 N 
ATOM      9  C   UNL     1      -2.602   3.387  23.609  0.00  0.00    +0.109 C 
ATOM     10  C   UNL     1      -3.521   2.250  24.052  0.00  0.00    +0.109 C 
ATOM     11  C   UNL     1      -1.275   2.940  22.999  0.00  0.00    +0.133 C 
ATOM     12  C   UNL     1      -3.213   4.644  25.681  0.00  0.00    +0.125 C 
ATOM     13  C   UNL     1      -4.146   3.488  26.050  0.00  0.00    +0.104 C 
ATOM     14  C   UNL     1      -0.838   4.499  24.731  0.00  0.00    +0.305 C 
ENDROOT
BRANCH   7  15
ATOM     15  C   UNL     1      -5.561   1.716  25.225  0.00  0.00    +0.119 C 
BRANCH  15  17
ATOM     17  C   UNL     1      -4.915   0.360  25.113  0.00  0.00    -0.033 A 
ATOM     19  C   UNL     1      -5.113  -0.414  23.969  0.00  0.00    +0.005 A 
ATOM     20  C   UNL     1      -4.118  -0.122  26.152  0.00  0.00    +0.005 A 
ATOM     23  C   UNL     1      -4.514  -1.669  23.864  0.00  0.00    +0.012 A 
ATOM     24  C   UNL     1      -3.520  -1.378  26.047  0.00  0.00    +0.012 A 
ATOM     25  C   UNL     1      -3.718  -2.151  24.903  0.00  0.00    +0.055 A 
BRANCH  25  29
ATOM      1  F   UNL     1      -3.586  -4.260  23.782  0.00  0.00    -0.166 F 
ATOM      2  F   UNL     1      -3.198  -4.256  25.915  0.00  0.00    -0.166 F 
ATOM      3  F   UNL     1      -1.735  -3.413  24.545  0.00  0.00    -0.166 F 
ATOM     29  C   UNL     1      -3.075  -3.492  24.789  0.00  0.00    +0.417 C 
ENDBRANCH  25  29
ENDBRANCH  15  17
ENDBRANCH   7  15
BRANCH   8  16
ATOM     16  C   UNL     1       1.105   3.771  23.263  0.00  0.00    +0.144 C 
BRANCH  16  18
ATOM     18  C   UNL     1       1.662   2.372  23.255  0.00  0.00    -0.030 A 
ATOM     21  C   UNL     1       2.980   2.148  22.856  0.00  0.00    +0.009 A 
ATOM     22  C   UNL     1       0.860   1.301  23.648  0.00  0.00    +0.009 A 
ATOM     26  C   UNL     1       3.496   0.852  22.849  0.00  0.00    +0.046 A 
ATOM     27  C   UNL     1       1.376   0.005  23.642  0.00  0.00    +0.046 A 
ATOM     28  C   UNL     1       2.693  -0.220  23.242  0.00  0.00    +0.120 A 
BRANCH  28   5
ATOM      5  O   UNL     1       3.197  -1.484  23.237  0.00  0.00    -0.495 OA
ATOM     30  C   UNL     1       4.456  -1.683  23.878  0.00  0.00    +0.277 C 
ENDBRANCH  28   5
ENDBRANCH  16  18
ENDBRANCH   8  16
TORSDOF 6
ENDMDL
