MODEL 1
REMARK VINA RESULT:      12.7      0.000      0.000
REMARK  Name = 45361709
REMARK  11 active torsions:
REMARK  status: ('A' for Active; 'I' for Inactive)
REMARK    1  A    between atoms: S_1  and  N_7
REMARK    2  A    between atoms: S_1  and  C_20
REMARK    3  A    between atoms: N_9  and  C_19
REMARK    4  A    between atoms: N_12  and  C_33
REMARK    5  A    between atoms: N_12  and  C_37
REMARK    6  A    between atoms: N_12  and  C_38
REMARK    7  A    between atoms: C_13  and  C_17
REMARK    8  A    between atoms: C_18  and  C_22
REMARK    9  A    between atoms: C_19  and  C_21
REMARK   10  A    between atoms: C_19  and  C_24
REMARK   11  A    between atoms: C_21  and  C_23
REMARK                            x       y       z     vdW  Elec       q    Type
REMARK                         _______ _______ _______ _____ _____    ______ ____
ROOT
ATOM      5  O   UNL     1       1.098  -0.448  20.668  0.00  0.00    -0.270 OA
ATOM      7  N   UNL     1      -2.154  -0.338  24.395  0.00  0.00    -0.167 NA
ATOM      8  N   UNL     1       0.084   0.136  22.691  0.00  0.00    -0.294 N 
ATOM     13  C   UNL     1      -0.758  -0.397  24.940  0.00  0.00    +0.182 C 
ATOM     14  C   UNL     1       0.160   0.499  24.109  0.00  0.00    +0.138 C 
ATOM     15  C   UNL     1      -2.195  -0.718  22.943  0.00  0.00    +0.129 C 
ATOM     16  C   UNL     1      -1.266   0.183  22.139  0.00  0.00    +0.125 C 
ATOM     18  C   UNL     1       1.164  -0.186  21.869  0.00  0.00    +0.247 C 
ENDROOT
BRANCH  18  22
ATOM     22  C   UNL     1       2.503  -0.237  22.470  0.00  0.00    +0.037 A 
ATOM     28  C   UNL     1       3.365   0.853  22.344  0.00  0.00    +0.015 A 
ATOM     29  C   UNL     1       2.914  -1.374  23.166  0.00  0.00    +0.015 A 
ATOM     31  C   UNL     1       4.638   0.805  22.914  0.00  0.00    +0.024 A 
ATOM     32  C   UNL     1       4.187  -1.422  23.736  0.00  0.00    +0.024 A 
ATOM     33  C   UNL     1       5.048  -0.332  23.609  0.00  0.00    +0.029 A 
BRANCH  33  12
ATOM     12  N   UNL     1       6.334  -0.380  24.186  0.00  0.00    -0.336 N 
ATOM     37  C   UNL     1       6.518  -0.900  25.527  0.00  0.00    +0.129 C 
ATOM     38  C   UNL     1       7.490   0.083  23.444  0.00  0.00    +0.129 C 
ENDBRANCH  33  12
ENDBRANCH  18  22
BRANCH   7   1
ATOM      1  S   UNL     1      -3.389  -1.087  25.336  0.00  0.00    +0.030 S 
ATOM      2  O   UNL     1      -4.035  -0.069  26.129  0.00  0.00    -0.158 OA
ATOM      3  O   UNL     1      -2.848  -2.290  25.919  0.00  0.00    -0.158 OA
ATOM     20  C   UNL     1      -4.488  -1.550  24.024  0.00  0.00    +0.215 C 
ENDBRANCH   7   1
BRANCH  13  17
ATOM      4  O   UNL     1      -0.964  -0.642  27.298  0.00  0.00    -0.274 OA
ATOM      9  N   UNL     1      -0.528   1.466  26.415  0.00  0.00    -0.302 N 
ATOM     17  C   UNL     1      -0.758   0.103  26.344  0.00  0.00    +0.234 C 
ATOM     39  H   UNL     1      -0.334   1.986  25.562  0.00  0.00    +0.150 HD
BRANCH   9  19
ATOM     19  C   UNL     1      -0.501   2.201  27.658  0.00  0.00    +0.163 C 
BRANCH  19  24
ATOM      6  O   UNL     1       1.790   2.876  27.209  0.00  0.00    -0.274 OA
ATOM     11  N   UNL     1       1.248   2.167  29.327  0.00  0.00    -0.328 N 
ATOM     24  C   UNL     1       0.962   2.441  28.005  0.00  0.00    +0.231 C 
ATOM     41  H   UNL     1       2.186   2.298  29.693  0.00  0.00    +0.145 HD
ATOM     42  H   UNL     1       0.548   1.830  29.979  0.00  0.00    +0.145 HD
ENDBRANCH  19  24
BRANCH  19  21
ATOM     21  C   UNL     1      -1.252   3.533  27.562  0.00  0.00    +0.069 C 
BRANCH  21  23
ATOM     10  N   UNL     1      -1.936   4.416  24.052  0.00  0.00    -0.360 N 
ATOM     23  C   UNL     1      -1.797   3.798  26.179  0.00  0.00    -0.020 A 
ATOM     25  C   UNL     1      -3.120   3.538  25.725  0.00  0.00    +0.003 A 
ATOM     26  C   UNL     1      -1.092   4.338  25.127  0.00  0.00    +0.087 A 
ATOM     27  C   UNL     1      -3.180   3.934  24.388  0.00  0.00    +0.047 A 
ATOM     30  C   UNL     1      -4.276   3.001  26.327  0.00  0.00    +0.010 A 
ATOM     34  C   UNL     1      -4.344   3.821  23.618  0.00  0.00    +0.026 A 
ATOM     35  C   UNL     1      -5.447   2.881  25.569  0.00  0.00    +0.001 A 
ATOM     36  C   UNL     1      -5.478   3.286  24.236  0.00  0.00    +0.002 A 
ATOM     40  H   UNL     1      -1.683   4.776  23.142  0.00  0.00    +0.165 HD
ENDBRANCH  21  23
ENDBRANCH  19  21
ENDBRANCH   9  19
ENDBRANCH  13  17
TORSDOF 8
ENDMDL
MODEL 2
REMARK VINA RESULT:      15.0      2.510      6.412
REMARK  Name = 45361709
REMARK  11 active torsions:
REMARK  status: ('A' for Active; 'I' for Inactive)
REMARK    1  A    between atoms: S_1  and  N_7
REMARK    2  A    between atoms: S_1  and  C_20
REMARK    3  A    between atoms: N_9  and  C_19
REMARK    4  A    between atoms: N_12  and  C_33
REMARK    5  A    between atoms: N_12  and  C_37
REMARK    6  A    between atoms: N_12  and  C_38
REMARK    7  A    between atoms: C_13  and  C_17
REMARK    8  A    between atoms: C_18  and  C_22
REMARK    9  A    between atoms: C_19  and  C_21
REMARK   10  A    between atoms: C_19  and  C_24
REMARK   11  A    between atoms: C_21  and  C_23
REMARK                            x       y       z     vdW  Elec       q    Type
REMARK                         _______ _______ _______ _____ _____    ______ ____
ROOT
ATOM      5  O   UNL     1      -2.297  -3.362  24.386  0.00  0.00    -0.270 OA
ATOM      7  N   UNL     1       1.632  -0.445  23.654  0.00  0.00    -0.167 NA
ATOM      8  N   UNL     1      -0.776  -1.608  24.650  0.00  0.00    -0.294 N 
ATOM     13  C   UNL     1       0.403   0.394  23.840  0.00  0.00    +0.182 C 
ATOM     14  C   UNL     1      -0.470  -0.205  24.943  0.00  0.00    +0.138 C 
ATOM     15  C   UNL     1       1.282  -1.874  23.352  0.00  0.00    +0.129 C 
ATOM     16  C   UNL     1       0.405  -2.444  24.461  0.00  0.00    +0.125 C 
ATOM     18  C   UNL     1      -2.049  -2.174  24.590  0.00  0.00    +0.247 C 
ENDROOT
BRANCH  18  22
ATOM     22  C   UNL     1      -3.209  -1.292  24.771  0.00  0.00    +0.037 A 
ATOM     28  C   UNL     1      -4.261  -1.327  23.855  0.00  0.00    +0.015 A 
ATOM     29  C   UNL     1      -3.259  -0.418  25.857  0.00  0.00    +0.015 A 
ATOM     31  C   UNL     1      -5.363  -0.487  24.026  0.00  0.00    +0.024 A 
ATOM     32  C   UNL     1      -4.361   0.422  26.027  0.00  0.00    +0.024 A 
ATOM     33  C   UNL     1      -5.411   0.387  25.111  0.00  0.00    +0.029 A 
BRANCH  33  12
ATOM     12  N   UNL     1      -6.525   1.234  25.285  0.00  0.00    -0.336 N 
ATOM     37  C   UNL     1      -6.811   1.816  26.581  0.00  0.00    +0.129 C 
ATOM     38  C   UNL     1      -7.396   1.540  24.167  0.00  0.00    +0.129 C 
ENDBRANCH  33  12
ENDBRANCH  18  22
BRANCH   7   1
ATOM      1  S   UNL     1       2.861   0.192  22.627  0.00  0.00    +0.030 S 
ATOM      2  O   UNL     1       3.178   1.527  23.075  0.00  0.00    -0.158 OA
ATOM      3  O   UNL     1       2.506  -0.097  21.260  0.00  0.00    -0.158 OA
ATOM     20  C   UNL     1       4.192  -0.882  23.096  0.00  0.00    +0.215 C 
ENDBRANCH   7   1
BRANCH  13  17
ATOM      4  O   UNL     1       1.895   2.246  23.946  0.00  0.00    -0.274 OA
ATOM      9  N   UNL     1      -0.165   2.392  25.018  0.00  0.00    -0.302 N 
ATOM     17  C   UNL     1       0.806   1.768  24.254  0.00  0.00    +0.234 C 
ATOM     39  H   UNL     1      -1.050   1.919  25.187  0.00  0.00    +0.150 HD
BRANCH   9  19
ATOM     19  C   UNL     1      -0.011   3.721  25.564  0.00  0.00    +0.163 C 
BRANCH  19  24
ATOM      6  O   UNL     1       0.286   4.410  23.252  0.00  0.00    -0.274 OA
ATOM     11  N   UNL     1      -0.602   5.917  24.743  0.00  0.00    -0.328 N 
ATOM     24  C   UNL     1      -0.066   4.694  24.394  0.00  0.00    +0.231 C 
ATOM     41  H   UNL     1      -0.708   6.653  24.052  0.00  0.00    +0.145 HD
ATOM     42  H   UNL     1      -0.909   6.129  25.686  0.00  0.00    +0.145 HD
ENDBRANCH  19  24
BRANCH  19  21
ATOM     21  C   UNL     1      -1.099   4.057  26.589  0.00  0.00    +0.069 C 
BRANCH  21  23
ATOM     10  N   UNL     1      -4.658   4.411  25.710  0.00  0.00    -0.360 N 
ATOM     23  C   UNL     1      -2.485   4.057  25.992  0.00  0.00    -0.020 A 
ATOM     25  C   UNL     1      -2.873   3.480  24.750  0.00  0.00    +0.003 A 
ATOM     26  C   UNL     1      -3.605   4.622  26.559  0.00  0.00    +0.087 A 
ATOM     27  C   UNL     1      -4.240   3.716  24.598  0.00  0.00    +0.047 A 
ATOM     30  C   UNL     1      -2.188   2.779  23.738  0.00  0.00    +0.010 A 
ATOM     34  C   UNL     1      -4.962   3.283  23.479  0.00  0.00    +0.026 A 
ATOM     35  C   UNL     1      -2.897   2.339  22.614  0.00  0.00    +0.001 A 
ATOM     36  C   UNL     1      -4.262   2.588  22.488  0.00  0.00    +0.002 A 
ATOM     40  H   UNL     1      -5.606   4.718  25.876  0.00  0.00    +0.165 HD
ENDBRANCH  21  23
ENDBRANCH  19  21
ENDBRANCH   9  19
ENDBRANCH  13  17
TORSDOF 8
ENDMDL
MODEL 3
REMARK VINA RESULT:      15.2      1.520      2.211
REMARK  Name = 45361709
REMARK  11 active torsions:
REMARK  status: ('A' for Active; 'I' for Inactive)
REMARK    1  A    between atoms: S_1  and  N_7
REMARK    2  A    between atoms: S_1  and  C_20
REMARK    3  A    between atoms: N_9  and  C_19
REMARK    4  A    between atoms: N_12  and  C_33
REMARK    5  A    between atoms: N_12  and  C_37
REMARK    6  A    between atoms: N_12  and  C_38
REMARK    7  A    between atoms: C_13  and  C_17
REMARK    8  A    between atoms: C_18  and  C_22
REMARK    9  A    between atoms: C_19  and  C_21
REMARK   10  A    between atoms: C_19  and  C_24
REMARK   11  A    between atoms: C_21  and  C_23
REMARK                            x       y       z     vdW  Elec       q    Type
REMARK                         _______ _______ _______ _____ _____    ______ ____
ROOT
ATOM      5  O   UNL     1       1.602  -1.739  21.275  0.00  0.00    -0.270 OA
ATOM      7  N   UNL     1      -1.751  -0.001  24.471  0.00  0.00    -0.167 NA
ATOM      8  N   UNL     1       0.460  -0.270  22.687  0.00  0.00    -0.294 N 
ATOM     13  C   UNL     1      -0.376   0.423  24.895  0.00  0.00    +0.182 C 
ATOM     14  C   UNL     1       0.444   0.819  23.668  0.00  0.00    +0.138 C 
ATOM     15  C   UNL     1      -1.697  -1.119  23.470  0.00  0.00    +0.129 C 
ATOM     16  C   UNL     1      -0.868  -0.703  22.262  0.00  0.00    +0.125 C 
ATOM     18  C   UNL     1       1.597  -0.855  22.130  0.00  0.00    +0.247 C 
ENDROOT
BRANCH  18  22
ATOM     22  C   UNL     1       2.912  -0.399  22.599  0.00  0.00    +0.037 A 
ATOM     28  C   UNL     1       3.363   0.881  22.272  0.00  0.00    +0.015 A 
ATOM     29  C   UNL     1       3.710  -1.244  23.369  0.00  0.00    +0.015 A 
ATOM     31  C   UNL     1       4.613   1.313  22.716  0.00  0.00    +0.024 A 
ATOM     32  C   UNL     1       4.961  -0.812  23.812  0.00  0.00    +0.024 A 
ATOM     33  C   UNL     1       5.411   0.467  23.485  0.00  0.00    +0.029 A 
BRANCH  33  12
ATOM     12  N   UNL     1       6.674   0.905  23.935  0.00  0.00    -0.336 N 
ATOM     37  C   UNL     1       7.872   0.159  23.601  0.00  0.00    +0.129 C 
ATOM     38  C   UNL     1       6.792   2.110  24.732  0.00  0.00    +0.129 C 
ENDBRANCH  33  12
ENDBRANCH  18  22
BRANCH   7   1
ATOM      1  S   UNL     1      -2.907  -0.255  25.723  0.00  0.00    +0.030 S 
ATOM      2  O   UNL     1      -3.382   1.033  26.170  0.00  0.00    -0.158 OA
ATOM      3  O   UNL     1      -2.380  -1.240  26.636  0.00  0.00    -0.158 OA
ATOM     20  C   UNL     1      -4.187  -1.017  24.762  0.00  0.00    +0.215 C 
ENDBRANCH   7   1
BRANCH  13  17
ATOM      4  O   UNL     1      -0.245   1.537  26.994  0.00  0.00    -0.274 OA
ATOM      9  N   UNL     1      -0.894   2.743  25.113  0.00  0.00    -0.302 N 
ATOM     17  C   UNL     1      -0.484   1.609  25.792  0.00  0.00    +0.234 C 
ATOM     39  H   UNL     1      -1.032   2.702  24.106  0.00  0.00    +0.150 HD
BRANCH   9  19
ATOM     19  C   UNL     1      -1.098   4.020  25.757  0.00  0.00    +0.163 C 
BRANCH  19  24
ATOM      6  O   UNL     1      -0.822   6.293  24.941  0.00  0.00    -0.274 OA
ATOM     11  N   UNL     1       0.133   4.575  23.751  0.00  0.00    -0.328 N 
ATOM     24  C   UNL     1      -0.613   5.092  24.790  0.00  0.00    +0.231 C 
ATOM     41  H   UNL     1       0.529   5.184  23.042  0.00  0.00    +0.145 HD
ATOM     42  H   UNL     1       0.317   3.582  23.653  0.00  0.00    +0.145 HD
ENDBRANCH  19  24
BRANCH  19  21
ATOM     21  C   UNL     1      -2.567   4.257  26.123  0.00  0.00    +0.069 C 
BRANCH  21  23
ATOM     10  N   UNL     1      -4.445   2.919  23.251  0.00  0.00    -0.360 N 
ATOM     23  C   UNL     1      -3.523   3.619  25.145  0.00  0.00    -0.020 A 
ATOM     25  C   UNL     1      -4.737   2.948  25.462  0.00  0.00    +0.003 A 
ATOM     26  C   UNL     1      -3.371   3.585  23.777  0.00  0.00    +0.087 A 
ATOM     27  C   UNL     1      -5.295   2.518  24.256  0.00  0.00    +0.047 A 
ATOM     30  C   UNL     1      -5.416   2.662  26.663  0.00  0.00    +0.010 A 
ATOM     34  C   UNL     1      -6.504   1.815  24.191  0.00  0.00    +0.026 A 
ATOM     35  C   UNL     1      -6.626   1.960  26.614  0.00  0.00    +0.001 A 
ATOM     36  C   UNL     1      -7.160   1.544  25.395  0.00  0.00    +0.002 A 
ATOM     40  H   UNL     1      -4.594   2.746  22.267  0.00  0.00    +0.165 HD
ENDBRANCH  21  23
ENDBRANCH  19  21
ENDBRANCH   9  19
ENDBRANCH  13  17
TORSDOF 8
ENDMDL
MODEL 4
REMARK VINA RESULT:      15.3      2.598      4.432
REMARK  Name = 45361709
REMARK  11 active torsions:
REMARK  status: ('A' for Active; 'I' for Inactive)
REMARK    1  A    between atoms: S_1  and  N_7
REMARK    2  A    between atoms: S_1  and  C_20
REMARK    3  A    between atoms: N_9  and  C_19
REMARK    4  A    between atoms: N_12  and  C_33
REMARK    5  A    between atoms: N_12  and  C_37
REMARK    6  A    between atoms: N_12  and  C_38
REMARK    7  A    between atoms: C_13  and  C_17
REMARK    8  A    between atoms: C_18  and  C_22
REMARK    9  A    between atoms: C_19  and  C_21
REMARK   10  A    between atoms: C_19  and  C_24
REMARK   11  A    between atoms: C_21  and  C_23
REMARK                            x       y       z     vdW  Elec       q    Type
REMARK                         _______ _______ _______ _____ _____    ______ ____
ROOT
ATOM      5  O   UNL     1      -1.504  -3.050  25.004  0.00  0.00    -0.270 OA
ATOM      7  N   UNL     1      -4.727   0.702  24.895  0.00  0.00    -0.167 NA
ATOM      8  N   UNL     1      -2.647  -1.149  24.271  0.00  0.00    -0.294 N 
ATOM     13  C   UNL     1      -3.361   1.193  24.514  0.00  0.00    +0.182 C 
ATOM     14  C   UNL     1      -2.674   0.163  23.618  0.00  0.00    +0.138 C 
ATOM     15  C   UNL     1      -4.662  -0.641  25.563  0.00  0.00    +0.129 C 
ATOM     16  C   UNL     1      -3.965  -1.645  24.655  0.00  0.00    +0.125 C 
ATOM     18  C   UNL     1      -1.513  -1.930  24.494  0.00  0.00    +0.247 C 
ENDROOT
BRANCH  18  22
ATOM     22  C   UNL     1      -0.207  -1.384  24.106  0.00  0.00    +0.037 A 
ATOM     28  C   UNL     1      -0.136  -0.317  23.209  0.00  0.00    +0.015 A 
ATOM     29  C   UNL     1       0.963  -1.931  24.632  0.00  0.00    +0.015 A 
ATOM     31  C   UNL     1       1.105   0.201  22.838  0.00  0.00    +0.024 A 
ATOM     32  C   UNL     1       2.204  -1.413  24.261  0.00  0.00    +0.024 A 
ATOM     33  C   UNL     1       2.274  -0.347  23.364  0.00  0.00    +0.029 A 
BRANCH  33  12
ATOM     12  N   UNL     1       3.529   0.178  22.991  0.00  0.00    -0.336 N 
ATOM     37  C   UNL     1       4.749  -0.356  23.564  0.00  0.00    +0.129 C 
ATOM     38  C   UNL     1       3.616   1.255  22.024  0.00  0.00    +0.129 C 
ENDBRANCH  33  12
ENDBRANCH  18  22
BRANCH   7   1
ATOM      1  S   UNL     1      -5.758   1.822  25.702  0.00  0.00    +0.030 S 
ATOM      2  O   UNL     1      -6.715   2.328  24.746  0.00  0.00    -0.158 OA
ATOM      3  O   UNL     1      -4.940   2.695  26.508  0.00  0.00    -0.158 OA
ATOM     20  C   UNL     1      -6.597   0.692  26.781  0.00  0.00    +0.215 C 
ENDBRANCH   7   1
BRANCH  13  17
ATOM      4  O   UNL     1      -3.230   2.536  22.553  0.00  0.00    -0.274 OA
ATOM      9  N   UNL     1      -3.915   3.516  24.549  0.00  0.00    -0.302 N 
ATOM     17  C   UNL     1      -3.494   2.467  23.750  0.00  0.00    +0.234 C 
ATOM     39  H   UNL     1      -4.140   3.342  25.526  0.00  0.00    +0.150 HD
BRANCH   9  19
ATOM     19  C   UNL     1      -4.100   4.861  24.057  0.00  0.00    +0.163 C 
BRANCH  19  24
ATOM      6  O   UNL     1      -6.165   6.126  24.263  0.00  0.00    -0.274 OA
ATOM     11  N   UNL     1      -5.312   5.101  26.134  0.00  0.00    -0.328 N 
ATOM     24  C   UNL     1      -5.291   5.451  24.800  0.00  0.00    +0.231 C 
ATOM     41  H   UNL     1      -6.062   5.417  26.742  0.00  0.00    +0.145 HD
ATOM     42  H   UNL     1      -4.596   4.522  26.559  0.00  0.00    +0.145 HD
ENDBRANCH  19  24
BRANCH  19  21
ATOM     21  C   UNL     1      -2.856   5.732  24.266  0.00  0.00    +0.069 C 
BRANCH  21  23
ATOM     10  N   UNL     1       0.395   4.095  23.704  0.00  0.00    -0.360 N 
ATOM     23  C   UNL     1      -1.578   4.930  24.285  0.00  0.00    -0.020 A 
ATOM     25  C   UNL     1      -1.169   4.010  25.291  0.00  0.00    +0.003 A 
ATOM     26  C   UNL     1      -0.595   4.959  23.321  0.00  0.00    +0.087 A 
ATOM     27  C   UNL     1       0.072   3.502  24.903  0.00  0.00    +0.047 A 
ATOM     30  C   UNL     1      -1.737   3.563  26.501  0.00  0.00    +0.010 A 
ATOM     34  C   UNL     1       0.776   2.563  25.666  0.00  0.00    +0.026 A 
ATOM     35  C   UNL     1      -1.045   2.624  27.274  0.00  0.00    +0.001 A 
ATOM     36  C   UNL     1       0.193   2.133  26.861  0.00  0.00    +0.002 A 
ATOM     40  H   UNL     1       1.242   3.917  23.182  0.00  0.00    +0.165 HD
ENDBRANCH  21  23
ENDBRANCH  19  21
ENDBRANCH   9  19
ENDBRANCH  13  17
TORSDOF 8
ENDMDL
