MODEL 1
REMARK VINA RESULT:      -2.4      0.000      0.000
REMARK  Name = 38030412
REMARK  13 active torsions:
REMARK  status: ('A' for Active; 'I' for Inactive)
REMARK    1  A    between atoms: O_2  and  C_23
REMARK    2  A    between atoms: O_2  and  C_31
REMARK    3  A    between atoms: N_3  and  C_14
REMARK    4  A    between atoms: N_3  and  C_20
REMARK    5  A    between atoms: C_7  and  C_11
REMARK    6  A    between atoms: C_8  and  C_14
REMARK    7  A    between atoms: C_10  and  C_15
REMARK    8  A    between atoms: C_11  and  C_16
REMARK    9  A    between atoms: C_11  and  C_17
REMARK   10  A    between atoms: C_12  and  C_18
REMARK   11  A    between atoms: C_15  and  C_19
REMARK   12  A    between atoms: C_20  and  C_21
REMARK   13  A    between atoms: C_22  and  C_25
REMARK                            x       y       z     vdW  Elec       q    Type
REMARK                         _______ _______ _______ _____ _____    ______ ____
ROOT
ATOM      7  C   UNL     1      -2.527   3.208  25.021  0.00  0.00    +0.000 C 
ATOM      8  C   UNL     1      -3.802   3.450  24.177  0.00  0.00    +0.029 C 
ATOM      9  C   UNL     1      -1.277   3.257  24.130  0.00  0.00    +0.012 C 
ATOM     10  C   UNL     1      -1.322   2.206  23.005  0.00  0.00    +0.024 C 
ATOM     12  C   UNL     1      -2.661   2.201  22.295  0.00  0.00    -0.073 C 
ATOM     13  C   UNL     1      -3.755   2.773  22.827  0.00  0.00    -0.023 C 
ATOM     18  C   UNL     1      -2.703   1.561  20.934  0.00  0.00    +0.039 C 
ENDROOT
BRANCH   7  11
ATOM     11  C   UNL     1      -2.395   4.229  26.157  0.00  0.00    -0.013 C 
ATOM     16  C   UNL     1      -3.663   4.248  27.004  0.00  0.00    +0.007 C 
ATOM     17  C   UNL     1      -2.099   5.616  25.594  0.00  0.00    +0.007 C 
ENDBRANCH   7  11
BRANCH   8  14
ATOM     14  C   UNL     1      -5.058   2.998  24.931  0.00  0.00    +0.089 C 
BRANCH  14   3
ATOM      3  N   UNL     1      -5.264   1.568  24.773  0.00  0.00    -0.311 NA
ATOM     34  H   UNL     1      -6.236   1.330  24.970  0.00  0.00    +0.122 HD
BRANCH   3  20
ATOM     20  C   UNL     1      -4.399   0.811  25.669  0.00  0.00    +0.120 C 
BRANCH  20  21
ATOM     21  C   UNL     1      -4.010  -0.520  25.081  0.00  0.00    +0.008 A 
ATOM     23  C   UNL     1      -2.891  -1.207  25.549  0.00  0.00    +0.124 A 
ATOM     24  C   UNL     1      -4.783  -1.064  24.056  0.00  0.00    +0.008 A 
ATOM     26  C   UNL     1      -2.544  -2.438  24.993  0.00  0.00    +0.046 A 
ATOM     27  C   UNL     1      -4.437  -2.295  23.499  0.00  0.00    +0.001 A 
ATOM     28  C   UNL     1      -3.317  -2.983  23.969  0.00  0.00    +0.004 A 
BRANCH  23   2
ATOM      2  O   UNL     1      -2.124  -0.690  26.550  0.00  0.00    -0.495 OA
ATOM     31  C   UNL     1      -0.709  -0.770  26.389  0.00  0.00    +0.277 C 
ENDBRANCH  23   2
ENDBRANCH  20  21
ENDBRANCH   3  20
ENDBRANCH  14   3
ENDBRANCH   8  14
BRANCH  10  15
ATOM     15  C   UNL     1      -0.979   0.811  23.537  0.00  0.00    +0.105 C 
BRANCH  15  19
ATOM      1  O   UNL     1       1.418   0.350  23.605  0.00  0.00    -0.420 OA
ATOM      4  N   UNL     1       0.416  -0.288  21.710  0.00  0.00    -0.112 NA
ATOM      5  N   UNL     1       1.757  -0.607  21.612  0.00  0.00    -0.107 NA
ATOM     19  C   UNL     1       0.263   0.267  22.889  0.00  0.00    +0.218 A 
ATOM     22  C   UNL     1       2.303  -0.216  22.740  0.00  0.00    +0.250 A 
BRANCH  22  25
ATOM      6  N   UNL     1       5.429  -1.592  24.206  0.00  0.00    -0.263 NA
ATOM     25  C   UNL     1       3.662  -0.292  23.193  0.00  0.00    +0.057 A 
ATOM     29  C   UNL     1       4.518   0.798  23.079  0.00  0.00    +0.016 A 
ATOM     30  C   UNL     1       4.162  -1.454  23.759  0.00  0.00    +0.124 A 
ATOM     32  C   UNL     1       5.830   0.693  23.528  0.00  0.00    +0.020 A 
ATOM     33  C   UNL     1       6.233  -0.512  24.079  0.00  0.00    +0.111 A 
ENDBRANCH  22  25
ENDBRANCH  15  19
ENDBRANCH  10  15
TORSDOF 9
ENDMDL
MODEL 2
REMARK VINA RESULT:      -1.6      1.364      4.479
REMARK  Name = 38030412
REMARK  13 active torsions:
REMARK  status: ('A' for Active; 'I' for Inactive)
REMARK    1  A    between atoms: O_2  and  C_23
REMARK    2  A    between atoms: O_2  and  C_31
REMARK    3  A    between atoms: N_3  and  C_14
REMARK    4  A    between atoms: N_3  and  C_20
REMARK    5  A    between atoms: C_7  and  C_11
REMARK    6  A    between atoms: C_8  and  C_14
REMARK    7  A    between atoms: C_10  and  C_15
REMARK    8  A    between atoms: C_11  and  C_16
REMARK    9  A    between atoms: C_11  and  C_17
REMARK   10  A    between atoms: C_12  and  C_18
REMARK   11  A    between atoms: C_15  and  C_19
REMARK   12  A    between atoms: C_20  and  C_21
REMARK   13  A    between atoms: C_22  and  C_25
REMARK                            x       y       z     vdW  Elec       q    Type
REMARK                         _______ _______ _______ _____ _____    ______ ____
ROOT
ATOM      7  C   UNL     1      -3.300  -1.318  24.526  0.00  0.00    +0.000 C 
ATOM      8  C   UNL     1      -3.686  -0.465  25.759  0.00  0.00    +0.029 C 
ATOM      9  C   UNL     1      -1.803  -1.657  24.555  0.00  0.00    +0.012 C 
ATOM     10  C   UNL     1      -0.920  -0.395  24.570  0.00  0.00    +0.024 C 
ATOM     12  C   UNL     1      -1.405   0.619  25.586  0.00  0.00    -0.073 C 
ATOM     13  C   UNL     1      -2.639   0.564  26.117  0.00  0.00    -0.023 C 
ATOM     18  C   UNL     1      -0.421   1.673  26.014  0.00  0.00    +0.039 C 
ENDROOT
BRANCH   7  11
ATOM     11  C   UNL     1      -4.123  -2.609  24.447  0.00  0.00    -0.013 C 
ATOM     16  C   UNL     1      -3.251  -3.816  24.777  0.00  0.00    +0.007 C 
ATOM     17  C   UNL     1      -4.751  -2.757  23.065  0.00  0.00    +0.007 C 
ENDBRANCH   7  11
BRANCH   8  14
ATOM     14  C   UNL     1      -5.036   0.231  25.551  0.00  0.00    +0.089 C 
BRANCH  14   3
ATOM      3  N   UNL     1      -4.993   1.092  24.381  0.00  0.00    -0.311 NA
ATOM     34  H   UNL     1      -4.065   1.066  23.959  0.00  0.00    +0.122 HD
BRANCH   3  20
ATOM     20  C   UNL     1      -5.317   2.470  24.732  0.00  0.00    +0.120 C 
BRANCH  20  21
ATOM     21  C   UNL     1      -4.079   3.306  24.919  0.00  0.00    +0.008 A 
ATOM     23  C   UNL     1      -3.226   3.568  23.847  0.00  0.00    +0.124 A 
ATOM     24  C   UNL     1      -3.789   3.821  26.182  0.00  0.00    +0.008 A 
ATOM     26  C   UNL     1      -2.083   4.344  24.038  0.00  0.00    +0.046 A 
ATOM     27  C   UNL     1      -2.646   4.598  26.373  0.00  0.00    +0.001 A 
ATOM     28  C   UNL     1      -1.793   4.859  25.300  0.00  0.00    +0.004 A 
BRANCH  23   2
ATOM      2  O   UNL     1      -3.494   3.072  22.606  0.00  0.00    -0.495 OA
ATOM     31  C   UNL     1      -2.504   2.231  22.017  0.00  0.00    +0.277 C 
ENDBRANCH  23   2
ENDBRANCH  20  21
ENDBRANCH   3  20
ENDBRANCH  14   3
ENDBRANCH   8  14
BRANCH  10  15
ATOM     15  C   UNL     1      -0.826   0.231  23.174  0.00  0.00    +0.105 C 
BRANCH  15  19
ATOM      1  O   UNL     1       1.593   0.006  23.413  0.00  0.00    -0.420 OA
ATOM      4  N   UNL     1       0.858  -0.183  21.309  0.00  0.00    -0.112 NA
ATOM      5  N   UNL     1       2.232  -0.330  21.296  0.00  0.00    -0.107 NA
ATOM     19  C   UNL     1       0.529   0.010  22.563  0.00  0.00    +0.218 A 
ATOM     22  C   UNL     1       2.618  -0.212  22.545  0.00  0.00    +0.250 A 
BRANCH  22  25
ATOM      6  N   UNL     1       5.610  -1.565  24.287  0.00  0.00    -0.263 NA
ATOM     25  C   UNL     1       3.928  -0.275  23.125  0.00  0.00    +0.057 A 
ATOM     29  C   UNL     1       4.776   0.828  23.107  0.00  0.00    +0.016 A 
ATOM     30  C   UNL     1       4.389  -1.438  23.723  0.00  0.00    +0.124 A 
ATOM     32  C   UNL     1       6.040   0.734  23.679  0.00  0.00    +0.020 A 
ATOM     33  C   UNL     1       6.406  -0.473  24.251  0.00  0.00    +0.111 A 
ENDBRANCH  22  25
ENDBRANCH  15  19
ENDBRANCH  10  15
TORSDOF 9
ENDMDL
MODEL 3
REMARK VINA RESULT:      -0.3      1.368      3.982
REMARK  Name = 38030412
REMARK  13 active torsions:
REMARK  status: ('A' for Active; 'I' for Inactive)
REMARK    1  A    between atoms: O_2  and  C_23
REMARK    2  A    between atoms: O_2  and  C_31
REMARK    3  A    between atoms: N_3  and  C_14
REMARK    4  A    between atoms: N_3  and  C_20
REMARK    5  A    between atoms: C_7  and  C_11
REMARK    6  A    between atoms: C_8  and  C_14
REMARK    7  A    between atoms: C_10  and  C_15
REMARK    8  A    between atoms: C_11  and  C_16
REMARK    9  A    between atoms: C_11  and  C_17
REMARK   10  A    between atoms: C_12  and  C_18
REMARK   11  A    between atoms: C_15  and  C_19
REMARK   12  A    between atoms: C_20  and  C_21
REMARK   13  A    between atoms: C_22  and  C_25
REMARK                            x       y       z     vdW  Elec       q    Type
REMARK                         _______ _______ _______ _____ _____    ______ ____
ROOT
ATOM      7  C   UNL     1      -3.452   1.690  23.689  0.00  0.00    +0.000 C 
ATOM      8  C   UNL     1      -4.705   1.549  24.587  0.00  0.00    +0.029 C 
ATOM      9  C   UNL     1      -2.991   0.312  23.191  0.00  0.00    +0.012 C 
ATOM     10  C   UNL     1      -2.654  -0.643  24.351  0.00  0.00    +0.024 C 
ATOM     12  C   UNL     1      -3.729  -0.633  25.419  0.00  0.00    -0.073 C 
ATOM     13  C   UNL     1      -4.645   0.347  25.501  0.00  0.00    -0.023 C 
ATOM     18  C   UNL     1      -3.756  -1.803  26.364  0.00  0.00    +0.039 C 
ENDROOT
BRANCH   7  11
ATOM     11  C   UNL     1      -3.710   2.614  22.493  0.00  0.00    -0.013 C 
ATOM     16  C   UNL     1      -2.537   2.563  21.520  0.00  0.00    +0.007 C 
ATOM     17  C   UNL     1      -3.957   4.042  22.968  0.00  0.00    +0.007 C 
ENDBRANCH   7  11
BRANCH   8  14
ATOM     14  C   UNL     1      -4.932   2.814  25.423  0.00  0.00    +0.089 C 
BRANCH  14   3
ATOM      3  N   UNL     1      -4.019   2.853  26.553  0.00  0.00    -0.311 NA
ATOM     34  H   UNL     1      -4.504   2.575  27.406  0.00  0.00    +0.122 HD
BRANCH   3  20
ATOM     20  C   UNL     1      -3.466   4.190  26.735  0.00  0.00    +0.120 C 
BRANCH  20  21
ATOM     21  C   UNL     1      -2.307   4.448  25.809  0.00  0.00    +0.008 A 
ATOM     23  C   UNL     1      -1.263   3.529  25.700  0.00  0.00    +0.124 A 
ATOM     24  C   UNL     1      -2.283   5.622  25.057  0.00  0.00    +0.008 A 
ATOM     26  C   UNL     1      -0.197   3.784  24.839  0.00  0.00    +0.046 A 
ATOM     27  C   UNL     1      -1.217   5.877  24.196  0.00  0.00    +0.001 A 
ATOM     28  C   UNL     1      -0.173   4.957  24.086  0.00  0.00    +0.004 A 
BRANCH  23   2
ATOM      2  O   UNL     1      -1.270   2.377  26.429  0.00  0.00    -0.495 OA
ATOM     31  C   UNL     1      -0.070   2.043  27.123  0.00  0.00    +0.277 C 
ENDBRANCH  23   2
ENDBRANCH  20  21
ENDBRANCH   3  20
ENDBRANCH  14   3
ENDBRANCH   8  14
BRANCH  10  15
ATOM     15  C   UNL     1      -1.282  -0.320  24.953  0.00  0.00    +0.105 C 
BRANCH  15  19
ATOM      1  O   UNL     1       1.080  -0.280  24.336  0.00  0.00    -0.420 OA
ATOM      4  N   UNL     1      -0.322  -0.321  22.594  0.00  0.00    -0.112 NA
ATOM      5  N   UNL     1       0.969  -0.300  22.102  0.00  0.00    -0.107 NA
ATOM     19  C   UNL     1      -0.210  -0.309  23.900  0.00  0.00    +0.218 A 
ATOM     22  C   UNL     1       1.754  -0.276  23.153  0.00  0.00    +0.250 A 
BRANCH  22  25
ATOM      6  N   UNL     1       5.237  -1.376  23.847  0.00  0.00    -0.263 NA
ATOM     25  C   UNL     1       3.185  -0.247  23.248  0.00  0.00    +0.057 A 
ATOM     29  C   UNL     1       3.908   0.876  22.857  0.00  0.00    +0.016 A 
ATOM     30  C   UNL     1       3.891  -1.337  23.732  0.00  0.00    +0.124 A 
ATOM     32  C   UNL     1       5.294   0.873  22.961  0.00  0.00    +0.020 A 
ATOM     33  C   UNL     1       5.905  -0.266  23.458  0.00  0.00    +0.111 A 
ENDBRANCH  22  25
ENDBRANCH  15  19
ENDBRANCH  10  15
TORSDOF 9
ENDMDL
MODEL 4
REMARK VINA RESULT:       1.3      1.598      6.886
REMARK  Name = 38030412
REMARK  13 active torsions:
REMARK  status: ('A' for Active; 'I' for Inactive)
REMARK    1  A    between atoms: O_2  and  C_23
REMARK    2  A    between atoms: O_2  and  C_31
REMARK    3  A    between atoms: N_3  and  C_14
REMARK    4  A    between atoms: N_3  and  C_20
REMARK    5  A    between atoms: C_7  and  C_11
REMARK    6  A    between atoms: C_8  and  C_14
REMARK    7  A    between atoms: C_10  and  C_15
REMARK    8  A    between atoms: C_11  and  C_16
REMARK    9  A    between atoms: C_11  and  C_17
REMARK   10  A    between atoms: C_12  and  C_18
REMARK   11  A    between atoms: C_15  and  C_19
REMARK   12  A    between atoms: C_20  and  C_21
REMARK   13  A    between atoms: C_22  and  C_25
REMARK                            x       y       z     vdW  Elec       q    Type
REMARK                         _______ _______ _______ _____ _____    ______ ____
ROOT
ATOM      7  C   UNL     1      -1.822   2.419  23.606  0.00  0.00    +0.000 C 
ATOM      8  C   UNL     1      -0.505   1.630  23.811  0.00  0.00    +0.029 C 
ATOM      9  C   UNL     1      -1.674   3.855  24.130  0.00  0.00    +0.012 C 
ATOM     10  C   UNL     1      -1.309   3.895  25.626  0.00  0.00    +0.024 C 
ATOM     12  C   UNL     1      -0.186   2.934  25.957  0.00  0.00    -0.073 C 
ATOM     13  C   UNL     1       0.169   1.936  25.128  0.00  0.00    -0.023 C 
ATOM     18  C   UNL     1       0.554   3.174  27.245  0.00  0.00    +0.039 C 
ENDROOT
BRANCH   7  11
ATOM     11  C   UNL     1      -2.246   2.445  22.134  0.00  0.00    -0.013 C 
ATOM     16  C   UNL     1      -3.542   3.232  21.968  0.00  0.00    +0.007 C 
ATOM     17  C   UNL     1      -2.403   1.025  21.600  0.00  0.00    +0.007 C 
ENDBRANCH   7  11
BRANCH   8  14
ATOM     14  C   UNL     1      -0.741   0.120  23.697  0.00  0.00    +0.089 C 
BRANCH  14   3
ATOM      3  N   UNL     1       0.509  -0.607  23.840  0.00  0.00    -0.311 NA
ATOM     34  H   UNL     1       0.960  -0.360  24.721  0.00  0.00    +0.122 HD
BRANCH   3  20
ATOM     20  C   UNL     1       1.418  -0.309  22.741  0.00  0.00    +0.120 C 
BRANCH  20  21
ATOM     21  C   UNL     1       2.860  -0.404  23.164  0.00  0.00    +0.008 A 
ATOM     23  C   UNL     1       3.682   0.722  23.153  0.00  0.00    +0.124 A 
ATOM     24  C   UNL     1       3.371  -1.637  23.569  0.00  0.00    +0.008 A 
ATOM     26  C   UNL     1       5.016   0.616  23.548  0.00  0.00    +0.046 A 
ATOM     27  C   UNL     1       4.705  -1.743  23.964  0.00  0.00    +0.001 A 
ATOM     28  C   UNL     1       5.528  -0.616  23.953  0.00  0.00    +0.004 A 
BRANCH  23   2
ATOM      2  O   UNL     1       3.199   1.934  22.760  0.00  0.00    -0.495 OA
ATOM     31  C   UNL     1       4.057   2.743  21.958  0.00  0.00    +0.277 C 
ENDBRANCH  23   2
ENDBRANCH  20  21
ENDBRANCH   3  20
ENDBRANCH  14   3
ENDBRANCH   8  14
BRANCH  10  15
ATOM     15  C   UNL     1      -2.538   3.624  26.502  0.00  0.00    +0.105 C 
BRANCH  15  19
ATOM      1  O   UNL     1      -3.037   1.350  25.767  0.00  0.00    -0.420 OA
ATOM      4  N   UNL     1      -4.660   2.828  25.339  0.00  0.00    -0.112 NA
ATOM      5  N   UNL     1      -5.074   1.594  24.874  0.00  0.00    -0.107 NA
ATOM     19  C   UNL     1      -3.468   2.639  25.852  0.00  0.00    +0.218 A 
ATOM     22  C   UNL     1      -4.095   0.762  25.144  0.00  0.00    +0.250 A 
BRANCH  22  25
ATOM      6  N   UNL     1      -3.229  -2.819  25.640  0.00  0.00    -0.263 NA
ATOM     25  C   UNL     1      -3.971  -0.644  24.890  0.00  0.00    +0.057 A 
ATOM     29  C   UNL     1      -4.441  -1.204  23.706  0.00  0.00    +0.016 A 
ATOM     30  C   UNL     1      -3.378  -1.488  25.816  0.00  0.00    +0.124 A 
ATOM     32  C   UNL     1      -4.306  -2.571  23.490  0.00  0.00    +0.020 A 
ATOM     33  C   UNL     1      -3.698  -3.327  24.477  0.00  0.00    +0.111 A 
ENDBRANCH  22  25
ENDBRANCH  15  19
ENDBRANCH  10  15
TORSDOF 9
ENDMDL
