MODEL 1
REMARK VINA RESULT:       4.7      0.000      0.000
REMARK  Name = 40533450
REMARK  4 active torsions:
REMARK  status: ('A' for Active; 'I' for Inactive)
REMARK    1  A    between atoms: O_3  and  C_27
REMARK    2  A    between atoms: O_3  and  C_30
REMARK    3  A    between atoms: C_16  and  C_19
REMARK    4  A    between atoms: C_17  and  C_20
REMARK                            x       y       z     vdW  Elec       q    Type
REMARK                         _______ _______ _______ _____ _____    ______ ____
ROOT
ATOM      1  O   UNL     1      -1.919   3.977  27.647  0.00  0.00    -0.267 OA
ATOM      2  O   UNL     1      -5.269   0.417  26.178  0.00  0.00    -0.270 OA
ATOM      4  N   UNL     1      -4.511   1.465  24.229  0.00  0.00    -0.297 N 
ATOM      5  N   UNL     1      -2.360   3.450  25.418  0.00  0.00    -0.311 N 
ATOM      7  C   UNL     1      -4.614   3.949  24.304  0.00  0.00    +0.027 C 
ATOM      8  C   UNL     1      -2.830   2.836  23.021  0.00  0.00    +0.054 C 
ATOM      9  C   UNL     1      -3.802   4.016  23.014  0.00  0.00    +0.018 C 
ATOM     10  C   UNL     1      -5.393   2.623  24.378  0.00  0.00    +0.113 C 
ATOM     11  C   UNL     1      -3.663   4.128  25.494  0.00  0.00    +0.130 C 
ATOM     12  C   UNL     1      -3.622   1.513  23.056  0.00  0.00    +0.117 C 
ATOM     13  C   UNL     1      -1.900   2.902  24.218  0.00  0.00    +0.027 A 
ATOM     14  C   UNL     1      -0.659   2.397  24.138  0.00  0.00    +0.022 A 
ATOM     15  C   UNL     1      -1.564   3.474  26.579  0.00  0.00    +0.259 A 
ATOM     16  C   UNL     1      -4.527   0.459  25.197  0.00  0.00    +0.247 C 
ATOM     17  C   UNL     1      -0.195   2.858  26.472  0.00  0.00    +0.048 A 
ATOM     18  C   UNL     1       0.202   2.372  25.286  0.00  0.00    +0.015 A 
ENDROOT
BRANCH  17  20
ATOM      6  N   UNL     1       2.916   2.994  28.567  0.00  0.00    -0.263 NA
ATOM     20  C   UNL     1       0.694   2.768  27.641  0.00  0.00    +0.005 A 
ATOM     23  C   UNL     1       0.206   2.391  28.887  0.00  0.00    +0.011 A 
ATOM     24  C   UNL     1       2.046   3.057  27.535  0.00  0.00    +0.119 A 
ATOM     28  C   UNL     1       1.071   2.316  29.974  0.00  0.00    +0.020 A 
ATOM     29  C   UNL     1       2.404   2.625  29.763  0.00  0.00    +0.111 A 
ENDBRANCH  17  20
BRANCH  16  19
ATOM     19  C   UNL     1      -3.568  -0.643  25.064  0.00  0.00    +0.037 A 
ATOM     21  C   UNL     1      -3.955  -1.835  24.454  0.00  0.00    +0.016 A 
ATOM     22  C   UNL     1      -2.267  -0.496  25.546  0.00  0.00    +0.016 A 
ATOM     25  C   UNL     1      -3.043  -2.882  24.327  0.00  0.00    +0.046 A 
ATOM     26  C   UNL     1      -1.354  -1.543  25.419  0.00  0.00    +0.046 A 
ATOM     27  C   UNL     1      -1.743  -2.737  24.810  0.00  0.00    +0.120 A 
BRANCH  27   3
ATOM      3  O   UNL     1      -0.852  -3.758  24.687  0.00  0.00    -0.495 OA
ATOM     30  C   UNL     1       0.414  -3.595  25.327  0.00  0.00    +0.277 C 
ENDBRANCH  27   3
ENDBRANCH  16  19
TORSDOF 3
ENDMDL
MODEL 2
REMARK VINA RESULT:       8.5      2.840      5.921
REMARK  Name = 40533450
REMARK  4 active torsions:
REMARK  status: ('A' for Active; 'I' for Inactive)
REMARK    1  A    between atoms: O_3  and  C_27
REMARK    2  A    between atoms: O_3  and  C_30
REMARK    3  A    between atoms: C_16  and  C_19
REMARK    4  A    between atoms: C_17  and  C_20
REMARK                            x       y       z     vdW  Elec       q    Type
REMARK                         _______ _______ _______ _____ _____    ______ ____
ROOT
ATOM      1  O   UNL     1       0.194  -1.950  22.481  0.00  0.00    -0.267 OA
ATOM      2  O   UNL     1      -4.149   0.715  22.196  0.00  0.00    -0.270 OA
ATOM      4  N   UNL     1      -4.160  -0.358  24.275  0.00  0.00    -0.297 N 
ATOM      5  N   UNL     1      -1.325  -1.751  24.240  0.00  0.00    -0.311 N 
ATOM      7  C   UNL     1      -3.665  -2.793  24.165  0.00  0.00    +0.027 C 
ATOM      8  C   UNL     1      -2.964  -1.490  26.134  0.00  0.00    +0.054 C 
ATOM      9  C   UNL     1      -3.544  -2.831  25.685  0.00  0.00    +0.018 C 
ATOM     10  C   UNL     1      -4.594  -1.645  23.731  0.00  0.00    +0.113 C 
ATOM     11  C   UNL     1      -2.261  -2.659  23.562  0.00  0.00    +0.130 C 
ATOM     12  C   UNL     1      -3.923  -0.351  25.728  0.00  0.00    +0.117 C 
ATOM     13  C   UNL     1      -1.601  -1.249  25.515  0.00  0.00    +0.027 A 
ATOM     14  C   UNL     1      -0.681  -0.522  26.168  0.00  0.00    +0.022 A 
ATOM     15  C   UNL     1      -0.101  -1.499  23.590  0.00  0.00    +0.259 A 
ATOM     16  C   UNL     1      -3.952   0.719  23.411  0.00  0.00    +0.247 C 
ATOM     17  C   UNL     1       0.891  -0.641  24.327  0.00  0.00    +0.048 A 
ATOM     18  C   UNL     1       0.582  -0.212  25.559  0.00  0.00    +0.015 A 
ENDROOT
BRANCH  17  20
ATOM      6  N   UNL     1       4.475  -0.816  23.223  0.00  0.00    -0.263 NA
ATOM     20  C   UNL     1       2.173  -0.259  23.713  0.00  0.00    +0.005 A 
ATOM     23  C   UNL     1       2.322   0.960  23.061  0.00  0.00    +0.011 A 
ATOM     24  C   UNL     1       3.271  -1.104  23.766  0.00  0.00    +0.119 A 
ATOM     28  C   UNL     1       3.546   1.292  22.490  0.00  0.00    +0.020 A 
ATOM     29  C   UNL     1       4.581   0.378  22.598  0.00  0.00    +0.111 A 
ENDBRANCH  17  20
BRANCH  16  19
ATOM     19  C   UNL     1      -3.431   1.968  23.978  0.00  0.00    +0.037 A 
ATOM     21  C   UNL     1      -2.055   2.184  24.039  0.00  0.00    +0.016 A 
ATOM     22  C   UNL     1      -4.312   2.938  24.456  0.00  0.00    +0.016 A 
ATOM     25  C   UNL     1      -1.558   3.371  24.578  0.00  0.00    +0.046 A 
ATOM     26  C   UNL     1      -3.816   4.125  24.995  0.00  0.00    +0.046 A 
ATOM     27  C   UNL     1      -2.439   4.341  25.057  0.00  0.00    +0.120 A 
BRANCH  27   3
ATOM      3  O   UNL     1      -1.956   5.499  25.583  0.00  0.00    -0.495 OA
ATOM     30  C   UNL     1      -0.824   6.083  24.938  0.00  0.00    +0.277 C 
ENDBRANCH  27   3
ENDBRANCH  16  19
TORSDOF 3
ENDMDL
