MODEL 1
REMARK VINA RESULT:      -5.1      0.000      0.000
REMARK  Name = 38027153
REMARK  14 active torsions:
REMARK  status: ('A' for Active; 'I' for Inactive)
REMARK    1  A    between atoms: O_3  and  C_27
REMARK    2  A    between atoms: N_4  and  C_14
REMARK    3  A    between atoms: N_5  and  C_21
REMARK    4  A    between atoms: N_5  and  C_22
REMARK    5  A    between atoms: N_6  and  C_24
REMARK    6  A    between atoms: C_7  and  C_11
REMARK    7  A    between atoms: C_8  and  C_14
REMARK    8  A    between atoms: C_10  and  C_15
REMARK    9  A    between atoms: C_11  and  C_16
REMARK   10  A    between atoms: C_11  and  C_17
REMARK   11  A    between atoms: C_12  and  C_18
REMARK   12  A    between atoms: C_15  and  C_19
REMARK   13  A    between atoms: C_21  and  C_23
REMARK   14  A    between atoms: C_24  and  C_27
REMARK                            x       y       z     vdW  Elec       q    Type
REMARK                         _______ _______ _______ _____ _____    ______ ____
ROOT
ATOM      7  C   UNL     1      -1.129   0.511  24.487  0.00  0.00    +0.000 C 
ATOM      8  C   UNL     1      -0.387  -0.836  24.302  0.00  0.00    +0.032 C 
ATOM      9  C   UNL     1      -2.181   0.396  25.602  0.00  0.00    +0.012 C 
ATOM     10  C   UNL     1      -3.224  -0.700  25.307  0.00  0.00    +0.023 C 
ATOM     12  C   UNL     1      -2.572  -1.990  24.855  0.00  0.00    -0.073 C 
ATOM     13  C   UNL     1      -1.299  -2.035  24.423  0.00  0.00    -0.022 C 
ATOM     18  C   UNL     1      -3.403  -3.240  24.956  0.00  0.00    +0.039 C 
ENDROOT
BRANCH   7  11
ATOM     11  C   UNL     1      -0.161   1.654  24.804  0.00  0.00    -0.013 C 
ATOM     16  C   UNL     1      -0.406   2.835  23.869  0.00  0.00    +0.007 C 
ATOM     17  C   UNL     1      -0.301   2.081  26.262  0.00  0.00    +0.007 C 
ENDBRANCH   7  11
BRANCH   8  14
ATOM     14  C   UNL     1       0.344  -0.885  22.956  0.00  0.00    +0.113 C 
BRANCH  14   4
ATOM      2  O   UNL     1       3.173  -1.409  23.162  0.00  0.00    -0.253 OA
ATOM      4  N   UNL     1       1.401   0.075  22.917  0.00  0.00    -0.299 N 
ATOM      6  N   UNL     1       3.574   0.868  22.956  0.00  0.00    -0.297 N 
ATOM     20  C   UNL     1       2.758  -0.259  23.024  0.00  0.00    +0.300 C 
ATOM     31  H   UNL     1       1.168   1.047  22.736  0.00  0.00    +0.150 HD
ATOM     32  H   UNL     1       3.139   1.780  22.857  0.00  0.00    +0.150 HD
BRANCH   6  24
ATOM     24  C   UNL     1       5.013   0.798  23.041  0.00  0.00    +0.133 C 
BRANCH  24  27
ATOM     27  C   UNL     1       5.472   0.429  24.440  0.00  0.00    +0.174 C 
BRANCH  27   3
ATOM      3  O   UNL     1       5.477  -0.985  24.578  0.00  0.00    -0.393 OA
ATOM     33  H   UNL     1       4.624  -1.307  24.239  0.00  0.00    +0.209 HD
ENDBRANCH  27   3
ENDBRANCH  24  27
ENDBRANCH   6  24
ENDBRANCH  14   4
ENDBRANCH   8  14
BRANCH  10  15
ATOM     15  C   UNL     1      -4.256  -0.218  24.282  0.00  0.00    +0.103 C 
BRANCH  15  19
ATOM      1  O   UNL     1      -3.660   1.933  23.409  0.00  0.00    -0.276 OA
ATOM      5  N   UNL     1      -5.222   1.895  25.122  0.00  0.00    -0.300 N 
ATOM     19  C   UNL     1      -4.340   1.296  24.218  0.00  0.00    +0.216 C 
ATOM     22  C   UNL     1      -6.015   1.122  26.069  0.00  0.00    +0.132 C 
BRANCH   5  21
ATOM     21  C   UNL     1      -5.416   3.343  25.186  0.00  0.00    +0.142 C 
BRANCH  21  23
ATOM     23  C   UNL     1      -4.111   4.085  25.186  0.00  0.00    -0.030 A 
ATOM     25  C   UNL     1      -3.757   4.874  24.091  0.00  0.00    +0.005 A 
ATOM     26  C   UNL     1      -3.253   3.985  26.281  0.00  0.00    +0.005 A 
ATOM     28  C   UNL     1      -2.544   5.563  24.092  0.00  0.00    +0.000 A 
ATOM     29  C   UNL     1      -2.041   4.675  26.282  0.00  0.00    +0.000 A 
ATOM     30  C   UNL     1      -1.686   5.464  25.188  0.00  0.00    +0.000 A 
ENDBRANCH  21  23
ENDBRANCH   5  21
ENDBRANCH  15  19
ENDBRANCH  10  15
TORSDOF 10
ENDMDL
MODEL 2
REMARK VINA RESULT:      -3.8      1.498      3.179
REMARK  Name = 38027153
REMARK  14 active torsions:
REMARK  status: ('A' for Active; 'I' for Inactive)
REMARK    1  A    between atoms: O_3  and  C_27
REMARK    2  A    between atoms: N_4  and  C_14
REMARK    3  A    between atoms: N_5  and  C_21
REMARK    4  A    between atoms: N_5  and  C_22
REMARK    5  A    between atoms: N_6  and  C_24
REMARK    6  A    between atoms: C_7  and  C_11
REMARK    7  A    between atoms: C_8  and  C_14
REMARK    8  A    between atoms: C_10  and  C_15
REMARK    9  A    between atoms: C_11  and  C_16
REMARK   10  A    between atoms: C_11  and  C_17
REMARK   11  A    between atoms: C_12  and  C_18
REMARK   12  A    between atoms: C_15  and  C_19
REMARK   13  A    between atoms: C_21  and  C_23
REMARK   14  A    between atoms: C_24  and  C_27
REMARK                            x       y       z     vdW  Elec       q    Type
REMARK                         _______ _______ _______ _____ _____    ______ ____
ROOT
ATOM      7  C   UNL     1      -2.982  -1.051  24.623  0.00  0.00    +0.000 C 
ATOM      8  C   UNL     1      -1.841  -0.345  23.848  0.00  0.00    +0.032 C 
ATOM      9  C   UNL     1      -4.322  -0.862  23.895  0.00  0.00    +0.012 C 
ATOM     10  C   UNL     1      -4.691   0.625  23.730  0.00  0.00    +0.023 C 
ATOM     12  C   UNL     1      -3.522   1.442  23.219  0.00  0.00    -0.073 C 
ATOM     13  C   UNL     1      -2.257   0.986  23.266  0.00  0.00    -0.022 C 
ATOM     18  C   UNL     1      -3.845   2.777  22.607  0.00  0.00    +0.039 C 
ENDROOT
BRANCH   7  11
ATOM     11  C   UNL     1      -2.702  -2.545  24.813  0.00  0.00    -0.013 C 
ATOM     16  C   UNL     1      -3.885  -3.375  24.325  0.00  0.00    +0.007 C 
ATOM     17  C   UNL     1      -1.423  -2.943  24.082  0.00  0.00    +0.007 C 
ENDBRANCH   7  11
BRANCH   8  14
ATOM     14  C   UNL     1      -0.607  -0.152  24.735  0.00  0.00    +0.113 C 
BRANCH  14   4
ATOM      2  O   UNL     1       1.457   1.664  23.861  0.00  0.00    -0.253 OA
ATOM      4  N   UNL     1       0.587  -0.484  24.025  0.00  0.00    -0.299 N 
ATOM      6  N   UNL     1       2.609  -0.136  22.957  0.00  0.00    -0.297 N 
ATOM     20  C   UNL     1       1.547   0.458  23.634  0.00  0.00    +0.300 C 
ATOM     31  H   UNL     1       0.789  -1.464  23.848  0.00  0.00    +0.150 HD
ATOM     32  H   UNL     1       2.588  -1.139  22.801  0.00  0.00    +0.150 HD
BRANCH   6  24
ATOM     24  C   UNL     1       3.730   0.616  22.447  0.00  0.00    +0.133 C 
BRANCH  24  27
ATOM     27  C   UNL     1       5.031   0.193  23.105  0.00  0.00    +0.174 C 
BRANCH  27   3
ATOM      3  O   UNL     1       5.014   0.573  24.474  0.00  0.00    -0.393 OA
ATOM     33  H   UNL     1       4.386   1.312  24.556  0.00  0.00    +0.209 HD
ENDBRANCH  27   3
ENDBRANCH  24  27
ENDBRANCH   6  24
ENDBRANCH  14   4
ENDBRANCH   8  14
BRANCH  10  15
ATOM     15  C   UNL     1      -5.236   1.207  25.039  0.00  0.00    +0.103 C 
BRANCH  15  19
ATOM      1  O   UNL     1      -3.151   1.565  26.166  0.00  0.00    -0.276 OA
ATOM      5  N   UNL     1      -4.543   3.404  25.934  0.00  0.00    -0.300 N 
ATOM     19  C   UNL     1      -4.207   2.057  25.763  0.00  0.00    +0.216 C 
ATOM     22  C   UNL     1      -5.799   3.963  25.449  0.00  0.00    +0.132 C 
BRANCH   5  21
ATOM     21  C   UNL     1      -3.661   4.352  26.611  0.00  0.00    +0.142 C 
BRANCH  21  23
ATOM     23  C   UNL     1      -2.344   4.496  25.904  0.00  0.00    -0.030 A 
ATOM     25  C   UNL     1      -1.397   3.474  25.980  0.00  0.00    +0.005 A 
ATOM     26  C   UNL     1      -2.068   5.650  25.173  0.00  0.00    +0.005 A 
ATOM     28  C   UNL     1      -0.173   3.609  25.324  0.00  0.00    +0.000 A 
ATOM     29  C   UNL     1      -0.845   5.784  24.516  0.00  0.00    +0.000 A 
ATOM     30  C   UNL     1       0.104   4.764  24.592  0.00  0.00    +0.000 A 
ENDBRANCH  21  23
ENDBRANCH   5  21
ENDBRANCH  15  19
ENDBRANCH  10  15
TORSDOF 10
ENDMDL
MODEL 3
REMARK VINA RESULT:      -2.8      1.628      4.706
REMARK  Name = 38027153
REMARK  14 active torsions:
REMARK  status: ('A' for Active; 'I' for Inactive)
REMARK    1  A    between atoms: O_3  and  C_27
REMARK    2  A    between atoms: N_4  and  C_14
REMARK    3  A    between atoms: N_5  and  C_21
REMARK    4  A    between atoms: N_5  and  C_22
REMARK    5  A    between atoms: N_6  and  C_24
REMARK    6  A    between atoms: C_7  and  C_11
REMARK    7  A    between atoms: C_8  and  C_14
REMARK    8  A    between atoms: C_10  and  C_15
REMARK    9  A    between atoms: C_11  and  C_16
REMARK   10  A    between atoms: C_11  and  C_17
REMARK   11  A    between atoms: C_12  and  C_18
REMARK   12  A    between atoms: C_15  and  C_19
REMARK   13  A    between atoms: C_21  and  C_23
REMARK   14  A    between atoms: C_24  and  C_27
REMARK                            x       y       z     vdW  Elec       q    Type
REMARK                         _______ _______ _______ _____ _____    ______ ____
ROOT
ATOM      7  C   UNL     1      -2.798   2.619  23.862  0.00  0.00    +0.000 C 
ATOM      8  C   UNL     1      -1.506   2.903  24.667  0.00  0.00    +0.032 C 
ATOM      9  C   UNL     1      -3.808   3.763  24.046  0.00  0.00    +0.012 C 
ATOM     10  C   UNL     1      -4.189   3.972  25.524  0.00  0.00    +0.023 C 
ATOM     12  C   UNL     1      -2.969   3.995  26.422  0.00  0.00    -0.073 C 
ATOM     13  C   UNL     1      -1.775   3.526  26.017  0.00  0.00    -0.022 C 
ATOM     18  C   UNL     1      -3.141   4.613  27.782  0.00  0.00    +0.039 C 
ENDROOT
BRANCH   7  11
ATOM     11  C   UNL     1      -2.508   2.418  22.372  0.00  0.00    -0.013 C 
ATOM     16  C   UNL     1      -2.400   0.931  22.047  0.00  0.00    +0.007 C 
ATOM     17  C   UNL     1      -3.590   3.080  21.526  0.00  0.00    +0.007 C 
ENDBRANCH   7  11
BRANCH   8  14
ATOM     14  C   UNL     1      -0.676   1.628  24.850  0.00  0.00    +0.113 C 
BRANCH  14   4
ATOM      2  O   UNL     1       0.883  -0.081  23.125  0.00  0.00    -0.253 OA
ATOM      4  N   UNL     1       0.672   1.834  24.424  0.00  0.00    -0.299 N 
ATOM      6  N   UNL     1       2.661   1.396  23.327  0.00  0.00    -0.297 N 
ATOM     20  C   UNL     1       1.365   0.955  23.581  0.00  0.00    +0.300 C 
ATOM     31  H   UNL     1       1.138   2.697  24.690  0.00  0.00    +0.150 HD
ATOM     32  H   UNL     1       2.977   2.257  23.762  0.00  0.00    +0.150 HD
BRANCH   6  24
ATOM     24  C   UNL     1       3.583   0.670  22.487  0.00  0.00    +0.133 C 
BRANCH  24  27
ATOM     27  C   UNL     1       4.846   0.294  23.240  0.00  0.00    +0.174 C 
BRANCH  27   3
ATOM      3  O   UNL     1       4.648  -0.948  23.902  0.00  0.00    -0.393 OA
ATOM     33  H   UNL     1       5.525  -1.268  24.176  0.00  0.00    +0.209 HD
ENDBRANCH  27   3
ENDBRANCH  24  27
ENDBRANCH   6  24
ENDBRANCH  14   4
ENDBRANCH   8  14
BRANCH  10  15
ATOM     15  C   UNL     1      -5.193   2.913  25.990  0.00  0.00    +0.103 C 
BRANCH  15  19
ATOM      1  O   UNL     1      -6.180   2.111  23.958  0.00  0.00    -0.276 OA
ATOM      5  N   UNL     1      -4.837   0.625  25.127  0.00  0.00    -0.300 N 
ATOM     19  C   UNL     1      -5.458   1.862  24.927  0.00  0.00    +0.216 C 
ATOM     22  C   UNL     1      -3.988   0.354  26.281  0.00  0.00    +0.132 C 
BRANCH   5  21
ATOM     21  C   UNL     1      -4.992  -0.489  24.195  0.00  0.00    +0.142 C 
BRANCH  21  23
ATOM     23  C   UNL     1      -3.830  -1.438  24.254  0.00  0.00    -0.030 A 
ATOM     25  C   UNL     1      -4.008  -2.781  23.921  0.00  0.00    +0.005 A 
ATOM     26  C   UNL     1      -2.573  -0.975  24.642  0.00  0.00    +0.005 A 
ATOM     28  C   UNL     1      -2.927  -3.661  23.977  0.00  0.00    +0.000 A 
ATOM     29  C   UNL     1      -1.492  -1.855  24.697  0.00  0.00    +0.000 A 
ATOM     30  C   UNL     1      -1.669  -3.199  24.365  0.00  0.00    +0.000 A 
ENDBRANCH  21  23
ENDBRANCH   5  21
ENDBRANCH  15  19
ENDBRANCH  10  15
TORSDOF 10
ENDMDL
MODEL 4
REMARK VINA RESULT:      -1.3      1.588      7.367
REMARK  Name = 38027153
REMARK  14 active torsions:
REMARK  status: ('A' for Active; 'I' for Inactive)
REMARK    1  A    between atoms: O_3  and  C_27
REMARK    2  A    between atoms: N_4  and  C_14
REMARK    3  A    between atoms: N_5  and  C_21
REMARK    4  A    between atoms: N_5  and  C_22
REMARK    5  A    between atoms: N_6  and  C_24
REMARK    6  A    between atoms: C_7  and  C_11
REMARK    7  A    between atoms: C_8  and  C_14
REMARK    8  A    between atoms: C_10  and  C_15
REMARK    9  A    between atoms: C_11  and  C_16
REMARK   10  A    between atoms: C_11  and  C_17
REMARK   11  A    between atoms: C_12  and  C_18
REMARK   12  A    between atoms: C_15  and  C_19
REMARK   13  A    between atoms: C_21  and  C_23
REMARK   14  A    between atoms: C_24  and  C_27
REMARK                            x       y       z     vdW  Elec       q    Type
REMARK                         _______ _______ _______ _____ _____    ______ ____
ROOT
ATOM      7  C   UNL     1      -2.669  -1.366  24.328  0.00  0.00    +0.000 C 
ATOM      8  C   UNL     1      -3.298  -0.621  25.531  0.00  0.00    +0.032 C 
ATOM      9  C   UNL     1      -1.156  -1.540  24.536  0.00  0.00    +0.012 C 
ATOM     10  C   UNL     1      -0.433  -0.190  24.708  0.00  0.00    +0.023 C 
ATOM     12  C   UNL     1      -1.152   0.713  25.688  0.00  0.00    -0.073 C 
ATOM     13  C   UNL     1      -2.428   0.497  26.056  0.00  0.00    -0.022 C 
ATOM     18  C   UNL     1      -0.355   1.845  26.276  0.00  0.00    +0.039 C 
ENDROOT
BRANCH   7  11
ATOM     11  C   UNL     1      -3.321  -2.733  24.100  0.00  0.00    -0.013 C 
ATOM     16  C   UNL     1      -3.437  -3.494  25.417  0.00  0.00    +0.007 C 
ATOM     17  C   UNL     1      -4.690  -2.566  23.448  0.00  0.00    +0.007 C 
ENDBRANCH   7  11
BRANCH   8  14
ATOM     14  C   UNL     1      -4.682  -0.066  25.176  0.00  0.00    +0.113 C 
BRANCH  14   4
ATOM      2  O   UNL     1      -3.537   1.936  23.442  0.00  0.00    -0.253 OA
ATOM      4  N   UNL     1      -4.722   1.350  25.354  0.00  0.00    -0.299 N 
ATOM      6  N   UNL     1      -4.328   3.579  24.877  0.00  0.00    -0.297 N 
ATOM     20  C   UNL     1      -4.141   2.263  24.463  0.00  0.00    +0.300 C 
ATOM     31  H   UNL     1      -5.257   1.727  26.131  0.00  0.00    +0.150 HD
ATOM     32  H   UNL     1      -4.826   3.752  25.744  0.00  0.00    +0.150 HD
BRANCH   6  24
ATOM     24  C   UNL     1      -3.825   4.711  24.135  0.00  0.00    +0.133 C 
BRANCH  24  27
ATOM     27  C   UNL     1      -2.376   5.004  24.479  0.00  0.00    +0.174 C 
BRANCH  27   3
ATOM      3  O   UNL     1      -2.138   4.674  25.841  0.00  0.00    -0.393 OA
ATOM     33  H   UNL     1      -1.548   3.901  25.848  0.00  0.00    +0.209 HD
ENDBRANCH  27   3
ENDBRANCH  24  27
ENDBRANCH   6  24
ENDBRANCH  14   4
ENDBRANCH   8  14
BRANCH  10  15
ATOM     15  C   UNL     1      -0.241   0.509  23.358  0.00  0.00    +0.103 C 
BRANCH  15  19
ATOM      1  O   UNL     1       1.833   1.644  23.750  0.00  0.00    -0.276 OA
ATOM      5  N   UNL     1       1.791   0.114  22.009  0.00  0.00    -0.300 N 
ATOM     19  C   UNL     1       1.218   0.819  23.072  0.00  0.00    +0.216 C 
ATOM     22  C   UNL     1       1.044  -0.857  21.221  0.00  0.00    +0.132 C 
BRANCH   5  21
ATOM     21  C   UNL     1       3.185   0.299  21.608  0.00  0.00    +0.142 C 
BRANCH  21  23
ATOM     23  C   UNL     1       4.139  -0.060  22.711  0.00  0.00    -0.030 A 
ATOM     25  C   UNL     1       5.027   0.897  23.203  0.00  0.00    +0.005 A 
ATOM     26  C   UNL     1       4.136  -1.349  23.242  0.00  0.00    +0.005 A 
ATOM     28  C   UNL     1       5.913   0.562  24.227  0.00  0.00    +0.000 A 
ATOM     29  C   UNL     1       5.022  -1.683  24.266  0.00  0.00    +0.000 A 
ATOM     30  C   UNL     1       5.911  -0.727  24.759  0.00  0.00    +0.000 A 
ENDBRANCH  21  23
ENDBRANCH   5  21
ENDBRANCH  15  19
ENDBRANCH  10  15
TORSDOF 10
ENDMDL
