MODEL 1
REMARK VINA RESULT:      17.9      0.000      0.000
REMARK  Name = 71694334
REMARK  5 active torsions:
REMARK  status: ('A' for Active; 'I' for Inactive)
REMARK    1  A    between atoms: N_7  and  C_24
REMARK    2  A    between atoms: N_9  and  C_26
REMARK    3  A    between atoms: C_10  and  C_15
REMARK    4  A    between atoms: C_15  and  C_18
REMARK    5  A    between atoms: C_24  and  C_32
REMARK                            x       y       z     vdW  Elec       q    Type
REMARK                         _______ _______ _______ _____ _____    ______ ____
ROOT
ATOM      2  O   UNL     1      -0.208   6.003  25.384  0.00  0.00    -0.274 OA
ATOM      4  O   UNL     1      -0.859   1.106  23.446  0.00  0.00    -0.488 OA
ATOM      6  N   UNL     1      -2.203   5.061  24.686  0.00  0.00    -0.300 N 
ATOM      8  N   UNL     1       0.139   3.793  22.950  0.00  0.00    -0.304 NA
ATOM     10  C   UNL     1      -3.858   2.943  25.814  0.00  0.00    +0.008 C 
ATOM     11  C   UNL     1      -3.133   2.824  24.440  0.00  0.00    +0.032 C 
ATOM     12  C   UNL     1      -3.108   3.968  26.695  0.00  0.00    +0.023 C 
ATOM     13  C   UNL     1      -2.982   4.208  23.780  0.00  0.00    +0.115 C 
ATOM     14  C   UNL     1      -2.858   5.296  25.975  0.00  0.00    +0.108 C 
ATOM     16  C   UNL     1      -3.761   1.834  23.495  0.00  0.00    -0.023 C 
ATOM     17  C   UNL     1      -0.874   5.442  24.506  0.00  0.00    +0.229 C 
ATOM     19  C   UNL     1      -3.217   0.738  22.940  0.00  0.00    +0.010 C 
ATOM     20  C   UNL     1      -0.221   5.194  23.159  0.00  0.00    +0.178 C 
ATOM     21  C   UNL     1      -1.827   0.158  23.014  0.00  0.00    +0.256 C 
ATOM     22  C   UNL     1       0.958   3.201  24.004  0.00  0.00    +0.120 C 
ATOM     23  C   UNL     1       1.397   1.789  23.653  0.00  0.00    +0.010 A 
ATOM     25  C   UNL     1       0.466   0.756  23.390  0.00  0.00    +0.125 A 
ATOM     26  C   UNL     1       3.216   0.211  23.316  0.00  0.00    +0.030 A 
ATOM     27  C   UNL     1       2.769   1.497  23.612  0.00  0.00    +0.031 A 
ATOM     30  C   UNL     1       0.927  -0.533  23.101  0.00  0.00    +0.048 A 
ATOM     31  C   UNL     1       2.297  -0.802  23.062  0.00  0.00    +0.027 A 
ATOM     41  H   UNL     1       0.626   3.716  22.056  0.00  0.00    +0.123 HD
ENDROOT
BRANCH  26   9
ATOM      5  O   UNL     1       7.384  -0.341  23.225  0.00  0.00    -0.377 OA
ATOM      9  N   UNL     1       4.588  -0.064  23.278  0.00  0.00    -0.326 N 
ATOM     28  C   UNL     1       5.384   0.216  24.480  0.00  0.00    +0.133 C 
ATOM     29  C   UNL     1       5.317   0.030  22.009  0.00  0.00    +0.133 C 
ATOM     33  C   UNL     1       6.677  -0.591  24.440  0.00  0.00    +0.178 C 
ATOM     34  C   UNL     1       6.614  -0.767  22.101  0.00  0.00    +0.178 C 
ENDBRANCH  26   9
BRANCH  10  15
ATOM     15  C   UNL     1      -5.348   3.299  25.722  0.00  0.00    +0.100 C 
BRANCH  15  18
ATOM      3  O   UNL     1      -7.364   2.224  24.926  0.00  0.00    -0.276 OA
ATOM      7  N   UNL     1      -5.436   0.962  25.229  0.00  0.00    -0.311 N 
ATOM     18  C   UNL     1      -6.182   2.131  25.247  0.00  0.00    +0.214 C 
ATOM     40  H   UNL     1      -4.463   0.982  25.522  0.00  0.00    +0.149 HD
BRANCH   7  24
ATOM     24  C   UNL     1      -5.978  -0.314  24.820  0.00  0.00    +0.139 C 
BRANCH  24  32
ATOM      1  F   UNL     1      -1.937  -4.128  23.913  0.00  0.00    -0.205 F 
ATOM     32  C   UNL     1      -4.901  -1.330  24.578  0.00  0.00    -0.030 A 
ATOM     35  C   UNL     1      -3.814  -1.416  25.449  0.00  0.00    +0.008 A 
ATOM     36  C   UNL     1      -4.986  -2.189  23.482  0.00  0.00    +0.008 A 
ATOM     37  C   UNL     1      -2.813  -2.362  25.224  0.00  0.00    +0.038 A 
ATOM     38  C   UNL     1      -3.984  -3.134  23.258  0.00  0.00    +0.038 A 
ATOM     39  C   UNL     1      -2.898  -3.221  24.128  0.00  0.00    +0.123 A 
ENDBRANCH  24  32
ENDBRANCH   7  24
ENDBRANCH  15  18
ENDBRANCH  10  15
TORSDOF 5
ENDMDL
MODEL 2
REMARK VINA RESULT:      21.7      2.472      5.288
REMARK  Name = 71694334
REMARK  5 active torsions:
REMARK  status: ('A' for Active; 'I' for Inactive)
REMARK    1  A    between atoms: N_7  and  C_24
REMARK    2  A    between atoms: N_9  and  C_26
REMARK    3  A    between atoms: C_10  and  C_15
REMARK    4  A    between atoms: C_15  and  C_18
REMARK    5  A    between atoms: C_24  and  C_32
REMARK                            x       y       z     vdW  Elec       q    Type
REMARK                         _______ _______ _______ _____ _____    ______ ____
ROOT
ATOM      2  O   UNL     1      -2.399  -4.080  23.886  0.00  0.00    -0.274 OA
ATOM      4  O   UNL     1      -0.774   0.898  24.742  0.00  0.00    -0.488 OA
ATOM      6  N   UNL     1      -3.627  -2.392  24.884  0.00  0.00    -0.300 N 
ATOM      8  N   UNL     1      -0.557  -1.890  25.541  0.00  0.00    -0.304 NA
ATOM     10  C   UNL     1      -4.822   0.043  23.816  0.00  0.00    +0.008 C 
ATOM     11  C   UNL     1      -3.666   0.043  24.860  0.00  0.00    +0.032 C 
ATOM     12  C   UNL     1      -4.785  -1.282  23.020  0.00  0.00    +0.023 C 
ATOM     13  C   UNL     1      -3.735  -1.213  25.751  0.00  0.00    +0.115 C 
ATOM     14  C   UNL     1      -4.728  -2.516  23.926  0.00  0.00    +0.108 C 
ATOM     16  C   UNL     1      -3.585   1.296  25.689  0.00  0.00    -0.023 C 
ATOM     17  C   UNL     1      -2.508  -3.215  24.763  0.00  0.00    +0.229 C 
ATOM     19  C   UNL     1      -2.569   2.170  25.799  0.00  0.00    +0.010 C 
ATOM     20  C   UNL     1      -1.385  -3.072  25.773  0.00  0.00    +0.178 C 
ATOM     21  C   UNL     1      -1.185   2.181  25.200  0.00  0.00    +0.256 C 
ATOM     22  C   UNL     1      -0.014  -1.769  24.190  0.00  0.00    +0.120 C 
ATOM     23  C   UNL     1       0.936  -0.590  24.067  0.00  0.00    +0.010 A 
ATOM     25  C   UNL     1       0.527   0.737  24.337  0.00  0.00    +0.125 A 
ATOM     26  C   UNL     1       3.154   0.229  23.498  0.00  0.00    +0.030 A 
ATOM     27  C   UNL     1       2.255  -0.824  23.647  0.00  0.00    +0.031 A 
ATOM     30  C   UNL     1       1.436   1.788  24.177  0.00  0.00    +0.048 A 
ATOM     31  C   UNL     1       2.745   1.533  23.762  0.00  0.00    +0.027 A 
ATOM     41  H   UNL     1       0.209  -1.896  26.216  0.00  0.00    +0.123 HD
ENDROOT
BRANCH  26   9
ATOM      5  O   UNL     1       7.144  -0.252  22.263  0.00  0.00    -0.377 OA
ATOM      9  N   UNL     1       4.466  -0.021  23.081  0.00  0.00    -0.326 N 
ATOM     28  C   UNL     1       5.556   0.237  24.030  0.00  0.00    +0.133 C 
ATOM     29  C   UNL     1       4.822   0.120  21.665  0.00  0.00    +0.133 C 
ATOM     33  C   UNL     1       6.796  -0.547  23.615  0.00  0.00    +0.178 C 
ATOM     34  C   UNL     1       6.102  -0.657  21.376  0.00  0.00    +0.178 C 
ENDBRANCH  26   9
BRANCH  10  15
ATOM     15  C   UNL     1      -6.218   0.277  24.407  0.00  0.00    +0.100 C 
BRANCH  15  18
ATOM      3  O   UNL     1      -6.663   1.513  26.439  0.00  0.00    -0.276 OA
ATOM      7  N   UNL     1      -5.809   2.625  24.586  0.00  0.00    -0.311 N 
ATOM     18  C   UNL     1      -6.266   1.513  25.277  0.00  0.00    +0.214 C 
ATOM     40  H   UNL     1      -5.509   2.527  23.620  0.00  0.00    +0.149 HD
BRANCH   7  24
ATOM     24  C   UNL     1      -5.746   3.945  25.169  0.00  0.00    +0.139 C 
BRANCH  24  32
ATOM      1  F   UNL     1      -0.533   6.067  25.032  0.00  0.00    -0.205 F 
ATOM     32  C   UNL     1      -4.357   4.511  25.132  0.00  0.00    -0.030 A 
ATOM     35  C   UNL     1      -3.721   4.875  26.319  0.00  0.00    +0.008 A 
ATOM     36  C   UNL     1      -3.702   4.673  23.911  0.00  0.00    +0.008 A 
ATOM     37  C   UNL     1      -2.429   5.401  26.285  0.00  0.00    +0.038 A 
ATOM     38  C   UNL     1      -2.410   5.199  23.878  0.00  0.00    +0.038 A 
ATOM     39  C   UNL     1      -1.773   5.563  25.065  0.00  0.00    +0.123 A 
ENDBRANCH  24  32
ENDBRANCH   7  24
ENDBRANCH  15  18
ENDBRANCH  10  15
TORSDOF 5
ENDMDL
