MODEL 1
REMARK VINA RESULT:      14.0      0.000      0.000
REMARK  Name = 7673958
REMARK  8 active torsions:
REMARK  status: ('A' for Active; 'I' for Inactive)
REMARK    1  A    between atoms: O_5  and  C_33
REMARK    2  A    between atoms: O_5  and  C_35
REMARK    3  A    between atoms: O_6  and  C_34
REMARK    4  A    between atoms: O_6  and  C_36
REMARK    5  A    between atoms: N_9  and  C_15
REMARK    6  A    between atoms: C_11  and  C_16
REMARK    7  A    between atoms: C_19  and  C_23
REMARK    8  A    between atoms: C_22  and  C_24
REMARK                            x       y       z     vdW  Elec       q    Type
REMARK                         _______ _______ _______ _____ _____    ______ ____
ROOT
ATOM      2  O   UNL     1      -3.920   3.443  22.372  0.00  0.00    -0.270 OA
ATOM      4  O   UNL     1       1.212  -1.152  20.880  0.00  0.00    -0.270 OA
ATOM      7  N   UNL     1      -1.971   2.258  22.900  0.00  0.00    -0.283 N 
ATOM      8  N   UNL     1       0.310   0.614  22.112  0.00  0.00    -0.294 N 
ATOM     11  C   UNL     1      -0.909   1.929  23.863  0.00  0.00    +0.179 C 
ATOM     12  C   UNL     1       0.427   1.609  23.190  0.00  0.00    +0.140 C 
ATOM     13  C   UNL     1      -1.759   1.842  21.513  0.00  0.00    +0.128 C 
ATOM     14  C   UNL     1      -0.968   0.549  21.406  0.00  0.00    +0.127 C 
ATOM     19  C   UNL     1      -3.087   3.054  23.189  0.00  0.00    +0.247 C 
ATOM     22  C   UNL     1       1.315  -0.291  21.753  0.00  0.00    +0.247 C 
ENDROOT
BRANCH  19  23
ATOM     23  C   UNL     1      -3.298   3.472  24.581  0.00  0.00    +0.037 A 
ATOM     25  C   UNL     1      -2.328   4.233  25.234  0.00  0.00    +0.016 A 
ATOM     26  C   UNL     1      -4.467   3.108  25.248  0.00  0.00    +0.016 A 
ATOM     29  C   UNL     1      -2.529   4.630  26.557  0.00  0.00    +0.046 A 
ATOM     30  C   UNL     1      -4.666   3.505  26.570  0.00  0.00    +0.046 A 
ATOM     33  C   UNL     1      -3.697   4.265  27.225  0.00  0.00    +0.120 A 
BRANCH  33   5
ATOM      5  O   UNL     1      -3.891   4.650  28.515  0.00  0.00    -0.495 OA
ATOM     35  C   UNL     1      -3.200   3.915  29.524  0.00  0.00    +0.277 C 
ENDBRANCH  33   5
ENDBRANCH  19  23
BRANCH  22  24
ATOM     24  C   UNL     1       2.603  -0.218  22.460  0.00  0.00    +0.037 A 
ATOM     27  C   UNL     1       3.044  -1.301  23.222  0.00  0.00    +0.016 A 
ATOM     28  C   UNL     1       3.386   0.933  22.368  0.00  0.00    +0.016 A 
ATOM     31  C   UNL     1       4.266  -1.232  23.891  0.00  0.00    +0.046 A 
ATOM     32  C   UNL     1       4.607   1.003  23.037  0.00  0.00    +0.046 A 
ATOM     34  C   UNL     1       5.047  -0.080  23.798  0.00  0.00    +0.120 A 
BRANCH  34   6
ATOM      6  O   UNL     1       6.241  -0.014  24.450  0.00  0.00    -0.495 OA
ATOM     36  C   UNL     1       7.419  -0.186  23.665  0.00  0.00    +0.277 C 
ENDBRANCH  34   6
ENDBRANCH  22  24
BRANCH  11  16
ATOM      1  O   UNL     1      -0.927   0.535  25.803  0.00  0.00    -0.274 OA
ATOM      9  N   UNL     1      -2.293  -0.023  24.003  0.00  0.00    -0.302 N 
ATOM     16  C   UNL     1      -1.367   0.754  24.678  0.00  0.00    +0.236 C 
ATOM     37  H   UNL     1      -2.606   0.272  23.083  0.00  0.00    +0.150 HD
BRANCH   9  15
ATOM      3  O   UNL     1      -0.633  -2.125  24.551  0.00  0.00    -0.274 OA
ATOM     10  N   UNL     1      -2.346  -3.617  24.310  0.00  0.00    -0.314 N 
ATOM     15  C   UNL     1      -2.871  -1.220  24.557  0.00  0.00    +0.159 C 
ATOM     17  C   UNL     1      -4.211  -1.527  23.905  0.00  0.00    +0.033 C 
ATOM     18  C   UNL     1      -4.711  -2.881  24.381  0.00  0.00    +0.021 C 
ATOM     20  C   UNL     1      -3.716  -3.950  23.969  0.00  0.00    +0.104 C 
ATOM     21  C   UNL     1      -1.842  -2.338  24.436  0.00  0.00    +0.233 C 
ATOM     38  H   UNL     1      -1.671  -4.376  24.287  0.00  0.00    +0.149 HD
ENDBRANCH   9  15
ENDBRANCH  11  16
TORSDOF 6
ENDMDL
MODEL 2
REMARK VINA RESULT:      15.5      0.961      1.240
REMARK  Name = 7673958
REMARK  8 active torsions:
REMARK  status: ('A' for Active; 'I' for Inactive)
REMARK    1  A    between atoms: O_5  and  C_33
REMARK    2  A    between atoms: O_5  and  C_35
REMARK    3  A    between atoms: O_6  and  C_34
REMARK    4  A    between atoms: O_6  and  C_36
REMARK    5  A    between atoms: N_9  and  C_15
REMARK    6  A    between atoms: C_11  and  C_16
REMARK    7  A    between atoms: C_19  and  C_23
REMARK    8  A    between atoms: C_22  and  C_24
REMARK                            x       y       z     vdW  Elec       q    Type
REMARK                         _______ _______ _______ _____ _____    ______ ____
ROOT
ATOM      2  O   UNL     1      -3.924   3.495  22.194  0.00  0.00    -0.270 OA
ATOM      4  O   UNL     1       1.199  -1.095  20.656  0.00  0.00    -0.270 OA
ATOM      7  N   UNL     1      -2.011   2.256  22.731  0.00  0.00    -0.283 N 
ATOM      8  N   UNL     1       0.275   0.621  21.943  0.00  0.00    -0.294 N 
ATOM     11  C   UNL     1      -0.990   1.863  23.713  0.00  0.00    +0.179 C 
ATOM     12  C   UNL     1       0.366   1.558  23.073  0.00  0.00    +0.140 C 
ATOM     13  C   UNL     1      -1.755   1.907  21.333  0.00  0.00    +0.128 C 
ATOM     14  C   UNL     1      -0.977   0.609  21.189  0.00  0.00    +0.127 C 
ATOM     19  C   UNL     1      -3.127   3.053  23.020  0.00  0.00    +0.247 C 
ATOM     22  C   UNL     1       1.281  -0.280  21.574  0.00  0.00    +0.247 C 
ENDROOT
BRANCH  19  23
ATOM     23  C   UNL     1      -3.383   3.403  24.423  0.00  0.00    +0.037 A 
ATOM     25  C   UNL     1      -2.369   3.968  25.196  0.00  0.00    +0.016 A 
ATOM     26  C   UNL     1      -4.639   3.171  24.980  0.00  0.00    +0.016 A 
ATOM     29  C   UNL     1      -2.612   4.300  26.529  0.00  0.00    +0.046 A 
ATOM     30  C   UNL     1      -4.882   3.504  26.313  0.00  0.00    +0.046 A 
ATOM     33  C   UNL     1      -3.869   4.068  27.088  0.00  0.00    +0.120 A 
BRANCH  33   5
ATOM      5  O   UNL     1      -4.105   4.390  28.389  0.00  0.00    -0.495 OA
ATOM     35  C   UNL     1      -3.128   3.986  29.346  0.00  0.00    +0.277 C 
ENDBRANCH  33   5
ENDBRANCH  19  23
BRANCH  22  24
ATOM     24  C   UNL     1       2.544  -0.262  22.330  0.00  0.00    +0.037 A 
ATOM     27  C   UNL     1       2.891  -1.348  23.134  0.00  0.00    +0.016 A 
ATOM     28  C   UNL     1       3.394   0.840  22.242  0.00  0.00    +0.016 A 
ATOM     31  C   UNL     1       4.089  -1.331  23.849  0.00  0.00    +0.046 A 
ATOM     32  C   UNL     1       4.591   0.858  22.957  0.00  0.00    +0.046 A 
ATOM     34  C   UNL     1       4.938  -0.228  23.761  0.00  0.00    +0.120 A 
BRANCH  34   6
ATOM      6  O   UNL     1       6.108  -0.212  24.458  0.00  0.00    -0.495 OA
ATOM     36  C   UNL     1       7.315  -0.288  23.701  0.00  0.00    +0.277 C 
ENDBRANCH  34   6
ENDBRANCH  22  24
BRANCH  11  16
ATOM      1  O   UNL     1      -0.985   0.282  25.505  0.00  0.00    -0.274 OA
ATOM      9  N   UNL     1      -2.542   0.039  23.792  0.00  0.00    -0.302 N 
ATOM     16  C   UNL     1      -1.492   0.655  24.451  0.00  0.00    +0.236 C 
ATOM     37  H   UNL     1      -2.900   0.455  22.938  0.00  0.00    +0.150 HD
BRANCH   9  15
ATOM      3  O   UNL     1      -4.221   0.266  25.938  0.00  0.00    -0.274 OA
ATOM     10  N   UNL     1      -3.852  -1.909  26.531  0.00  0.00    -0.314 N 
ATOM     15  C   UNL     1      -3.188  -1.152  24.280  0.00  0.00    +0.159 C 
ATOM     17  C   UNL     1      -2.233  -2.338  24.250  0.00  0.00    +0.033 C 
ATOM     18  C   UNL     1      -2.881  -3.532  24.930  0.00  0.00    +0.021 C 
ATOM     20  C   UNL     1      -3.172  -3.182  26.377  0.00  0.00    +0.104 C 
ATOM     21  C   UNL     1      -3.763  -0.844  25.658  0.00  0.00    +0.233 C 
ATOM     38  H   UNL     1      -4.288  -1.729  27.431  0.00  0.00    +0.149 HD
ENDBRANCH   9  15
ENDBRANCH  11  16
TORSDOF 6
ENDMDL
MODEL 3
REMARK VINA RESULT:      17.3      2.657      4.456
REMARK  Name = 7673958
REMARK  8 active torsions:
REMARK  status: ('A' for Active; 'I' for Inactive)
REMARK    1  A    between atoms: O_5  and  C_33
REMARK    2  A    between atoms: O_5  and  C_35
REMARK    3  A    between atoms: O_6  and  C_34
REMARK    4  A    between atoms: O_6  and  C_36
REMARK    5  A    between atoms: N_9  and  C_15
REMARK    6  A    between atoms: C_11  and  C_16
REMARK    7  A    between atoms: C_19  and  C_23
REMARK    8  A    between atoms: C_22  and  C_24
REMARK                            x       y       z     vdW  Elec       q    Type
REMARK                         _______ _______ _______ _____ _____    ______ ____
ROOT
ATOM      2  O   UNL     1      -5.112  -1.057  24.301  0.00  0.00    -0.270 OA
ATOM      4  O   UNL     1       1.467  -3.435  25.167  0.00  0.00    -0.270 OA
ATOM      7  N   UNL     1      -2.795  -0.756  24.455  0.00  0.00    -0.283 N 
ATOM      8  N   UNL     1      -0.078  -1.825  24.478  0.00  0.00    -0.294 N 
ATOM     11  C   UNL     1      -1.630   0.142  24.456  0.00  0.00    +0.179 C 
ATOM     12  C   UNL     1      -0.372  -0.513  23.881  0.00  0.00    +0.140 C 
ATOM     13  C   UNL     1      -2.526  -2.189  24.328  0.00  0.00    +0.128 C 
ATOM     14  C   UNL     1      -1.213  -2.597  24.979  0.00  0.00    +0.127 C 
ATOM     19  C   UNL     1      -4.128  -0.329  24.426  0.00  0.00    +0.247 C 
ATOM     22  C   UNL     1       1.208  -2.357  24.634  0.00  0.00    +0.247 C 
ENDROOT
BRANCH  19  23
ATOM     23  C   UNL     1      -4.397   1.110  24.552  0.00  0.00    +0.037 A 
ATOM     25  C   UNL     1      -5.286   1.570  25.522  0.00  0.00    +0.016 A 
ATOM     26  C   UNL     1      -3.763   2.014  23.700  0.00  0.00    +0.016 A 
ATOM     29  C   UNL     1      -5.541   2.937  25.641  0.00  0.00    +0.046 A 
ATOM     30  C   UNL     1      -4.018   3.380  23.820  0.00  0.00    +0.046 A 
ATOM     33  C   UNL     1      -4.908   3.841  24.790  0.00  0.00    +0.120 A 
BRANCH  33   5
ATOM      5  O   UNL     1      -5.159   5.174  24.904  0.00  0.00    -0.495 OA
ATOM     35  C   UNL     1      -6.439   5.553  25.408  0.00  0.00    +0.277 C 
ENDBRANCH  33   5
ENDBRANCH  19  23
BRANCH  22  24
ATOM     24  C   UNL     1       2.349  -1.582  24.122  0.00  0.00    +0.037 A 
ATOM     27  C   UNL     1       3.652  -2.039  24.328  0.00  0.00    +0.016 A 
ATOM     28  C   UNL     1       2.130  -0.391  23.429  0.00  0.00    +0.016 A 
ATOM     31  C   UNL     1       4.733  -1.305  23.841  0.00  0.00    +0.046 A 
ATOM     32  C   UNL     1       3.211   0.343  22.943  0.00  0.00    +0.046 A 
ATOM     34  C   UNL     1       4.513  -0.115  23.149  0.00  0.00    +0.120 A 
BRANCH  34   6
ATOM      6  O   UNL     1       5.569   0.601  22.672  0.00  0.00    -0.495 OA
ATOM     36  C   UNL     1       6.871   0.185  23.079  0.00  0.00    +0.277 C 
ENDBRANCH  34   6
ENDBRANCH  22  24
BRANCH  11  16
ATOM      1  O   UNL     1      -1.946   0.051  26.823  0.00  0.00    -0.274 OA
ATOM      9  N   UNL     1      -0.479   1.628  25.942  0.00  0.00    -0.302 N 
ATOM     16  C   UNL     1      -1.379   0.579  25.871  0.00  0.00    +0.236 C 
ATOM     37  H   UNL     1      -0.049   1.968  25.087  0.00  0.00    +0.150 HD
BRANCH   9  15
ATOM      3  O   UNL     1       0.974   3.941  25.830  0.00  0.00    -0.274 OA
ATOM     10  N   UNL     1       1.907   3.525  27.873  0.00  0.00    -0.314 N 
ATOM     15  C   UNL     1      -0.086   2.246  27.182  0.00  0.00    +0.159 C 
ATOM     17  C   UNL     1       0.332   1.196  28.203  0.00  0.00    +0.033 C 
ATOM     18  C   UNL     1       0.905   1.881  29.433  0.00  0.00    +0.021 C 
ATOM     20  C   UNL     1       2.130   2.679  29.030  0.00  0.00    +0.104 C 
ATOM     21  C   UNL     1       0.988   3.282  26.871  0.00  0.00    +0.233 C 
ATOM     38  H   UNL     1       2.592   4.254  27.699  0.00  0.00    +0.149 HD
ENDBRANCH   9  15
ENDBRANCH  11  16
TORSDOF 6
ENDMDL
