MODEL 1
REMARK VINA RESULT:      -5.3      0.000      0.000
REMARK  Name = 75537137
REMARK  5 active torsions:
REMARK  status: ('A' for Active; 'I' for Inactive)
REMARK    1  A    between atoms: O_2  and  C_14
REMARK    2  A    between atoms: O_2  and  C_15
REMARK    3  A    between atoms: N_4  and  C_12
REMARK    4  A    between atoms: N_5  and  C_13
REMARK    5  A    between atoms: C_12  and  C_14
REMARK                            x       y       z     vdW  Elec       q    Type
REMARK                         _______ _______ _______ _____ _____    ______ ____
ROOT
ATOM      1  O   UNL     1       0.430   2.045  25.553  0.00  0.00    -0.252 OA
ATOM      3  N   UNL     1      -1.721   2.710  24.881  0.00  0.00    -0.278 N 
ATOM      4  N   UNL     1      -1.004   0.668  24.282  0.00  0.00    -0.281 N 
ATOM      5  N   UNL     1      -4.298   3.823  25.053  0.00  0.00    -0.302 NA
ATOM      6  C   UNL     1      -2.769   2.193  24.024  0.00  0.00    +0.109 C 
ATOM      7  C   UNL     1      -2.378   0.732  23.816  0.00  0.00    +0.133 C 
ATOM      8  C   UNL     1      -4.137   2.406  24.669  0.00  0.00    +0.108 C 
ATOM      9  C   UNL     1      -1.851   4.041  25.436  0.00  0.00    +0.125 C 
ATOM     10  C   UNL     1      -3.255   4.230  26.017  0.00  0.00    +0.103 C 
ATOM     11  C   UNL     1      -0.629   1.837  24.975  0.00  0.00    +0.305 C 
ATOM     13  C   UNL     1      -5.629   4.051  25.617  0.00  0.00    +0.105 C 
ENDROOT
BRANCH   4  12
ATOM     12  C   UNL     1      -0.207  -0.533  24.158  0.00  0.00    +0.137 C 
BRANCH  12  14
ATOM     14  C   UNL     1      -0.751  -1.655  25.024  0.00  0.00    +0.178 C 
BRANCH  14   2
ATOM      2  O   UNL     1      -1.570  -2.507  24.234  0.00  0.00    -0.381 OA
ATOM     15  C   UNL     1      -2.893  -2.585  24.749  0.00  0.00    +0.194 C 
ENDBRANCH  14   2
ENDBRANCH  12  14
ENDBRANCH   4  12
TORSDOF 3
ENDMDL
MODEL 2
REMARK VINA RESULT:      -5.1      1.730      2.520
REMARK  Name = 75537137
REMARK  5 active torsions:
REMARK  status: ('A' for Active; 'I' for Inactive)
REMARK    1  A    between atoms: O_2  and  C_14
REMARK    2  A    between atoms: O_2  and  C_15
REMARK    3  A    between atoms: N_4  and  C_12
REMARK    4  A    between atoms: N_5  and  C_13
REMARK    5  A    between atoms: C_12  and  C_14
REMARK                            x       y       z     vdW  Elec       q    Type
REMARK                         _______ _______ _______ _____ _____    ______ ____
ROOT
ATOM      1  O   UNL     1       0.696   2.282  25.418  0.00  0.00    -0.252 OA
ATOM      3  N   UNL     1      -1.516   2.762  24.789  0.00  0.00    -0.278 N 
ATOM      4  N   UNL     1      -0.572   0.882  24.005  0.00  0.00    -0.281 N 
ATOM      5  N   UNL     1      -4.203   3.557  25.037  0.00  0.00    -0.302 NA
ATOM      6  C   UNL     1      -2.498   2.216  23.875  0.00  0.00    +0.109 C 
ATOM      7  C   UNL     1      -1.944   0.834  23.532  0.00  0.00    +0.133 C 
ATOM      8  C   UNL     1      -3.882   2.210  24.522  0.00  0.00    +0.108 C 
ATOM      9  C   UNL     1      -1.796   4.010  25.467  0.00  0.00    +0.125 C 
ATOM     10  C   UNL     1      -3.213   3.984  26.047  0.00  0.00    +0.103 C 
ATOM     11  C   UNL     1      -0.333   2.013  24.811  0.00  0.00    +0.305 C 
ATOM     13  C   UNL     1      -5.551   3.578  25.605  0.00  0.00    +0.105 C 
ENDROOT
BRANCH   4  12
ATOM     12  C   UNL     1       0.355  -0.205  23.776  0.00  0.00    +0.137 C 
BRANCH  12  14
ATOM     14  C   UNL     1       1.256   0.073  22.586  0.00  0.00    +0.178 C 
BRANCH  14   2
ATOM      2  O   UNL     1       2.585  -0.324  22.897  0.00  0.00    -0.381 OA
ATOM     15  C   UNL     1       3.514   0.723  22.648  0.00  0.00    +0.194 C 
ENDBRANCH  14   2
ENDBRANCH  12  14
ENDBRANCH   4  12
TORSDOF 3
ENDMDL
MODEL 3
REMARK VINA RESULT:      -4.6      1.979      5.242
REMARK  Name = 75537137
REMARK  5 active torsions:
REMARK  status: ('A' for Active; 'I' for Inactive)
REMARK    1  A    between atoms: O_2  and  C_14
REMARK    2  A    between atoms: O_2  and  C_15
REMARK    3  A    between atoms: N_4  and  C_12
REMARK    4  A    between atoms: N_5  and  C_13
REMARK    5  A    between atoms: C_12  and  C_14
REMARK                            x       y       z     vdW  Elec       q    Type
REMARK                         _______ _______ _______ _____ _____    ______ ____
ROOT
ATOM      1  O   UNL     1      -0.623   1.754  25.099  0.00  0.00    -0.252 OA
ATOM      3  N   UNL     1      -2.221   0.033  25.181  0.00  0.00    -0.278 N 
ATOM      4  N   UNL     1      -2.936   2.132  24.830  0.00  0.00    -0.281 N 
ATOM      5  N   UNL     1      -3.413  -2.468  24.695  0.00  0.00    -0.302 NA
ATOM      6  C   UNL     1      -3.665  -0.070  25.186  0.00  0.00    +0.109 C 
ATOM      7  C   UNL     1      -4.128   1.310  24.720  0.00  0.00    +0.133 C 
ATOM      8  C   UNL     1      -4.120  -1.231  24.303  0.00  0.00    +0.108 C 
ATOM      9  C   UNL     1      -1.425  -1.155  25.406  0.00  0.00    +0.125 C 
ATOM     10  C   UNL     1      -1.952  -2.309  24.548  0.00  0.00    +0.103 C 
ATOM     11  C   UNL     1      -1.780   1.356  25.048  0.00  0.00    +0.305 C 
ATOM     13  C   UNL     1      -3.885  -3.599  23.896  0.00  0.00    +0.105 C 
ENDROOT
BRANCH   4  12
ATOM     12  C   UNL     1      -2.964   3.557  24.584  0.00  0.00    +0.137 C 
BRANCH  12  14
ATOM     14  C   UNL     1      -2.577   4.345  25.823  0.00  0.00    +0.178 C 
BRANCH  14   2
ATOM      2  O   UNL     1      -1.747   5.437  25.448  0.00  0.00    -0.381 OA
ATOM     15  C   UNL     1      -0.628   5.004  24.686  0.00  0.00    +0.194 C 
ENDBRANCH  14   2
ENDBRANCH  12  14
ENDBRANCH   4  12
TORSDOF 3
ENDMDL
MODEL 4
REMARK VINA RESULT:      -3.9      2.509      4.870
REMARK  Name = 75537137
REMARK  5 active torsions:
REMARK  status: ('A' for Active; 'I' for Inactive)
REMARK    1  A    between atoms: O_2  and  C_14
REMARK    2  A    between atoms: O_2  and  C_15
REMARK    3  A    between atoms: N_4  and  C_12
REMARK    4  A    between atoms: N_5  and  C_13
REMARK    5  A    between atoms: C_12  and  C_14
REMARK                            x       y       z     vdW  Elec       q    Type
REMARK                         _______ _______ _______ _____ _____    ______ ____
ROOT
ATOM      1  O   UNL     1      -1.917   4.472  25.551  0.00  0.00    -0.252 OA
ATOM      3  N   UNL     1      -1.206   2.341  24.864  0.00  0.00    -0.278 N 
ATOM      4  N   UNL     1      -3.342   2.923  24.487  0.00  0.00    -0.281 N 
ATOM      5  N   UNL     1       0.434   0.363  23.722  0.00  0.00    -0.302 NA
ATOM      6  C   UNL     1      -1.819   1.145  24.324  0.00  0.00    +0.109 C 
ATOM      7  C   UNL     1      -3.196   1.620  23.863  0.00  0.00    +0.133 C 
ATOM      8  C   UNL     1      -0.944   0.548  23.224  0.00  0.00    +0.108 C 
ATOM      9  C   UNL     1       0.189   2.311  25.246  0.00  0.00    +0.125 C 
ATOM     10  C   UNL     1       1.020   1.652  24.142  0.00  0.00    +0.103 C 
ATOM     11  C   UNL     1      -2.129   3.381  25.037  0.00  0.00    +0.305 C 
ATOM     13  C   UNL     1       1.267  -0.265  22.695  0.00  0.00    +0.105 C 
ENDROOT
BRANCH   4  12
ATOM     12  C   UNL     1      -4.569   3.684  24.394  0.00  0.00    +0.137 C 
BRANCH  12  14
ATOM     14  C   UNL     1      -5.320   3.696  25.714  0.00  0.00    +0.178 C 
BRANCH  14   2
ATOM      2  O   UNL     1      -5.701   2.369  26.053  0.00  0.00    -0.381 OA
ATOM     15  C   UNL     1      -6.487   1.775  25.029  0.00  0.00    +0.194 C 
ENDBRANCH  14   2
ENDBRANCH  12  14
ENDBRANCH   4  12
TORSDOF 3
ENDMDL
MODEL 5
REMARK VINA RESULT:      -3.4     14.588     16.183
REMARK  Name = 75537137
REMARK  5 active torsions:
REMARK  status: ('A' for Active; 'I' for Inactive)
REMARK    1  A    between atoms: O_2  and  C_14
REMARK    2  A    between atoms: O_2  and  C_15
REMARK    3  A    between atoms: N_4  and  C_12
REMARK    4  A    between atoms: N_5  and  C_13
REMARK    5  A    between atoms: C_12  and  C_14
REMARK                            x       y       z     vdW  Elec       q    Type
REMARK                         _______ _______ _______ _____ _____    ______ ____
ROOT
ATOM      1  O   UNL     1      -4.381 -10.071  17.301  0.00  0.00    -0.252 OA
ATOM      3  N   UNL     1      -4.496 -10.514  14.996  0.00  0.00    -0.278 N 
ATOM      4  N   UNL     1      -6.398 -10.014  16.080  0.00  0.00    -0.281 N 
ATOM      5  N   UNL     1      -3.808 -10.437  12.271  0.00  0.00    -0.302 NA
ATOM      6  C   UNL     1      -5.537 -10.686  14.004  0.00  0.00    +0.109 C 
ATOM      7  C   UNL     1      -6.784 -10.125  14.685  0.00  0.00    +0.133 C 
ATOM      8  C   UNL     1      -5.149  -9.991  12.700  0.00  0.00    +0.108 C 
ATOM      9  C   UNL     1      -3.121 -10.781  14.635  0.00  0.00    +0.125 C 
ATOM     10  C   UNL     1      -2.793 -10.116  13.295  0.00  0.00    +0.103 C 
ATOM     11  C   UNL     1      -5.012 -10.189  16.258  0.00  0.00    +0.305 C 
ATOM     13  C   UNL     1      -3.451  -9.823  10.992  0.00  0.00    +0.105 C 
ENDROOT
BRANCH   4  12
ATOM     12  C   UNL     1      -7.339  -9.617  17.105  0.00  0.00    +0.137 C 
BRANCH  12  14
ATOM     14  C   UNL     1      -8.762  -9.992  16.732  0.00  0.00    +0.178 C 
BRANCH  14   2
ATOM      2  O   UNL     1      -9.658  -9.016  17.246  0.00  0.00    -0.381 OA
ATOM     15  C   UNL     1      -9.621  -7.819  16.481  0.00  0.00    +0.194 C 
ENDBRANCH  14   2
ENDBRANCH  12  14
ENDBRANCH   4  12
TORSDOF 3
ENDMDL
MODEL 6
REMARK VINA RESULT:      -3.2     15.418     17.088
REMARK  Name = 75537137
REMARK  5 active torsions:
REMARK  status: ('A' for Active; 'I' for Inactive)
REMARK    1  A    between atoms: O_2  and  C_14
REMARK    2  A    between atoms: O_2  and  C_15
REMARK    3  A    between atoms: N_4  and  C_12
REMARK    4  A    between atoms: N_5  and  C_13
REMARK    5  A    between atoms: C_12  and  C_14
REMARK                            x       y       z     vdW  Elec       q    Type
REMARK                         _______ _______ _______ _____ _____    ______ ____
ROOT
ATOM      1  O   UNL     1      -7.682  -8.930  11.021  0.00  0.00    -0.252 OA
ATOM      3  N   UNL     1      -7.398  -9.831  13.173  0.00  0.00    -0.278 N 
ATOM      4  N   UNL     1      -5.584  -9.599  11.868  0.00  0.00    -0.281 N 
ATOM      5  N   UNL     1      -7.689 -10.127  15.954  0.00  0.00    -0.302 NA
ATOM      6  C   UNL     1      -6.324 -10.439  13.931  0.00  0.00    +0.109 C 
ATOM      7  C   UNL     1      -5.069 -10.071  13.141  0.00  0.00    +0.133 C 
ATOM      8  C   UNL     1      -6.343  -9.940  15.375  0.00  0.00    +0.108 C 
ATOM      9  C   UNL     1      -8.737  -9.826  13.720  0.00  0.00    +0.125 C 
ATOM     10  C   UNL     1      -8.703  -9.378  15.184  0.00  0.00    +0.103 C 
ATOM     11  C   UNL     1      -6.979  -9.398  11.907  0.00  0.00    +0.305 C 
ATOM     13  C   UNL     1      -7.703  -9.709  17.356  0.00  0.00    +0.105 C 
ENDROOT
BRANCH   4  12
ATOM     12  C   UNL     1      -4.710  -9.246  10.771  0.00  0.00    +0.137 C 
BRANCH  12  14
ATOM     14  C   UNL     1      -3.590 -10.258  10.603  0.00  0.00    +0.178 C 
BRANCH  14   2
ATOM      2  O   UNL     1      -2.337  -9.602  10.748  0.00  0.00    -0.381 OA
ATOM     15  C   UNL     1      -1.606 -10.112  11.855  0.00  0.00    +0.194 C 
ENDBRANCH  14   2
ENDBRANCH  12  14
ENDBRANCH   4  12
TORSDOF 3
ENDMDL
MODEL 7
REMARK VINA RESULT:      -3.2     14.667     16.418
REMARK  Name = 75537137
REMARK  5 active torsions:
REMARK  status: ('A' for Active; 'I' for Inactive)
REMARK    1  A    between atoms: O_2  and  C_14
REMARK    2  A    between atoms: O_2  and  C_15
REMARK    3  A    between atoms: N_4  and  C_12
REMARK    4  A    between atoms: N_5  and  C_13
REMARK    5  A    between atoms: C_12  and  C_14
REMARK                            x       y       z     vdW  Elec       q    Type
REMARK                         _______ _______ _______ _____ _____    ______ ____
ROOT
ATOM      1  O   UNL     1      -4.001 -10.701  13.808  0.00  0.00    -0.252 OA
ATOM      3  N   UNL     1      -5.380 -10.136  15.625  0.00  0.00    -0.278 N 
ATOM      4  N   UNL     1      -6.332 -10.396  13.607  0.00  0.00    -0.281 N 
ATOM      5  N   UNL     1      -6.444 -10.183  18.228  0.00  0.00    -0.302 NA
ATOM      6  C   UNL     1      -6.765  -9.761  15.825  0.00  0.00    +0.109 C 
ATOM      7  C   UNL     1      -7.441 -10.161  14.515  0.00  0.00    +0.133 C 
ATOM      8  C   UNL     1      -7.325 -10.443  17.072  0.00  0.00    +0.108 C 
ATOM      9  C   UNL     1      -4.458 -10.060  16.737  0.00  0.00    +0.125 C 
ATOM     10  C   UNL     1      -5.083 -10.701  17.979  0.00  0.00    +0.103 C 
ATOM     11  C   UNL     1      -5.098 -10.439  14.286  0.00  0.00    +0.305 C 
ATOM     13  C   UNL     1      -7.002 -10.781  19.440  0.00  0.00    +0.105 C 
ENDROOT
BRANCH   4  12
ATOM     12  C   UNL     1      -6.538 -10.696  12.207  0.00  0.00    +0.137 C 
BRANCH  12  14
ATOM     14  C   UNL     1      -6.078  -9.555  11.318  0.00  0.00    +0.178 C 
BRANCH  14   2
ATOM      2  O   UNL     1      -7.142  -9.167  10.460  0.00  0.00    -0.381 OA
ATOM     15  C   UNL     1      -6.942  -9.639   9.134  0.00  0.00    +0.194 C 
ENDBRANCH  14   2
ENDBRANCH  12  14
ENDBRANCH   4  12
TORSDOF 3
ENDMDL
MODEL 8
REMARK VINA RESULT:      -3.1     15.208     17.655
REMARK  Name = 75537137
REMARK  5 active torsions:
REMARK  status: ('A' for Active; 'I' for Inactive)
REMARK    1  A    between atoms: O_2  and  C_14
REMARK    2  A    between atoms: O_2  and  C_15
REMARK    3  A    between atoms: N_4  and  C_12
REMARK    4  A    between atoms: N_5  and  C_13
REMARK    5  A    between atoms: C_12  and  C_14
REMARK                            x       y       z     vdW  Elec       q    Type
REMARK                         _______ _______ _______ _____ _____    ______ ____
ROOT
ATOM      1  O   UNL     1      -8.995  -9.731  13.181  0.00  0.00    -0.252 OA
ATOM      3  N   UNL     1      -7.138  -9.385  11.783  0.00  0.00    -0.278 N 
ATOM      4  N   UNL     1      -6.771 -10.059  13.894  0.00  0.00    -0.281 N 
ATOM      5  N   UNL     1      -5.538  -9.479   9.472  0.00  0.00    -0.302 NA
ATOM      6  C   UNL     1      -5.697  -9.367  11.925  0.00  0.00    +0.109 C 
ATOM      7  C   UNL     1      -5.457 -10.041  13.275  0.00  0.00    +0.133 C 
ATOM      8  C   UNL     1      -5.036 -10.059  10.735  0.00  0.00    +0.108 C 
ATOM      9  C   UNL     1      -7.732  -8.977  10.528  0.00  0.00    +0.125 C 
ATOM     10  C   UNL     1      -7.002  -9.646   9.361  0.00  0.00    +0.103 C 
ATOM     11  C   UNL     1      -7.788  -9.721  12.979  0.00  0.00    +0.305 C 
ATOM     13  C   UNL     1      -4.867 -10.094   8.327  0.00  0.00    +0.105 C 
ENDROOT
BRANCH   4  12
ATOM     12  C   UNL     1      -6.973 -10.523  15.249  0.00  0.00    +0.137 C 
BRANCH  12  14
ATOM     14  C   UNL     1      -6.337  -9.586  16.260  0.00  0.00    +0.178 C 
BRANCH  14   2
ATOM      2  O   UNL     1      -7.226  -9.397  17.353  0.00  0.00    -0.381 OA
ATOM     15  C   UNL     1      -8.507  -8.963  16.915  0.00  0.00    +0.194 C 
ENDBRANCH  14   2
ENDBRANCH  12  14
ENDBRANCH   4  12
TORSDOF 3
ENDMDL
MODEL 9
REMARK VINA RESULT:      -2.9      2.150      5.013
REMARK  Name = 75537137
REMARK  5 active torsions:
REMARK  status: ('A' for Active; 'I' for Inactive)
REMARK    1  A    between atoms: O_2  and  C_14
REMARK    2  A    between atoms: O_2  and  C_15
REMARK    3  A    between atoms: N_4  and  C_12
REMARK    4  A    between atoms: N_5  and  C_13
REMARK    5  A    between atoms: C_12  and  C_14
REMARK                            x       y       z     vdW  Elec       q    Type
REMARK                         _______ _______ _______ _____ _____    ______ ____
ROOT
ATOM      1  O   UNL     1      -1.314   3.189  25.270  0.00  0.00    -0.252 OA
ATOM      3  N   UNL     1      -1.948   0.927  25.253  0.00  0.00    -0.278 N 
ATOM      4  N   UNL     1      -3.454   2.459  24.600  0.00  0.00    -0.281 N 
ATOM      5  N   UNL     1      -1.772  -1.845  24.813  0.00  0.00    -0.302 NA
ATOM      6  C   UNL     1      -3.164   0.171  25.035  0.00  0.00    +0.109 C 
ATOM      7  C   UNL     1      -4.104   1.180  24.377  0.00  0.00    +0.133 C 
ATOM      8  C   UNL     1      -2.874  -1.075  24.202  0.00  0.00    +0.108 C 
ATOM      9  C   UNL     1      -0.759   0.240  25.711  0.00  0.00    +0.125 C 
ATOM     10  C   UNL     1      -0.541  -1.033  24.889  0.00  0.00    +0.103 C 
ATOM     11  C   UNL     1      -2.135   2.304  25.071  0.00  0.00    +0.305 C 
ATOM     13  C   UNL     1      -1.526  -3.073  24.056  0.00  0.00    +0.105 C 
ENDROOT
BRANCH   4  12
ATOM     12  C   UNL     1      -4.076   3.710  24.223  0.00  0.00    +0.137 C 
BRANCH  12  14
ATOM     14  C   UNL     1      -4.983   4.235  25.322  0.00  0.00    +0.178 C 
BRANCH  14   2
ATOM      2  O   UNL     1      -5.142   3.237  26.321  0.00  0.00    -0.381 OA
ATOM     15  C   UNL     1      -6.279   2.422  26.068  0.00  0.00    +0.194 C 
ENDBRANCH  14   2
ENDBRANCH  12  14
ENDBRANCH   4  12
TORSDOF 3
ENDMDL
MODEL 10
REMARK VINA RESULT:      -2.9      2.734      4.681
REMARK  Name = 75537137
REMARK  5 active torsions:
REMARK  status: ('A' for Active; 'I' for Inactive)
REMARK    1  A    between atoms: O_2  and  C_14
REMARK    2  A    between atoms: O_2  and  C_15
REMARK    3  A    between atoms: N_4  and  C_12
REMARK    4  A    between atoms: N_5  and  C_13
REMARK    5  A    between atoms: C_12  and  C_14
REMARK                            x       y       z     vdW  Elec       q    Type
REMARK                         _______ _______ _______ _____ _____    ______ ____
ROOT
ATOM      1  O   UNL     1       0.079   2.738  24.752  0.00  0.00    -0.252 OA
ATOM      3  N   UNL     1      -1.086   0.764  24.235  0.00  0.00    -0.278 N 
ATOM      4  N   UNL     1       1.037   0.962  23.531  0.00  0.00    -0.281 N 
ATOM      5  N   UNL     1      -2.747  -1.476  24.600  0.00  0.00    -0.302 NA
ATOM      6  C   UNL     1      -0.859  -0.418  23.429  0.00  0.00    +0.109 C 
ATOM      7  C   UNL     1       0.643  -0.384  23.152  0.00  0.00    +0.133 C 
ATOM      8  C   UNL     1      -1.348  -1.665  24.164  0.00  0.00    +0.108 C 
ATOM      9  C   UNL     1      -2.386   0.972  24.837  0.00  0.00    +0.125 C 
ATOM     10  C   UNL     1      -2.864  -0.318  25.509  0.00  0.00    +0.103 C 
ATOM     11  C   UNL     1       0.015   1.630  24.234  0.00  0.00    +0.305 C 
ATOM     13  C   UNL     1      -3.246  -2.687  25.251  0.00  0.00    +0.105 C 
ENDROOT
BRANCH   4  12
ATOM     12  C   UNL     1       2.381   1.454  23.321  0.00  0.00    +0.137 C 
BRANCH  12  14
ATOM     14  C   UNL     1       3.299   0.364  22.797  0.00  0.00    +0.178 C 
BRANCH  14   2
ATOM      2  O   UNL     1       4.638   0.650  23.180  0.00  0.00    -0.381 OA
ATOM     15  C   UNL     1       5.232  -0.447  23.860  0.00  0.00    +0.194 C 
ENDBRANCH  14   2
ENDBRANCH  12  14
ENDBRANCH   4  12
TORSDOF 3
ENDMDL
