MODEL 1
REMARK VINA RESULT:      -0.4      0.000      0.000
REMARK  Name = 51137941
REMARK  5 active torsions:
REMARK  status: ('A' for Active; 'I' for Inactive)
REMARK    1  A    between atoms: O_6  and  C_20
REMARK    2  A    between atoms: O_6  and  C_24
REMARK    3  A    between atoms: C_12  and  C_16
REMARK    4  A    between atoms: C_18  and  C_20
REMARK    5  A    between atoms: C_19  and  C_23
REMARK                            x       y       z     vdW  Elec       q    Type
REMARK                         _______ _______ _______ _____ _____    ______ ____
ROOT
ATOM      7  N   UNL     1       0.114   0.694  24.489  0.00  0.00    -0.299 N 
ATOM      9  N   UNL     1       2.269   0.793  23.641  0.00  0.00    -0.210 NA
ATOM     10  N   UNL     1       0.502  -0.323  22.442  0.00  0.00    -0.223 NA
ATOM     12  C   UNL     1      -0.872   1.797  26.347  0.00  0.00    +0.095 C 
ATOM     13  C   UNL     1      -1.767   0.636  25.904  0.00  0.00    +0.033 C 
ATOM     14  C   UNL     1       0.477   1.439  25.695  0.00  0.00    +0.121 C 
ATOM     15  C   UNL     1      -1.297   0.323  24.483  0.00  0.00    +0.109 C 
ATOM     17  C   UNL     1       1.000   0.375  23.481  0.00  0.00    +0.218 A 
ATOM     19  C   UNL     1       3.108   0.464  22.637  0.00  0.00    +0.149 A 
ATOM     21  C   UNL     1       1.394  -0.618  21.475  0.00  0.00    +0.116 A 
ATOM     22  C   UNL     1       2.723  -0.247  21.519  0.00  0.00    +0.052 A 
ENDROOT
BRANCH  12  16
ATOM      5  O   UNL     1      -2.758   3.370  26.360  0.00  0.00    -0.421 OA
ATOM      8  N   UNL     1      -0.937   4.145  25.317  0.00  0.00    -0.112 NA
ATOM     11  N   UNL     1      -1.914   5.120  25.252  0.00  0.00    -0.109 NA
ATOM     16  C   UNL     1      -1.473   3.142  25.972  0.00  0.00    +0.222 A 
ATOM     18  C   UNL     1      -2.959   4.625  25.873  0.00  0.00    +0.254 A 
BRANCH  18  20
ATOM     20  C   UNL     1      -4.278   5.225  26.110  0.00  0.00    +0.326 C 
BRANCH  20   6
ATOM      6  O   UNL     1      -5.253   4.634  25.247  0.00  0.00    -0.483 OA
BRANCH   6  24
ATOM      4  F   UNL     1      -4.713  -0.746  24.263  0.00  0.00    -0.205 F 
ATOM     24  C   UNL     1      -5.119   3.297  25.003  0.00  0.00    +0.121 A 
ATOM     25  C   UNL     1      -5.713   2.368  25.858  0.00  0.00    +0.048 A 
ATOM     26  C   UNL     1      -4.389   2.860  23.897  0.00  0.00    +0.048 A 
ATOM     27  C   UNL     1      -5.575   1.002  25.609  0.00  0.00    +0.042 A 
ATOM     28  C   UNL     1      -4.251   1.494  23.648  0.00  0.00    +0.042 A 
ATOM     29  C   UNL     1      -4.844   0.565  24.504  0.00  0.00    +0.124 A 
ENDBRANCH   6  24
ENDBRANCH  20   6
ENDBRANCH  18  20
ENDBRANCH  12  16
BRANCH  19  23
ATOM      1  F   UNL     1       5.020   0.780  24.039  0.00  0.00    -0.164 F 
ATOM      2  F   UNL     1       4.696   2.223  22.444  0.00  0.00    -0.164 F 
ATOM      3  F   UNL     1       5.395   0.217  21.978  0.00  0.00    -0.164 F 
ATOM     23  C   UNL     1       4.525   0.909  22.772  0.00  0.00    +0.434 C 
ENDBRANCH  19  23
TORSDOF 5
ENDMDL
MODEL 2
REMARK VINA RESULT:       0.6      3.658      4.622
REMARK  Name = 51137941
REMARK  5 active torsions:
REMARK  status: ('A' for Active; 'I' for Inactive)
REMARK    1  A    between atoms: O_6  and  C_20
REMARK    2  A    between atoms: O_6  and  C_24
REMARK    3  A    between atoms: C_12  and  C_16
REMARK    4  A    between atoms: C_18  and  C_20
REMARK    5  A    between atoms: C_19  and  C_23
REMARK                            x       y       z     vdW  Elec       q    Type
REMARK                         _______ _______ _______ _____ _____    ______ ____
ROOT
ATOM      7  N   UNL     1      -0.452   0.666  24.078  0.00  0.00    -0.299 N 
ATOM      9  N   UNL     1      -2.149  -0.910  23.975  0.00  0.00    -0.210 NA
ATOM     10  N   UNL     1      -0.225  -1.231  25.391  0.00  0.00    -0.223 NA
ATOM     12  C   UNL     1      -0.326   2.867  23.194  0.00  0.00    +0.095 C 
ATOM     13  C   UNL     1       1.075   2.391  23.592  0.00  0.00    +0.033 C 
ATOM     14  C   UNL     1      -1.110   1.543  23.109  0.00  0.00    +0.121 C 
ATOM     15  C   UNL     1       0.817   1.220  24.540  0.00  0.00    +0.109 C 
ATOM     17  C   UNL     1      -0.964  -0.543  24.499  0.00  0.00    +0.218 A 
ATOM     19  C   UNL     1      -2.620  -2.098  24.409  0.00  0.00    +0.149 A 
ATOM     21  C   UNL     1      -0.756  -2.408  25.782  0.00  0.00    +0.116 A 
ATOM     22  C   UNL     1      -1.961  -2.897  25.320  0.00  0.00    +0.052 A 
ENDROOT
BRANCH  12  16
ATOM      5  O   UNL     1      -1.863   3.524  24.993  0.00  0.00    -0.421 OA
ATOM      8  N   UNL     1      -0.495   5.162  24.324  0.00  0.00    -0.112 NA
ATOM     11  N   UNL     1      -1.299   5.662  25.331  0.00  0.00    -0.109 NA
ATOM     16  C   UNL     1      -0.858   3.912  24.160  0.00  0.00    +0.222 A 
ATOM     18  C   UNL     1      -2.081   4.671  25.691  0.00  0.00    +0.254 A 
BRANCH  18  20
ATOM     20  C   UNL     1      -3.130   4.633  26.719  0.00  0.00    +0.326 C 
BRANCH  20   6
ATOM      6  O   UNL     1      -4.423   4.619  26.108  0.00  0.00    -0.483 OA
BRANCH   6  24
ATOM      4  F   UNL     1      -6.172  -0.227  24.193  0.00  0.00    -0.205 F 
ATOM     24  C   UNL     1      -4.858   3.415  25.632  0.00  0.00    +0.121 A 
ATOM     25  C   UNL     1      -5.808   2.684  26.346  0.00  0.00    +0.048 A 
ATOM     26  C   UNL     1      -4.351   2.915  24.432  0.00  0.00    +0.048 A 
ATOM     27  C   UNL     1      -6.252   1.454  25.860  0.00  0.00    +0.042 A 
ATOM     28  C   UNL     1      -4.795   1.684  23.946  0.00  0.00    +0.042 A 
ATOM     29  C   UNL     1      -5.745   0.954  24.660  0.00  0.00    +0.124 A 
ENDBRANCH   6  24
ENDBRANCH  20   6
ENDBRANCH  18  20
ENDBRANCH  12  16
BRANCH  19  23
ATOM      1  F   UNL     1      -4.284  -1.901  22.701  0.00  0.00    -0.164 F 
ATOM      2  F   UNL     1      -4.966  -2.334  24.720  0.00  0.00    -0.164 F 
ATOM      3  F   UNL     1      -3.973  -3.873  23.548  0.00  0.00    -0.164 F 
ATOM     23  C   UNL     1      -3.931  -2.542  23.854  0.00  0.00    +0.434 C 
ENDBRANCH  19  23
TORSDOF 5
ENDMDL
MODEL 3
REMARK VINA RESULT:       0.9      3.614      6.618
REMARK  Name = 51137941
REMARK  5 active torsions:
REMARK  status: ('A' for Active; 'I' for Inactive)
REMARK    1  A    between atoms: O_6  and  C_20
REMARK    2  A    between atoms: O_6  and  C_24
REMARK    3  A    between atoms: C_12  and  C_16
REMARK    4  A    between atoms: C_18  and  C_20
REMARK    5  A    between atoms: C_19  and  C_23
REMARK                            x       y       z     vdW  Elec       q    Type
REMARK                         _______ _______ _______ _____ _____    ______ ____
ROOT
ATOM      7  N   UNL     1      -4.476   1.954  24.834  0.00  0.00    -0.299 N 
ATOM      9  N   UNL     1      -2.851   3.587  24.581  0.00  0.00    -0.210 NA
ATOM     10  N   UNL     1      -4.176   3.438  26.588  0.00  0.00    -0.223 NA
ATOM     12  C   UNL     1      -4.977   0.049  23.506  0.00  0.00    +0.095 C 
ATOM     13  C   UNL     1      -6.144   0.335  24.456  0.00  0.00    +0.033 C 
ATOM     14  C   UNL     1      -4.215   1.387  23.509  0.00  0.00    +0.121 C 
ATOM     15  C   UNL     1      -5.539   1.237  25.532  0.00  0.00    +0.109 C 
ATOM     17  C   UNL     1      -3.805   3.039  25.356  0.00  0.00    +0.218 A 
ATOM     19  C   UNL     1      -2.215   4.646  25.124  0.00  0.00    +0.149 A 
ATOM     21  C   UNL     1      -3.499   4.501  27.069  0.00  0.00    +0.116 A 
ATOM     22  C   UNL     1      -2.499   5.152  26.375  0.00  0.00    +0.052 A 
ENDROOT
BRANCH  12  16
ATOM      5  O   UNL     1      -2.849  -1.034  24.078  0.00  0.00    -0.421 OA
ATOM      8  N   UNL     1      -4.620  -2.394  24.199  0.00  0.00    -0.112 NA
ATOM     11  N   UNL     1      -3.497  -3.123  24.544  0.00  0.00    -0.109 NA
ATOM     16  C   UNL     1      -4.194  -1.181  23.937  0.00  0.00    +0.222 A 
ATOM     18  C   UNL     1      -2.487  -2.289  24.459  0.00  0.00    +0.254 A 
BRANCH  18  20
ATOM     20  C   UNL     1      -1.059  -2.519  24.715  0.00  0.00    +0.326 C 
BRANCH  20   6
ATOM      6  O   UNL     1      -0.266  -1.589  23.971  0.00  0.00    -0.483 OA
BRANCH   6  24
ATOM      4  F   UNL     1       0.305   3.427  26.144  0.00  0.00    -0.205 F 
ATOM     24  C   UNL     1      -0.124  -0.343  24.512  0.00  0.00    +0.121 A 
ATOM     25  C   UNL     1      -0.708  -0.045  25.744  0.00  0.00    +0.048 A 
ATOM     26  C   UNL     1       0.605   0.633  23.832  0.00  0.00    +0.048 A 
ATOM     27  C   UNL     1      -0.563   1.228  26.295  0.00  0.00    +0.042 A 
ATOM     28  C   UNL     1       0.749   1.907  24.383  0.00  0.00    +0.042 A 
ATOM     29  C   UNL     1       0.165   2.204  25.615  0.00  0.00    +0.124 A 
ENDBRANCH   6  24
ENDBRANCH  20   6
ENDBRANCH  18  20
ENDBRANCH  12  16
BRANCH  19  23
ATOM      1  F   UNL     1      -0.117   5.792  25.035  0.00  0.00    -0.164 F 
ATOM      2  F   UNL     1      -1.615   6.327  23.552  0.00  0.00    -0.164 F 
ATOM      3  F   UNL     1      -0.562   4.429  23.407  0.00  0.00    -0.164 F 
ATOM     23  C   UNL     1      -1.148   5.283  24.298  0.00  0.00    +0.434 C 
ENDBRANCH  19  23
TORSDOF 5
ENDMDL
MODEL 4
REMARK VINA RESULT:       0.9      3.948      5.922
REMARK  Name = 51137941
REMARK  5 active torsions:
REMARK  status: ('A' for Active; 'I' for Inactive)
REMARK    1  A    between atoms: O_6  and  C_20
REMARK    2  A    between atoms: O_6  and  C_24
REMARK    3  A    between atoms: C_12  and  C_16
REMARK    4  A    between atoms: C_18  and  C_20
REMARK    5  A    between atoms: C_19  and  C_23
REMARK                            x       y       z     vdW  Elec       q    Type
REMARK                         _______ _______ _______ _____ _____    ______ ____
ROOT
ATOM      7  N   UNL     1      -0.401   0.944  24.978  0.00  0.00    -0.299 N 
ATOM      9  N   UNL     1      -1.624   2.671  25.926  0.00  0.00    -0.210 NA
ATOM     10  N   UNL     1      -0.333   3.005  23.919  0.00  0.00    -0.223 NA
ATOM     12  C   UNL     1      -0.361  -1.379  25.471  0.00  0.00    +0.095 C 
ATOM     13  C   UNL     1       0.855  -1.014  24.616  0.00  0.00    +0.033 C 
ATOM     14  C   UNL     1      -0.804  -0.007  26.015  0.00  0.00    +0.121 C 
ATOM     15  C   UNL     1       0.485   0.332  23.993  0.00  0.00    +0.109 C 
ATOM     17  C   UNL     1      -0.804   2.262  24.940  0.00  0.00    +0.218 A 
ATOM     19  C   UNL     1      -1.997   3.965  25.857  0.00  0.00    +0.149 A 
ATOM     21  C   UNL     1      -0.747   4.289  23.911  0.00  0.00    +0.116 A 
ATOM     22  C   UNL     1      -1.586   4.830  24.864  0.00  0.00    +0.052 A 
ENDROOT
BRANCH  12  16
ATOM      5  O   UNL     1      -2.649  -1.639  24.617  0.00  0.00    -0.421 OA
ATOM      8  N   UNL     1      -1.262  -3.287  24.014  0.00  0.00    -0.112 NA
ATOM     11  N   UNL     1      -2.505  -3.554  23.471  0.00  0.00    -0.109 NA
ATOM     16  C   UNL     1      -1.393  -2.160  24.673  0.00  0.00    +0.222 A 
ATOM     18  C   UNL     1      -3.282  -2.566  23.849  0.00  0.00    +0.254 A 
BRANCH  18  20
ATOM     20  C   UNL     1      -4.703  -2.330  23.561  0.00  0.00    +0.326 C 
BRANCH  20   6
ATOM      6  O   UNL     1      -5.246  -1.385  24.486  0.00  0.00    -0.483 OA
BRANCH   6  24
ATOM      4  F   UNL     1      -4.050   3.900  23.568  0.00  0.00    -0.205 F 
ATOM     24  C   UNL     1      -4.949  -0.071  24.259  0.00  0.00    +0.121 A 
ATOM     25  C   UNL     1      -5.698   0.931  24.877  0.00  0.00    +0.048 A 
ATOM     26  C   UNL     1      -3.896   0.268  23.407  0.00  0.00    +0.048 A 
ATOM     27  C   UNL     1      -5.394   2.273  24.643  0.00  0.00    +0.042 A 
ATOM     28  C   UNL     1      -3.594   1.610  23.174  0.00  0.00    +0.042 A 
ATOM     29  C   UNL     1      -4.342   2.612  23.791  0.00  0.00    +0.124 A 
ENDBRANCH   6  24
ENDBRANCH  20   6
ENDBRANCH  18  20
ENDBRANCH  12  16
BRANCH  19  23
ATOM      1  F   UNL     1      -2.489   4.142  28.192  0.00  0.00    -0.164 F 
ATOM      2  F   UNL     1      -4.169   3.949  26.825  0.00  0.00    -0.164 F 
ATOM      3  F   UNL     1      -3.060   5.816  26.937  0.00  0.00    -0.164 F 
ATOM     23  C   UNL     1      -2.907   4.459  26.931  0.00  0.00    +0.434 C 
ENDBRANCH  19  23
TORSDOF 5
ENDMDL
MODEL 5
REMARK VINA RESULT:       1.0      3.458      6.730
REMARK  Name = 51137941
REMARK  5 active torsions:
REMARK  status: ('A' for Active; 'I' for Inactive)
REMARK    1  A    between atoms: O_6  and  C_20
REMARK    2  A    between atoms: O_6  and  C_24
REMARK    3  A    between atoms: C_12  and  C_16
REMARK    4  A    between atoms: C_18  and  C_20
REMARK    5  A    between atoms: C_19  and  C_23
REMARK                            x       y       z     vdW  Elec       q    Type
REMARK                         _______ _______ _______ _____ _____    ______ ____
ROOT
ATOM      7  N   UNL     1      -4.489   1.852  24.829  0.00  0.00    -0.299 N 
ATOM      9  N   UNL     1      -2.813   3.454  24.821  0.00  0.00    -0.210 NA
ATOM     10  N   UNL     1      -4.388   3.297  26.639  0.00  0.00    -0.223 NA
ATOM     12  C   UNL     1      -4.852  -0.017  23.409  0.00  0.00    +0.095 C 
ATOM     13  C   UNL     1      -6.126   0.278  24.207  0.00  0.00    +0.033 C 
ATOM     14  C   UNL     1      -4.071   1.305  23.537  0.00  0.00    +0.121 C 
ATOM     15  C   UNL     1      -5.646   1.146  25.370  0.00  0.00    +0.109 C 
ATOM     17  C   UNL     1      -3.870   2.913  25.456  0.00  0.00    +0.218 A 
ATOM     19  C   UNL     1      -2.232   4.489  25.463  0.00  0.00    +0.149 A 
ATOM     21  C   UNL     1      -3.757   4.336  27.225  0.00  0.00    +0.116 A 
ATOM     22  C   UNL     1      -2.665   4.978  26.678  0.00  0.00    +0.052 A 
ENDROOT
BRANCH  12  16
ATOM      5  O   UNL     1      -2.806  -1.200  24.073  0.00  0.00    -0.421 OA
ATOM      8  N   UNL     1      -4.660  -2.443  24.216  0.00  0.00    -0.112 NA
ATOM     11  N   UNL     1      -3.590  -3.222  24.616  0.00  0.00    -0.109 NA
ATOM     16  C   UNL     1      -4.155  -1.271  23.909  0.00  0.00    +0.222 A 
ATOM     18  C   UNL     1      -2.529  -2.456  24.516  0.00  0.00    +0.254 A 
BRANCH  18  20
ATOM     20  C   UNL     1      -1.124  -2.761  24.812  0.00  0.00    +0.326 C 
BRANCH  20   6
ATOM      6  O   UNL     1      -0.584  -1.787  25.710  0.00  0.00    -0.483 OA
BRANCH   6  24
ATOM      4  F   UNL     1       0.958   2.999  23.492  0.00  0.00    -0.205 F 
ATOM     24  C   UNL     1      -0.201  -0.597  25.158  0.00  0.00    +0.121 A 
ATOM     25  C   UNL     1       0.498  -0.581  23.950  0.00  0.00    +0.048 A 
ATOM     26  C   UNL     1      -0.508   0.601  25.803  0.00  0.00    +0.048 A 
ATOM     27  C   UNL     1       0.890   0.634  23.387  0.00  0.00    +0.042 A 
ATOM     28  C   UNL     1      -0.116   1.817  25.240  0.00  0.00    +0.042 A 
ATOM     29  C   UNL     1       0.583   1.833  24.032  0.00  0.00    +0.124 A 
ENDBRANCH   6  24
ENDBRANCH  20   6
ENDBRANCH  18  20
ENDBRANCH  12  16
BRANCH  19  23
ATOM      1  F   UNL     1       0.130   4.868  25.424  0.00  0.00    -0.164 F 
ATOM      2  F   UNL     1      -1.156   6.477  24.727  0.00  0.00    -0.164 F 
ATOM      3  F   UNL     1      -0.870   4.700  23.507  0.00  0.00    -0.164 F 
ATOM     23  C   UNL     1      -1.056   5.117  24.794  0.00  0.00    +0.434 C 
ENDBRANCH  19  23
TORSDOF 5
ENDMDL
MODEL 6
REMARK VINA RESULT:       1.0      2.323      3.301
REMARK  Name = 51137941
REMARK  5 active torsions:
REMARK  status: ('A' for Active; 'I' for Inactive)
REMARK    1  A    between atoms: O_6  and  C_20
REMARK    2  A    between atoms: O_6  and  C_24
REMARK    3  A    between atoms: C_12  and  C_16
REMARK    4  A    between atoms: C_18  and  C_20
REMARK    5  A    between atoms: C_19  and  C_23
REMARK                            x       y       z     vdW  Elec       q    Type
REMARK                         _______ _______ _______ _____ _____    ______ ____
ROOT
ATOM      7  N   UNL     1      -0.984  -1.076  24.018  0.00  0.00    -0.299 N 
ATOM      9  N   UNL     1       1.014   0.004  23.549  0.00  0.00    -0.210 NA
ATOM     10  N   UNL     1       0.031  -1.547  21.988  0.00  0.00    -0.223 NA
ATOM     12  C   UNL     1      -2.551  -0.742  25.771  0.00  0.00    +0.095 C 
ATOM     13  C   UNL     1      -2.817  -2.089  25.093  0.00  0.00    +0.033 C 
ATOM     14  C   UNL     1      -1.110  -0.428  25.324  0.00  0.00    +0.121 C 
ATOM     15  C   UNL     1      -2.097  -1.980  23.749  0.00  0.00    +0.109 C 
ATOM     17  C   UNL     1       0.065  -0.863  23.148  0.00  0.00    +0.218 A 
ATOM     19  C   UNL     1       2.024   0.188  22.674  0.00  0.00    +0.149 A 
ATOM     21  C   UNL     1       1.071  -1.315  21.160  0.00  0.00    +0.116 A 
ATOM     22  C   UNL     1       2.107  -0.450  21.453  0.00  0.00    +0.052 A 
ENDROOT
BRANCH  12  16
ATOM      5  O   UNL     1      -3.261   1.244  24.513  0.00  0.00    -0.421 OA
ATOM      8  N   UNL     1      -4.847   0.398  25.846  0.00  0.00    -0.112 NA
ATOM     11  N   UNL     1      -5.374   1.502  25.201  0.00  0.00    -0.109 NA
ATOM     16  C   UNL     1      -3.613   0.285  25.413  0.00  0.00    +0.222 A 
ATOM     18  C   UNL     1      -4.414   1.963  24.434  0.00  0.00    +0.254 A 
BRANCH  18  20
ATOM     20  C   UNL     1      -4.415   3.117  23.525  0.00  0.00    +0.326 C 
BRANCH  20   6
ATOM      6  O   UNL     1      -3.592   4.162  24.051  0.00  0.00    -0.483 OA
BRANCH   6  24
ATOM      4  F   UNL     1       1.014   2.602  26.611  0.00  0.00    -0.205 F 
ATOM     24  C   UNL     1      -2.448   3.774  24.687  0.00  0.00    +0.121 A 
ATOM     25  C   UNL     1      -2.404   3.733  26.082  0.00  0.00    +0.048 A 
ATOM     26  C   UNL     1      -1.322   3.419  23.943  0.00  0.00    +0.048 A 
ATOM     27  C   UNL     1      -1.234   3.337  26.731  0.00  0.00    +0.042 A 
ATOM     28  C   UNL     1      -0.152   3.024  24.593  0.00  0.00    +0.042 A 
ATOM     29  C   UNL     1      -0.108   2.983  25.987  0.00  0.00    +0.124 A 
ENDBRANCH   6  24
ENDBRANCH  20   6
ENDBRANCH  18  20
ENDBRANCH  12  16
BRANCH  19  23
ATOM      1  F   UNL     1       3.896   0.674  24.081  0.00  0.00    -0.164 F 
ATOM      2  F   UNL     1       2.598   2.330  23.531  0.00  0.00    -0.164 F 
ATOM      3  F   UNL     1       3.951   1.467  22.063  0.00  0.00    -0.164 F 
ATOM     23  C   UNL     1       3.096   1.142  23.078  0.00  0.00    +0.434 C 
ENDBRANCH  19  23
TORSDOF 5
ENDMDL
MODEL 7
REMARK VINA RESULT:       1.0      4.212      6.993
REMARK  Name = 51137941
REMARK  5 active torsions:
REMARK  status: ('A' for Active; 'I' for Inactive)
REMARK    1  A    between atoms: O_6  and  C_20
REMARK    2  A    between atoms: O_6  and  C_24
REMARK    3  A    between atoms: C_12  and  C_16
REMARK    4  A    between atoms: C_18  and  C_20
REMARK    5  A    between atoms: C_19  and  C_23
REMARK                            x       y       z     vdW  Elec       q    Type
REMARK                         _______ _______ _______ _____ _____    ______ ____
ROOT
ATOM      7  N   UNL     1      -1.865   3.514  25.359  0.00  0.00    -0.299 N 
ATOM      9  N   UNL     1      -3.980   2.717  25.874  0.00  0.00    -0.210 NA
ATOM     10  N   UNL     1      -3.675   4.608  24.411  0.00  0.00    -0.223 NA
ATOM     12  C   UNL     1       0.284   2.605  25.806  0.00  0.00    +0.095 C 
ATOM     13  C   UNL     1       0.421   4.077  25.405  0.00  0.00    +0.033 C 
ATOM     14  C   UNL     1      -1.205   2.506  26.191  0.00  0.00    +0.121 C 
ATOM     15  C   UNL     1      -0.903   4.402  24.714  0.00  0.00    +0.109 C 
ATOM     17  C   UNL     1      -3.231   3.616  25.208  0.00  0.00    +0.218 A 
ATOM     19  C   UNL     1      -5.312   2.847  25.703  0.00  0.00    +0.149 A 
ATOM     21  C   UNL     1      -5.016   4.679  24.285  0.00  0.00    +0.116 A 
ATOM     22  C   UNL     1      -5.893   3.818  24.914  0.00  0.00    +0.052 A 
ENDROOT
BRANCH  12  16
ATOM      5  O   UNL     1       0.113   0.489  24.571  0.00  0.00    -0.421 OA
ATOM      8  N   UNL     1       1.731   1.844  23.830  0.00  0.00    -0.112 NA
ATOM     11  N   UNL     1       1.743   0.700  23.054  0.00  0.00    -0.109 NA
ATOM     16  C   UNL     1       0.763   1.678  24.701  0.00  0.00    +0.222 A 
ATOM     18  C   UNL     1       0.782  -0.062  23.522  0.00  0.00    +0.254 A 
BRANCH  18  20
ATOM     20  C   UNL     1       0.342  -1.391  23.079  0.00  0.00    +0.326 C 
BRANCH  20   6
ATOM      6  O   UNL     1      -0.419  -2.030  24.108  0.00  0.00    -0.483 OA
BRANCH   6  24
ATOM      4  F   UNL     1      -5.817  -1.003  24.157  0.00  0.00    -0.205 F 
ATOM     24  C   UNL     1      -1.761  -1.774  24.120  0.00  0.00    +0.121 A 
ATOM     25  C   UNL     1      -2.221  -0.457  24.101  0.00  0.00    +0.048 A 
ATOM     26  C   UNL     1      -2.671  -2.831  24.152  0.00  0.00    +0.048 A 
ATOM     27  C   UNL     1      -3.591  -0.196  24.114  0.00  0.00    +0.042 A 
ATOM     28  C   UNL     1      -4.042  -2.570  24.165  0.00  0.00    +0.042 A 
ATOM     29  C   UNL     1      -4.502  -1.253  24.146  0.00  0.00    +0.124 A 
ENDBRANCH   6  24
ENDBRANCH  20   6
ENDBRANCH  18  20
ENDBRANCH  12  16
BRANCH  19  23
ATOM      1  F   UNL     1      -5.590   0.652  26.613  0.00  0.00    -0.164 F 
ATOM      2  F   UNL     1      -7.343   1.612  25.758  0.00  0.00    -0.164 F 
ATOM      3  F   UNL     1      -6.553   2.283  27.670  0.00  0.00    -0.164 F 
ATOM     23  C   UNL     1      -6.179   1.869  26.422  0.00  0.00    +0.434 C 
ENDBRANCH  19  23
TORSDOF 5
ENDMDL
MODEL 8
REMARK VINA RESULT:       1.3      1.459      1.953
REMARK  Name = 51137941
REMARK  5 active torsions:
REMARK  status: ('A' for Active; 'I' for Inactive)
REMARK    1  A    between atoms: O_6  and  C_20
REMARK    2  A    between atoms: O_6  and  C_24
REMARK    3  A    between atoms: C_12  and  C_16
REMARK    4  A    between atoms: C_18  and  C_20
REMARK    5  A    between atoms: C_19  and  C_23
REMARK                            x       y       z     vdW  Elec       q    Type
REMARK                         _______ _______ _______ _____ _____    ______ ____
ROOT
ATOM      7  N   UNL     1       0.597   0.104  23.704  0.00  0.00    -0.299 N 
ATOM      9  N   UNL     1       2.915   0.109  23.723  0.00  0.00    -0.210 NA
ATOM     10  N   UNL     1       1.679  -0.072  21.662  0.00  0.00    -0.223 NA
ATOM     12  C   UNL     1      -0.967   0.547  25.437  0.00  0.00    +0.095 C 
ATOM     13  C   UNL     1      -1.676  -0.144  24.267  0.00  0.00    +0.033 C 
ATOM     14  C   UNL     1       0.514   0.221  25.161  0.00  0.00    +0.121 C 
ATOM     15  C   UNL     1      -0.724   0.048  23.087  0.00  0.00    +0.109 C 
ATOM     17  C   UNL     1       1.781   0.045  23.000  0.00  0.00    +0.218 A 
ATOM     19  C   UNL     1       4.053   0.049  23.001  0.00  0.00    +0.149 A 
ATOM     21  C   UNL     1       2.855  -0.125  21.004  0.00  0.00    +0.116 A 
ATOM     22  C   UNL     1       4.086  -0.070  21.627  0.00  0.00    +0.052 A 
ENDROOT
BRANCH  12  16
ATOM      5  O   UNL     1      -2.067   2.531  24.497  0.00  0.00    -0.421 OA
ATOM      8  N   UNL     1      -1.052   2.898  26.456  0.00  0.00    -0.112 NA
ATOM     11  N   UNL     1      -1.627   4.086  26.042  0.00  0.00    -0.109 NA
ATOM     16  C   UNL     1      -1.335   2.019  25.524  0.00  0.00    +0.222 A 
ATOM     18  C   UNL     1      -2.207   3.824  24.895  0.00  0.00    +0.254 A 
BRANCH  18  20
ATOM     20  C   UNL     1      -2.970   4.712  24.008  0.00  0.00    +0.326 C 
BRANCH  20   6
ATOM      6  O   UNL     1      -4.139   4.046  23.524  0.00  0.00    -0.483 OA
BRANCH   6  24
ATOM      4  F   UNL     1      -6.872   0.954  27.154  0.00  0.00    -0.205 F 
ATOM     24  C   UNL     1      -4.818   3.277  24.427  0.00  0.00    +0.121 A 
ATOM     25  C   UNL     1      -4.891   1.894  24.251  0.00  0.00    +0.048 A 
ATOM     26  C   UNL     1      -5.438   3.874  25.525  0.00  0.00    +0.048 A 
ATOM     27  C   UNL     1      -5.585   1.110  25.172  0.00  0.00    +0.042 A 
ATOM     28  C   UNL     1      -6.132   3.089  26.446  0.00  0.00    +0.042 A 
ATOM     29  C   UNL     1      -6.206   1.707  26.270  0.00  0.00    +0.124 A 
ENDBRANCH   6  24
ENDBRANCH  20   6
ENDBRANCH  18  20
ENDBRANCH  12  16
BRANCH  19  23
ATOM      1  F   UNL     1       5.597   1.354  24.281  0.00  0.00    -0.164 F 
ATOM      2  F   UNL     1       6.419  -0.196  22.996  0.00  0.00    -0.164 F 
ATOM      3  F   UNL     1       5.383  -0.733  24.831  0.00  0.00    -0.164 F 
ATOM     23  C   UNL     1       5.334   0.118  23.763  0.00  0.00    +0.434 C 
ENDBRANCH  19  23
TORSDOF 5
ENDMDL
MODEL 9
REMARK VINA RESULT:       1.5      3.458      7.803
REMARK  Name = 51137941
REMARK  5 active torsions:
REMARK  status: ('A' for Active; 'I' for Inactive)
REMARK    1  A    between atoms: O_6  and  C_20
REMARK    2  A    between atoms: O_6  and  C_24
REMARK    3  A    between atoms: C_12  and  C_16
REMARK    4  A    between atoms: C_18  and  C_20
REMARK    5  A    between atoms: C_19  and  C_23
REMARK                            x       y       z     vdW  Elec       q    Type
REMARK                         _______ _______ _______ _____ _____    ______ ____
ROOT
ATOM      7  N   UNL     1      -3.842   1.604  24.779  0.00  0.00    -0.299 N 
ATOM      9  N   UNL     1      -2.800   3.673  24.681  0.00  0.00    -0.210 NA
ATOM     10  N   UNL     1      -4.161   3.044  26.567  0.00  0.00    -0.223 NA
ATOM     12  C   UNL     1      -3.613  -0.313  23.396  0.00  0.00    +0.095 C 
ATOM     13  C   UNL     1      -4.881  -0.441  24.247  0.00  0.00    +0.033 C 
ATOM     14  C   UNL     1      -3.314   1.196  23.477  0.00  0.00    +0.121 C 
ATOM     15  C   UNL     1      -4.675   0.566  25.378  0.00  0.00    +0.109 C 
ATOM     17  C   UNL     1      -3.590   2.826  25.367  0.00  0.00    +0.218 A 
ATOM     19  C   UNL     1      -2.574   4.857  25.286  0.00  0.00    +0.149 A 
ATOM     21  C   UNL     1      -3.893   4.248  27.114  0.00  0.00    +0.116 A 
ATOM     22  C   UNL     1      -3.099   5.204  26.514  0.00  0.00    +0.052 A 
ENDROOT
BRANCH  12  16
ATOM      5  O   UNL     1      -1.241  -0.783  23.823  0.00  0.00    -0.421 OA
ATOM      8  N   UNL     1      -2.611  -2.470  24.354  0.00  0.00    -0.112 NA
ATOM     11  N   UNL     1      -1.317  -2.863  24.642  0.00  0.00    -0.109 NA
ATOM     16  C   UNL     1      -2.518  -1.250  23.880  0.00  0.00    +0.222 A 
ATOM     18  C   UNL     1      -0.552  -1.848  24.316  0.00  0.00    +0.254 A 
BRANCH  18  20
ATOM     20  C   UNL     1       0.907  -1.707  24.411  0.00  0.00    +0.326 C 
BRANCH  20   6
ATOM      6  O   UNL     1       1.402  -0.928  23.318  0.00  0.00    -0.483 OA
BRANCH   6  24
ATOM      4  F   UNL     1       6.758   0.299  23.414  0.00  0.00    -0.205 F 
ATOM     24  C   UNL     1       2.734  -0.624  23.342  0.00  0.00    +0.121 A 
ATOM     25  C   UNL     1       3.653  -1.552  23.830  0.00  0.00    +0.048 A 
ATOM     26  C   UNL     1       3.174   0.617  22.878  0.00  0.00    +0.048 A 
ATOM     27  C   UNL     1       5.013  -1.241  23.855  0.00  0.00    +0.042 A 
ATOM     28  C   UNL     1       4.533   0.928  22.903  0.00  0.00    +0.042 A 
ATOM     29  C   UNL     1       5.453  -0.000  23.392  0.00  0.00    +0.124 A 
ENDBRANCH   6  24
ENDBRANCH  20   6
ENDBRANCH  18  20
ENDBRANCH  12  16
BRANCH  19  23
ATOM      1  F   UNL     1      -1.333   6.903  25.314  0.00  0.00    -0.164 F 
ATOM      2  F   UNL     1      -2.304   6.345  23.450  0.00  0.00    -0.164 F 
ATOM      3  F   UNL     1      -0.529   5.282  24.119  0.00  0.00    -0.164 F 
ATOM     23  C   UNL     1      -1.702   5.825  24.560  0.00  0.00    +0.434 C 
ENDBRANCH  19  23
TORSDOF 5
ENDMDL
MODEL 10
REMARK VINA RESULT:       3.0      3.539      5.118
REMARK  Name = 51137941
REMARK  5 active torsions:
REMARK  status: ('A' for Active; 'I' for Inactive)
REMARK    1  A    between atoms: O_6  and  C_20
REMARK    2  A    between atoms: O_6  and  C_24
REMARK    3  A    between atoms: C_12  and  C_16
REMARK    4  A    between atoms: C_18  and  C_20
REMARK    5  A    between atoms: C_19  and  C_23
REMARK                            x       y       z     vdW  Elec       q    Type
REMARK                         _______ _______ _______ _____ _____    ______ ____
ROOT
ATOM      7  N   UNL     1      -0.344   0.413  24.775  0.00  0.00    -0.299 N 
ATOM      9  N   UNL     1       0.214   1.450  26.772  0.00  0.00    -0.210 NA
ATOM     10  N   UNL     1       0.233   2.656  24.686  0.00  0.00    -0.223 NA
ATOM     12  C   UNL     1      -1.276  -1.730  24.350  0.00  0.00    +0.095 C 
ATOM     13  C   UNL     1      -0.698  -1.154  23.054  0.00  0.00    +0.033 C 
ATOM     14  C   UNL     1      -0.581  -0.876  25.428  0.00  0.00    +0.121 C 
ATOM     15  C   UNL     1      -0.568   0.343  23.335  0.00  0.00    +0.109 C 
ATOM     17  C   UNL     1       0.051   1.555  25.440  0.00  0.00    +0.218 A 
ATOM     19  C   UNL     1       0.600   2.586  27.389  0.00  0.00    +0.149 A 
ATOM     21  C   UNL     1       0.618   3.755  25.367  0.00  0.00    +0.116 A 
ATOM     22  C   UNL     1       0.820   3.779  26.733  0.00  0.00    +0.052 A 
ENDROOT
BRANCH  12  16
ATOM      5  O   UNL     1      -3.398  -0.576  24.790  0.00  0.00    -0.421 OA
ATOM      8  N   UNL     1      -3.642  -2.640  23.963  0.00  0.00    -0.112 NA
ATOM     11  N   UNL     1      -4.902  -2.108  24.163  0.00  0.00    -0.109 NA
ATOM     16  C   UNL     1      -2.796  -1.712  24.342  0.00  0.00    +0.222 A 
ATOM     18  C   UNL     1      -4.711  -0.903  24.646  0.00  0.00    +0.254 A 
BRANCH  18  20
ATOM     20  C   UNL     1      -5.695   0.114  25.039  0.00  0.00    +0.326 C 
BRANCH  20   6
ATOM      6  O   UNL     1      -5.604   1.251  24.177  0.00  0.00    -0.483 OA
BRANCH   6  24
ATOM      4  F   UNL     1      -2.142   5.229  25.728  0.00  0.00    -0.205 F 
ATOM     24  C   UNL     1      -4.743   2.240  24.563  0.00  0.00    +0.121 A 
ATOM     25  C   UNL     1      -4.900   2.856  25.805  0.00  0.00    +0.048 A 
ATOM     26  C   UNL     1      -3.707   2.633  23.715  0.00  0.00    +0.048 A 
ATOM     27  C   UNL     1      -4.021   3.866  26.199  0.00  0.00    +0.042 A 
ATOM     28  C   UNL     1      -2.829   3.644  24.108  0.00  0.00    +0.042 A 
ATOM     29  C   UNL     1      -2.986   4.260  25.350  0.00  0.00    +0.124 A 
ENDBRANCH   6  24
ENDBRANCH  20   6
ENDBRANCH  18  20
ENDBRANCH  12  16
BRANCH  19  23
ATOM      1  F   UNL     1      -0.255   3.027  29.580  0.00  0.00    -0.164 F 
ATOM      2  F   UNL     1       1.893   3.203  29.288  0.00  0.00    -0.164 F 
ATOM      3  F   UNL     1       0.952   1.242  29.337  0.00  0.00    -0.164 F 
ATOM     23  C   UNL     1       0.791   2.515  28.867  0.00  0.00    +0.434 C 
ENDBRANCH  19  23
TORSDOF 5
ENDMDL
