MODEL 1
REMARK VINA RESULT:      -3.6      0.000      0.000
REMARK  Name = 75536688
REMARK  10 active torsions:
REMARK  status: ('A' for Active; 'I' for Inactive)
REMARK    1  A    between atoms: S_1  and  N_10
REMARK    2  A    between atoms: S_1  and  C_18
REMARK    3  A    between atoms: S_2  and  C_21
REMARK    4  A    between atoms: S_2  and  C_28
REMARK    5  A    between atoms: O_4  and  C_12
REMARK    6  A    between atoms: N_9  and  C_11
REMARK    7  A    between atoms: N_9  and  C_16
REMARK    8  A    between atoms: N_10  and  C_15
REMARK    9  A    between atoms: C_13  and  C_15
REMARK   10  A    between atoms: C_16  and  C_17
REMARK                            x       y       z     vdW  Elec       q    Type
REMARK                         _______ _______ _______ _____ _____    ______ ____
ROOT
ATOM      3  O   UNL     1      -0.161   3.712  23.844  0.00  0.00    -0.371 OA
ATOM     11  C   UNL     1      -1.941   4.388  25.265  0.00  0.00    +0.111 C 
ATOM     12  C   UNL     1      -1.385   3.066  25.762  0.00  0.00    +0.164 C 
ATOM     13  C   UNL     1      -0.004   3.068  25.120  0.00  0.00    +0.164 C 
ATOM     14  C   UNL     1      -1.415   4.417  23.839  0.00  0.00    +0.181 C 
ENDROOT
BRANCH  12   4
ATOM      4  O   UNL     1      -1.310   3.002  27.173  0.00  0.00    -0.388 OA
ATOM     31  H   UNL     1      -2.153   2.656  27.510  0.00  0.00    +0.210 HD
ENDBRANCH  12   4
BRANCH  11   9
ATOM      9  N   UNL     1      -3.390   4.474  25.335  0.00  0.00    -0.305 NA
ATOM     30  H   UNL     1      -3.666   5.456  25.341  0.00  0.00    +0.123 HD
BRANCH   9  16
ATOM     16  C   UNL     1      -4.011   3.818  24.189  0.00  0.00    +0.116 C 
BRANCH  16  17
ATOM     17  C   UNL     1      -3.897   2.320  24.270  0.00  0.00    -0.033 A 
ATOM     19  C   UNL     1      -4.587   1.621  25.261  0.00  0.00    +0.007 A 
ATOM     20  C   UNL     1      -3.100   1.630  23.356  0.00  0.00    +0.007 A 
ATOM     21  C   UNL     1      -3.685  -0.457  24.422  0.00  0.00    +0.088 A 
ATOM     22  C   UNL     1      -4.481   0.232  25.336  0.00  0.00    +0.027 A 
ATOM     23  C   UNL     1      -2.995   0.241  23.433  0.00  0.00    +0.027 A 
BRANCH  21   2
ATOM      2  S   UNL     1      -3.550  -2.196  24.519  0.00  0.00    -0.006 S 
ATOM      7  O   UNL     1      -3.607  -2.597  25.919  0.00  0.00    -0.170 OA
ATOM      8  O   UNL     1      -4.487  -2.772  23.564  0.00  0.00    -0.170 OA
ATOM     28  C   UNL     1      -1.903  -2.545  23.948  0.00  0.00    +0.200 C 
ENDBRANCH  21   2
ENDBRANCH  16  17
ENDBRANCH   9  16
ENDBRANCH  11   9
BRANCH  13  15
ATOM     15  C   UNL     1       0.569   1.677  24.924  0.00  0.00    +0.140 C 
BRANCH  15  10
ATOM     10  N   UNL     1       0.892   1.469  23.499  0.00  0.00    -0.187 NA
ATOM     32  H   UNL     1       0.479   2.146  22.844  0.00  0.00    +0.148 HD
BRANCH  10   1
ATOM      1  S   UNL     1       1.261  -0.090  22.927  0.00  0.00    +0.058 S 
ATOM      5  O   UNL     1       1.045  -0.141  21.494  0.00  0.00    -0.153 OA
ATOM      6  O   UNL     1       0.634  -1.070  23.794  0.00  0.00    -0.153 OA
BRANCH   1  18
ATOM     18  C   UNL     1       3.001  -0.181  23.221  0.00  0.00    +0.105 A 
ATOM     24  C   UNL     1       3.812   0.924  22.956  0.00  0.00    +0.028 A 
ATOM     25  C   UNL     1       3.565  -1.356  23.717  0.00  0.00    +0.028 A 
ATOM     26  C   UNL     1       5.186   0.852  23.188  0.00  0.00    +0.002 A 
ATOM     27  C   UNL     1       4.938  -1.428  23.948  0.00  0.00    +0.002 A 
ATOM     29  C   UNL     1       5.749  -0.324  23.684  0.00  0.00    +0.000 A 
ENDBRANCH   1  18
ENDBRANCH  10   1
ENDBRANCH  15  10
ENDBRANCH  13  15
TORSDOF 9
ENDMDL
MODEL 2
REMARK VINA RESULT:      -2.9      2.440      4.483
REMARK  Name = 75536688
REMARK  10 active torsions:
REMARK  status: ('A' for Active; 'I' for Inactive)
REMARK    1  A    between atoms: S_1  and  N_10
REMARK    2  A    between atoms: S_1  and  C_18
REMARK    3  A    between atoms: S_2  and  C_21
REMARK    4  A    between atoms: S_2  and  C_28
REMARK    5  A    between atoms: O_4  and  C_12
REMARK    6  A    between atoms: N_9  and  C_11
REMARK    7  A    between atoms: N_9  and  C_16
REMARK    8  A    between atoms: N_10  and  C_15
REMARK    9  A    between atoms: C_13  and  C_15
REMARK   10  A    between atoms: C_16  and  C_17
REMARK                            x       y       z     vdW  Elec       q    Type
REMARK                         _______ _______ _______ _____ _____    ______ ____
ROOT
ATOM      3  O   UNL     1      -1.720  -0.951  26.551  0.00  0.00    -0.371 OA
ATOM     11  C   UNL     1      -2.978  -2.564  25.343  0.00  0.00    +0.111 C 
ATOM     12  C   UNL     1      -1.837  -2.072  24.471  0.00  0.00    +0.164 C 
ATOM     13  C   UNL     1      -0.887  -1.510  25.520  0.00  0.00    +0.164 C 
ATOM     14  C   UNL     1      -3.054  -1.462  26.387  0.00  0.00    +0.181 C 
ENDROOT
BRANCH  12   4
ATOM      4  O   UNL     1      -1.238  -3.110  23.720  0.00  0.00    -0.388 OA
ATOM     31  H   UNL     1      -1.347  -2.907  22.775  0.00  0.00    +0.210 HD
ENDBRANCH  12   4
BRANCH  11   9
ATOM      9  N   UNL     1      -4.226  -2.746  24.621  0.00  0.00    -0.305 NA
ATOM     30  H   UNL     1      -5.006  -2.539  25.245  0.00  0.00    +0.123 HD
BRANCH   9  16
ATOM     16  C   UNL     1      -4.300  -1.858  23.466  0.00  0.00    +0.116 C 
BRANCH  16  17
ATOM     17  C   UNL     1      -4.293  -0.408  23.873  0.00  0.00    -0.033 A 
ATOM     19  C   UNL     1      -3.284   0.439  23.415  0.00  0.00    +0.007 A 
ATOM     20  C   UNL     1      -5.295   0.086  24.708  0.00  0.00    +0.007 A 
ATOM     21  C   UNL     1      -4.280   2.277  24.626  0.00  0.00    +0.088 A 
ATOM     22  C   UNL     1      -3.278   1.783  23.793  0.00  0.00    +0.027 A 
ATOM     23  C   UNL     1      -5.288   1.429  25.084  0.00  0.00    +0.027 A 
BRANCH  21   2
ATOM      2  S   UNL     1      -4.270   3.958  25.101  0.00  0.00    -0.006 S 
ATOM      7  O   UNL     1      -3.938   4.774  23.941  0.00  0.00    -0.170 OA
ATOM      8  O   UNL     1      -5.496   4.221  25.843  0.00  0.00    -0.170 OA
ATOM     28  C   UNL     1      -2.906   4.090  26.234  0.00  0.00    +0.200 C 
ENDBRANCH  21   2
ENDBRANCH  16  17
ENDBRANCH   9  16
ENDBRANCH  11   9
BRANCH  13  15
ATOM     15  C   UNL     1       0.043  -0.441  24.977  0.00  0.00    +0.140 C 
BRANCH  15  10
ATOM     10  N   UNL     1       0.724  -0.945  23.767  0.00  0.00    -0.187 NA
ATOM     32  H   UNL     1       1.067  -1.913  23.818  0.00  0.00    +0.148 HD
BRANCH  10   1
ATOM      1  S   UNL     1       1.509   0.139  22.718  0.00  0.00    +0.058 S 
ATOM      5  O   UNL     1       1.141   1.498  23.066  0.00  0.00    -0.153 OA
ATOM      6  O   UNL     1       1.357  -0.331  21.353  0.00  0.00    -0.153 OA
BRANCH   1  18
ATOM     18  C   UNL     1       3.205  -0.097  23.157  0.00  0.00    +0.105 A 
ATOM     24  C   UNL     1       4.112   0.956  23.024  0.00  0.00    +0.028 A 
ATOM     25  C   UNL     1       3.637  -1.333  23.636  0.00  0.00    +0.028 A 
ATOM     26  C   UNL     1       5.451   0.770  23.371  0.00  0.00    +0.002 A 
ATOM     27  C   UNL     1       4.975  -1.519  23.982  0.00  0.00    +0.002 A 
ATOM     29  C   UNL     1       5.882  -0.467  23.849  0.00  0.00    +0.000 A 
ENDBRANCH   1  18
ENDBRANCH  10   1
ENDBRANCH  15  10
ENDBRANCH  13  15
TORSDOF 9
ENDMDL
MODEL 3
REMARK VINA RESULT:      -2.7      2.102      5.304
REMARK  Name = 75536688
REMARK  10 active torsions:
REMARK  status: ('A' for Active; 'I' for Inactive)
REMARK    1  A    between atoms: S_1  and  N_10
REMARK    2  A    between atoms: S_1  and  C_18
REMARK    3  A    between atoms: S_2  and  C_21
REMARK    4  A    between atoms: S_2  and  C_28
REMARK    5  A    between atoms: O_4  and  C_12
REMARK    6  A    between atoms: N_9  and  C_11
REMARK    7  A    between atoms: N_9  and  C_16
REMARK    8  A    between atoms: N_10  and  C_15
REMARK    9  A    between atoms: C_13  and  C_15
REMARK   10  A    between atoms: C_16  and  C_17
REMARK                            x       y       z     vdW  Elec       q    Type
REMARK                         _______ _______ _______ _____ _____    ______ ____
ROOT
ATOM      3  O   UNL     1      -5.510   3.037  26.317  0.00  0.00    -0.371 OA
ATOM     11  C   UNL     1      -3.918   4.159  24.957  0.00  0.00    +0.111 C 
ATOM     12  C   UNL     1      -4.296   2.845  24.296  0.00  0.00    +0.164 C 
ATOM     13  C   UNL     1      -5.630   2.552  24.969  0.00  0.00    +0.164 C 
ATOM     14  C   UNL     1      -4.375   3.918  26.386  0.00  0.00    +0.181 C 
ENDROOT
BRANCH  12   4
ATOM      4  O   UNL     1      -4.427   2.959  22.893  0.00  0.00    -0.388 OA
ATOM     31  H   UNL     1      -4.296   3.890  22.647  0.00  0.00    +0.210 HD
ENDBRANCH  12   4
BRANCH  11   9
ATOM      9  N   UNL     1      -2.502   4.473  24.861  0.00  0.00    -0.305 NA
ATOM     30  H   UNL     1      -2.359   5.451  25.116  0.00  0.00    +0.123 HD
BRANCH   9  16
ATOM     16  C   UNL     1      -1.716   3.634  25.759  0.00  0.00    +0.116 C 
BRANCH  16  17
ATOM     17  C   UNL     1      -0.797   2.711  25.003  0.00  0.00    -0.033 A 
ATOM     19  C   UNL     1      -1.229   2.115  23.818  0.00  0.00    +0.007 A 
ATOM     20  C   UNL     1       0.485   2.452  25.488  0.00  0.00    +0.007 A 
ATOM     21  C   UNL     1       0.904   1.002  23.601  0.00  0.00    +0.088 A 
ATOM     22  C   UNL     1      -0.377   1.260  23.117  0.00  0.00    +0.027 A 
ATOM     23  C   UNL     1       1.335   1.597  24.786  0.00  0.00    +0.027 A 
BRANCH  21   2
ATOM      2  S   UNL     1       1.969  -0.071  22.726  0.00  0.00    -0.006 S 
ATOM      7  O   UNL     1       2.322  -1.192  23.587  0.00  0.00    -0.170 OA
ATOM      8  O   UNL     1       1.376  -0.323  21.420  0.00  0.00    -0.170 OA
ATOM     28  C   UNL     1       3.451   0.880  22.480  0.00  0.00    +0.200 C 
ENDBRANCH  21   2
ENDBRANCH  16  17
ENDBRANCH   9  16
ENDBRANCH  11   9
BRANCH  13  15
ATOM     15  C   UNL     1      -5.982   1.075  24.985  0.00  0.00    +0.140 C 
BRANCH  15  10
ATOM     10  N   UNL     1      -4.767   0.279  25.253  0.00  0.00    -0.187 NA
ATOM     32  H   UNL     1      -4.128   0.665  25.958  0.00  0.00    +0.148 HD
BRANCH  10   1
ATOM      1  S   UNL     1      -4.126  -0.729  24.042  0.00  0.00    +0.058 S 
ATOM      5  O   UNL     1      -3.865   0.056  22.851  0.00  0.00    -0.153 OA
ATOM      6  O   UNL     1      -4.929  -1.935  23.958  0.00  0.00    -0.153 OA
BRANCH   1  18
ATOM     18  C   UNL     1      -2.571  -1.192  24.742  0.00  0.00    +0.105 A 
ATOM     24  C   UNL     1      -2.082  -0.517  25.861  0.00  0.00    +0.028 A 
ATOM     25  C   UNL     1      -1.833  -2.232  24.178  0.00  0.00    +0.028 A 
ATOM     26  C   UNL     1      -0.854  -0.882  26.414  0.00  0.00    +0.002 A 
ATOM     27  C   UNL     1      -0.606  -2.597  24.730  0.00  0.00    +0.002 A 
ATOM     29  C   UNL     1      -0.117  -1.922  25.849  0.00  0.00    +0.000 A 
ENDBRANCH   1  18
ENDBRANCH  10   1
ENDBRANCH  15  10
ENDBRANCH  13  15
TORSDOF 9
ENDMDL
MODEL 4
REMARK VINA RESULT:      -1.5      3.011      5.567
REMARK  Name = 75536688
REMARK  10 active torsions:
REMARK  status: ('A' for Active; 'I' for Inactive)
REMARK    1  A    between atoms: S_1  and  N_10
REMARK    2  A    between atoms: S_1  and  C_18
REMARK    3  A    between atoms: S_2  and  C_21
REMARK    4  A    between atoms: S_2  and  C_28
REMARK    5  A    between atoms: O_4  and  C_12
REMARK    6  A    between atoms: N_9  and  C_11
REMARK    7  A    between atoms: N_9  and  C_16
REMARK    8  A    between atoms: N_10  and  C_15
REMARK    9  A    between atoms: C_13  and  C_15
REMARK   10  A    between atoms: C_16  and  C_17
REMARK                            x       y       z     vdW  Elec       q    Type
REMARK                         _______ _______ _______ _____ _____    ______ ____
ROOT
ATOM      3  O   UNL     1      -1.479  -1.359  26.338  0.00  0.00    -0.371 OA
ATOM     11  C   UNL     1      -3.170  -2.583  25.205  0.00  0.00    +0.111 C 
ATOM     12  C   UNL     1      -1.950  -2.477  24.308  0.00  0.00    +0.164 C 
ATOM     13  C   UNL     1      -0.861  -2.175  25.329  0.00  0.00    +0.164 C 
ATOM     14  C   UNL     1      -2.907  -1.467  26.202  0.00  0.00    +0.181 C 
ENDROOT
BRANCH  12   4
ATOM      4  O   UNL     1      -1.690  -3.672  23.598  0.00  0.00    -0.388 OA
ATOM     31  H   UNL     1      -2.165  -3.635  22.751  0.00  0.00    +0.210 HD
ENDBRANCH  12   4
BRANCH  11   9
ATOM      9  N   UNL     1      -4.430  -2.423  24.496  0.00  0.00    -0.305 NA
ATOM     30  H   UNL     1      -5.137  -2.082  25.147  0.00  0.00    +0.123 HD
BRANCH   9  16
ATOM     16  C   UNL     1      -4.299  -1.467  23.401  0.00  0.00    +0.116 C 
BRANCH  16  17
ATOM     17  C   UNL     1      -4.434  -0.046  23.879  0.00  0.00    -0.033 A 
ATOM     19  C   UNL     1      -5.514   0.319  24.683  0.00  0.00    +0.007 A 
ATOM     20  C   UNL     1      -3.481   0.906  23.517  0.00  0.00    +0.007 A 
ATOM     21  C   UNL     1      -4.687   2.587  24.764  0.00  0.00    +0.088 A 
ATOM     22  C   UNL     1      -5.640   1.636  25.126  0.00  0.00    +0.027 A 
ATOM     23  C   UNL     1      -3.608   2.222  23.960  0.00  0.00    +0.027 A 
BRANCH  21   2
ATOM      2  S   UNL     1      -4.846   4.237  25.316  0.00  0.00    -0.006 S 
ATOM      7  O   UNL     1      -4.187   5.119  24.362  0.00  0.00    -0.170 OA
ATOM      8  O   UNL     1      -6.243   4.460  25.662  0.00  0.00    -0.170 OA
ATOM     28  C   UNL     1      -3.894   4.295  26.817  0.00  0.00    +0.200 C 
ENDBRANCH  21   2
ENDBRANCH  16  17
ENDBRANCH   9  16
ENDBRANCH  11   9
BRANCH  13  15
ATOM     15  C   UNL     1       0.330  -1.444  24.737  0.00  0.00    +0.140 C 
BRANCH  15  10
ATOM     10  N   UNL     1       0.171   0.010  24.942  0.00  0.00    -0.187 NA
ATOM     32  H   UNL     1      -0.532   0.288  25.638  0.00  0.00    +0.148 HD
BRANCH  10   1
ATOM      1  S   UNL     1       0.538   1.093  23.683  0.00  0.00    +0.058 S 
ATOM      5  O   UNL     1      -0.227   0.737  22.504  0.00  0.00    -0.153 OA
ATOM      6  O   UNL     1       1.979   1.246  23.597  0.00  0.00    -0.153 OA
BRANCH   1  18
ATOM     18  C   UNL     1      -0.104   2.613  24.313  0.00  0.00    +0.105 A 
ATOM     24  C   UNL     1      -0.577   2.679  25.625  0.00  0.00    +0.028 A 
ATOM     25  C   UNL     1      -0.140   3.747  23.502  0.00  0.00    +0.028 A 
ATOM     26  C   UNL     1      -1.085   3.880  26.123  0.00  0.00    +0.002 A 
ATOM     27  C   UNL     1      -0.647   4.946  24.000  0.00  0.00    +0.002 A 
ATOM     29  C   UNL     1      -1.120   5.013  25.310  0.00  0.00    +0.000 A 
ENDBRANCH   1  18
ENDBRANCH  10   1
ENDBRANCH  15  10
ENDBRANCH  13  15
TORSDOF 9
ENDMDL
MODEL 5
REMARK VINA RESULT:      -1.5      2.108      4.484
REMARK  Name = 75536688
REMARK  10 active torsions:
REMARK  status: ('A' for Active; 'I' for Inactive)
REMARK    1  A    between atoms: S_1  and  N_10
REMARK    2  A    between atoms: S_1  and  C_18
REMARK    3  A    between atoms: S_2  and  C_21
REMARK    4  A    between atoms: S_2  and  C_28
REMARK    5  A    between atoms: O_4  and  C_12
REMARK    6  A    between atoms: N_9  and  C_11
REMARK    7  A    between atoms: N_9  and  C_16
REMARK    8  A    between atoms: N_10  and  C_15
REMARK    9  A    between atoms: C_13  and  C_15
REMARK   10  A    between atoms: C_16  and  C_17
REMARK                            x       y       z     vdW  Elec       q    Type
REMARK                         _______ _______ _______ _____ _____    ______ ____
ROOT
ATOM      3  O   UNL     1      -2.003  -1.018  26.431  0.00  0.00    -0.371 OA
ATOM     11  C   UNL     1      -3.474  -1.918  24.797  0.00  0.00    +0.111 C 
ATOM     12  C   UNL     1      -2.072  -1.853  24.218  0.00  0.00    +0.164 C 
ATOM     13  C   UNL     1      -1.234  -1.785  25.488  0.00  0.00    +0.164 C 
ATOM     14  C   UNL     1      -3.363  -0.952  25.964  0.00  0.00    +0.181 C 
ENDROOT
BRANCH  12   4
ATOM      4  O   UNL     1      -1.752  -2.987  23.436  0.00  0.00    -0.388 OA
ATOM     31  H   UNL     1      -2.062  -2.830  22.528  0.00  0.00    +0.210 HD
ENDBRANCH  12   4
BRANCH  11   9
ATOM      9  N   UNL     1      -4.512  -1.545  23.850  0.00  0.00    -0.305 NA
ATOM     30  H   UNL     1      -5.229  -2.271  23.837  0.00  0.00    +0.123 HD
BRANCH   9  16
ATOM     16  C   UNL     1      -5.133  -0.279  24.224  0.00  0.00    +0.116 C 
BRANCH  16  17
ATOM     17  C   UNL     1      -4.120   0.828  24.347  0.00  0.00    -0.033 A 
ATOM     19  C   UNL     1      -4.208   1.740  25.398  0.00  0.00    +0.007 A 
ATOM     20  C   UNL     1      -3.093   0.940  23.409  0.00  0.00    +0.007 A 
ATOM     21  C   UNL     1      -2.242   2.878  24.575  0.00  0.00    +0.088 A 
ATOM     22  C   UNL     1      -3.269   2.766  25.512  0.00  0.00    +0.027 A 
ATOM     23  C   UNL     1      -2.154   1.966  23.524  0.00  0.00    +0.027 A 
BRANCH  21   2
ATOM      2  S   UNL     1      -1.068   4.163  24.716  0.00  0.00    -0.006 S 
ATOM      7  O   UNL     1      -0.384   4.319  23.439  0.00  0.00    -0.170 OA
ATOM      8  O   UNL     1      -1.729   5.309  25.327  0.00  0.00    -0.170 OA
ATOM     28  C   UNL     1       0.131   3.543  25.873  0.00  0.00    +0.200 C 
ENDBRANCH  21   2
ENDBRANCH  16  17
ENDBRANCH   9  16
ENDBRANCH  11   9
BRANCH  13  15
ATOM     15  C   UNL     1       0.120  -1.131  25.280  0.00  0.00    +0.140 C 
BRANCH  15  10
ATOM     10  N   UNL     1       0.583  -1.380  23.899  0.00  0.00    -0.187 NA
ATOM     32  H   UNL     1       0.942  -2.325  23.713  0.00  0.00    +0.148 HD
BRANCH  10   1
ATOM      1  S   UNL     1       1.157  -0.092  22.949  0.00  0.00    +0.058 S 
ATOM      5  O   UNL     1       0.683   1.163  23.501  0.00  0.00    -0.153 OA
ATOM      6  O   UNL     1       0.933  -0.402  21.549  0.00  0.00    -0.153 OA
BRANCH   1  18
ATOM     18  C   UNL     1       2.900  -0.187  23.225  0.00  0.00    +0.105 A 
ATOM     24  C   UNL     1       3.465  -1.367  23.710  0.00  0.00    +0.028 A 
ATOM     25  C   UNL     1       3.710   0.916  22.960  0.00  0.00    +0.028 A 
ATOM     26  C   UNL     1       4.841  -1.442  23.929  0.00  0.00    +0.002 A 
ATOM     27  C   UNL     1       5.085   0.841  23.178  0.00  0.00    +0.002 A 
ATOM     29  C   UNL     1       5.651  -0.338  23.663  0.00  0.00    +0.000 A 
ENDBRANCH   1  18
ENDBRANCH  10   1
ENDBRANCH  15  10
ENDBRANCH  13  15
TORSDOF 9
ENDMDL
MODEL 6
REMARK VINA RESULT:      -0.9      2.730      7.320
REMARK  Name = 75536688
REMARK  10 active torsions:
REMARK  status: ('A' for Active; 'I' for Inactive)
REMARK    1  A    between atoms: S_1  and  N_10
REMARK    2  A    between atoms: S_1  and  C_18
REMARK    3  A    between atoms: S_2  and  C_21
REMARK    4  A    between atoms: S_2  and  C_28
REMARK    5  A    between atoms: O_4  and  C_12
REMARK    6  A    between atoms: N_9  and  C_11
REMARK    7  A    between atoms: N_9  and  C_16
REMARK    8  A    between atoms: N_10  and  C_15
REMARK    9  A    between atoms: C_13  and  C_15
REMARK   10  A    between atoms: C_16  and  C_17
REMARK                            x       y       z     vdW  Elec       q    Type
REMARK                         _______ _______ _______ _____ _____    ______ ____
ROOT
ATOM      3  O   UNL     1      -1.678   3.144  25.888  0.00  0.00    -0.371 OA
ATOM     11  C   UNL     1      -0.910   1.562  24.291  0.00  0.00    +0.111 C 
ATOM     12  C   UNL     1      -2.278   2.066  23.869  0.00  0.00    +0.164 C 
ATOM     13  C   UNL     1      -2.359   3.375  24.642  0.00  0.00    +0.164 C 
ATOM     14  C   UNL     1      -0.886   1.950  25.760  0.00  0.00    +0.181 C 
ENDROOT
BRANCH  12   4
ATOM      4  O   UNL     1      -2.377   2.270  22.474  0.00  0.00    -0.388 OA
ATOM     31  H   UNL     1      -2.201   1.425  22.027  0.00  0.00    +0.210 HD
ENDBRANCH  12   4
BRANCH  11   9
ATOM      9  N   UNL     1      -0.724   0.135  24.080  0.00  0.00    -0.305 NA
ATOM     30  H   UNL     1      -1.637  -0.319  24.053  0.00  0.00    +0.123 HD
BRANCH   9  16
ATOM     16  C   UNL     1      -0.032  -0.123  22.822  0.00  0.00    +0.116 C 
BRANCH  16  17
ATOM     17  C   UNL     1       1.464  -0.095  22.990  0.00  0.00    -0.033 A 
ATOM     19  C   UNL     1       2.137  -1.234  23.431  0.00  0.00    +0.007 A 
ATOM     20  C   UNL     1       2.176   1.070  22.704  0.00  0.00    +0.007 A 
ATOM     21  C   UNL     1       4.236  -0.044  23.300  0.00  0.00    +0.088 A 
ATOM     22  C   UNL     1       3.524  -1.208  23.586  0.00  0.00    +0.027 A 
ATOM     23  C   UNL     1       3.562   1.094  22.859  0.00  0.00    +0.027 A 
BRANCH  21   2
ATOM      2  S   UNL     1       5.971  -0.011  23.498  0.00  0.00    -0.006 S 
ATOM      7  O   UNL     1       6.596  -0.415  22.245  0.00  0.00    -0.170 OA
ATOM      8  O   UNL     1       6.328   1.263  24.106  0.00  0.00    -0.170 OA
ATOM     28  C   UNL     1       6.307  -1.295  24.681  0.00  0.00    +0.200 C 
ENDBRANCH  21   2
ENDBRANCH  16  17
ENDBRANCH   9  16
ENDBRANCH  11   9
BRANCH  13  15
ATOM     15  C   UNL     1      -3.783   3.826  24.913  0.00  0.00    +0.140 C 
BRANCH  15  10
ATOM     10  N   UNL     1      -4.728   2.908  24.246  0.00  0.00    -0.187 NA
ATOM     32  H   UNL     1      -5.082   3.218  23.333  0.00  0.00    +0.148 HD
BRANCH  10   1
ATOM      1  S   UNL     1      -5.689   1.855  25.173  0.00  0.00    +0.058 S 
ATOM      5  O   UNL     1      -6.961   1.652  24.508  0.00  0.00    -0.153 OA
ATOM      6  O   UNL     1      -5.652   2.281  26.560  0.00  0.00    -0.153 OA
BRANCH   1  18
ATOM     18  C   UNL     1      -4.774   0.346  25.074  0.00  0.00    +0.105 A 
ATOM     24  C   UNL     1      -4.001  -0.073  26.157  0.00  0.00    +0.028 A 
ATOM     25  C   UNL     1      -4.824  -0.426  23.913  0.00  0.00    +0.028 A 
ATOM     26  C   UNL     1      -3.278  -1.264  26.078  0.00  0.00    +0.002 A 
ATOM     27  C   UNL     1      -4.102  -1.616  23.835  0.00  0.00    +0.002 A 
ATOM     29  C   UNL     1      -3.329  -2.035  24.918  0.00  0.00    +0.000 A 
ENDBRANCH   1  18
ENDBRANCH  10   1
ENDBRANCH  15  10
ENDBRANCH  13  15
TORSDOF 9
ENDMDL
MODEL 7
REMARK VINA RESULT:      -0.9      2.591      4.837
REMARK  Name = 75536688
REMARK  10 active torsions:
REMARK  status: ('A' for Active; 'I' for Inactive)
REMARK    1  A    between atoms: S_1  and  N_10
REMARK    2  A    between atoms: S_1  and  C_18
REMARK    3  A    between atoms: S_2  and  C_21
REMARK    4  A    between atoms: S_2  and  C_28
REMARK    5  A    between atoms: O_4  and  C_12
REMARK    6  A    between atoms: N_9  and  C_11
REMARK    7  A    between atoms: N_9  and  C_16
REMARK    8  A    between atoms: N_10  and  C_15
REMARK    9  A    between atoms: C_13  and  C_15
REMARK   10  A    between atoms: C_16  and  C_17
REMARK                            x       y       z     vdW  Elec       q    Type
REMARK                         _______ _______ _______ _____ _____    ______ ____
ROOT
ATOM      3  O   UNL     1      -1.918  -1.245  26.561  0.00  0.00    -0.371 OA
ATOM     11  C   UNL     1      -3.211  -2.716  25.216  0.00  0.00    +0.111 C 
ATOM     12  C   UNL     1      -1.989  -2.273  24.432  0.00  0.00    +0.164 C 
ATOM     13  C   UNL     1      -1.067  -1.822  25.556  0.00  0.00    +0.164 C 
ATOM     14  C   UNL     1      -3.273  -1.653  26.301  0.00  0.00    +0.181 C 
ENDROOT
BRANCH  12   4
ATOM      4  O   UNL     1      -1.420  -3.321  23.671  0.00  0.00    -0.388 OA
ATOM     31  H   UNL     1      -2.142  -3.841  23.279  0.00  0.00    +0.210 HD
ENDBRANCH  12   4
BRANCH  11   9
ATOM      9  N   UNL     1      -4.424  -2.780  24.418  0.00  0.00    -0.305 NA
ATOM     30  H   UNL     1      -5.227  -2.574  25.014  0.00  0.00    +0.123 HD
BRANCH   9  16
ATOM     16  C   UNL     1      -4.387  -1.811  23.328  0.00  0.00    +0.116 C 
BRANCH  16  17
ATOM     17  C   UNL     1      -4.381  -0.395  23.837  0.00  0.00    -0.033 A 
ATOM     19  C   UNL     1      -5.315   0.006  24.792  0.00  0.00    +0.007 A 
ATOM     20  C   UNL     1      -3.442   0.516  23.353  0.00  0.00    +0.007 A 
ATOM     21  C   UNL     1      -4.370   2.230  24.781  0.00  0.00    +0.088 A 
ATOM     22  C   UNL     1      -5.309   1.319  25.264  0.00  0.00    +0.027 A 
ATOM     23  C   UNL     1      -3.437   1.829  23.826  0.00  0.00    +0.027 A 
BRANCH  21   2
ATOM      2  S   UNL     1      -4.365   3.874  25.370  0.00  0.00    -0.006 S 
ATOM      7  O   UNL     1      -5.726   4.252  25.728  0.00  0.00    -0.170 OA
ATOM      8  O   UNL     1      -3.299   3.995  26.354  0.00  0.00    -0.170 OA
ATOM     28  C   UNL     1      -3.914   4.850  23.953  0.00  0.00    +0.200 C 
ENDBRANCH  21   2
ENDBRANCH  16  17
ENDBRANCH   9  16
ENDBRANCH  11   9
BRANCH  13  15
ATOM     15  C   UNL     1      -0.034  -0.802  25.113  0.00  0.00    +0.140 C 
BRANCH  15  10
ATOM     10  N   UNL     1      -0.489   0.555  25.477  0.00  0.00    -0.187 NA
ATOM     32  H   UNL     1      -1.445   0.620  25.850  0.00  0.00    +0.148 HD
BRANCH  10   1
ATOM      1  S   UNL     1       0.170   1.913  24.692  0.00  0.00    +0.058 S 
ATOM      5  O   UNL     1       0.946   2.688  25.641  0.00  0.00    -0.153 OA
ATOM      6  O   UNL     1      -0.869   2.553  23.906  0.00  0.00    -0.153 OA
BRANCH   1  18
ATOM     18  C   UNL     1       1.292   1.163  23.551  0.00  0.00    +0.105 A 
ATOM     24  C   UNL     1       0.824   0.232  22.624  0.00  0.00    +0.028 A 
ATOM     25  C   UNL     1       2.644   1.502  23.577  0.00  0.00    +0.028 A 
ATOM     26  C   UNL     1       1.710  -0.361  21.723  0.00  0.00    +0.002 A 
ATOM     27  C   UNL     1       3.529   0.910  22.677  0.00  0.00    +0.002 A 
ATOM     29  C   UNL     1       3.062  -0.021  21.749  0.00  0.00    +0.000 A 
ENDBRANCH   1  18
ENDBRANCH  10   1
ENDBRANCH  15  10
ENDBRANCH  13  15
TORSDOF 9
ENDMDL
MODEL 8
REMARK VINA RESULT:      -0.3      2.656      6.570
REMARK  Name = 75536688
REMARK  10 active torsions:
REMARK  status: ('A' for Active; 'I' for Inactive)
REMARK    1  A    between atoms: S_1  and  N_10
REMARK    2  A    between atoms: S_1  and  C_18
REMARK    3  A    between atoms: S_2  and  C_21
REMARK    4  A    between atoms: S_2  and  C_28
REMARK    5  A    between atoms: O_4  and  C_12
REMARK    6  A    between atoms: N_9  and  C_11
REMARK    7  A    between atoms: N_9  and  C_16
REMARK    8  A    between atoms: N_10  and  C_15
REMARK    9  A    between atoms: C_13  and  C_15
REMARK   10  A    between atoms: C_16  and  C_17
REMARK                            x       y       z     vdW  Elec       q    Type
REMARK                         _______ _______ _______ _____ _____    ______ ____
ROOT
ATOM      3  O   UNL     1      -3.784  -0.116  22.858  0.00  0.00    -0.371 OA
ATOM     11  C   UNL     1      -3.985  -1.335  24.887  0.00  0.00    +0.111 C 
ATOM     12  C   UNL     1      -4.217   0.139  25.170  0.00  0.00    +0.164 C 
ATOM     13  C   UNL     1      -4.577   0.650  23.781  0.00  0.00    +0.164 C 
ATOM     14  C   UNL     1      -3.278  -1.275  23.543  0.00  0.00    +0.181 C 
ENDROOT
BRANCH  12   4
ATOM      4  O   UNL     1      -5.260   0.358  26.099  0.00  0.00    -0.388 OA
ATOM     31  H   UNL     1      -4.889   0.298  26.996  0.00  0.00    +0.210 HD
ENDBRANCH  12   4
BRANCH  11   9
ATOM      9  N   UNL     1      -3.200  -2.007  25.910  0.00  0.00    -0.305 NA
ATOM     30  H   UNL     1      -2.700  -2.789  25.485  0.00  0.00    +0.123 HD
BRANCH   9  16
ATOM     16  C   UNL     1      -2.230  -1.098  26.510  0.00  0.00    +0.116 C 
BRANCH  16  17
ATOM     17  C   UNL     1      -1.097  -0.788  25.569  0.00  0.00    -0.033 A 
ATOM     19  C   UNL     1      -0.272  -1.814  25.109  0.00  0.00    +0.007 A 
ATOM     20  C   UNL     1      -0.871   0.526  25.158  0.00  0.00    +0.007 A 
ATOM     21  C   UNL     1       1.004  -0.213  23.826  0.00  0.00    +0.088 A 
ATOM     22  C   UNL     1       0.779  -1.526  24.237  0.00  0.00    +0.027 A 
ATOM     23  C   UNL     1       0.179   0.813  24.286  0.00  0.00    +0.027 A 
BRANCH  21   2
ATOM      2  S   UNL     1       2.321   0.148  22.737  0.00  0.00    -0.006 S 
ATOM      7  O   UNL     1       1.938  -0.244  21.387  0.00  0.00    -0.170 OA
ATOM      8  O   UNL     1       2.756   1.513  22.997  0.00  0.00    -0.170 OA
ATOM     28  C   UNL     1       3.626  -0.948  23.243  0.00  0.00    +0.200 C 
ENDBRANCH  21   2
ENDBRANCH  16  17
ENDBRANCH   9  16
ENDBRANCH  11   9
BRANCH  13  15
ATOM     15  C   UNL     1      -4.294   2.130  23.595  0.00  0.00    +0.140 C 
BRANCH  15  10
ATOM     10  N   UNL     1      -5.378   2.923  24.207  0.00  0.00    -0.187 NA
ATOM     32  H   UNL     1      -6.115   3.241  23.566  0.00  0.00    +0.148 HD
BRANCH  10   1
ATOM      1  S   UNL     1      -5.078   3.832  25.613  0.00  0.00    +0.058 S 
ATOM      5  O   UNL     1      -5.381   3.027  26.781  0.00  0.00    -0.153 OA
ATOM      6  O   UNL     1      -5.674   5.147  25.460  0.00  0.00    -0.153 OA
BRANCH   1  18
ATOM     18  C   UNL     1      -3.326   4.048  25.537  0.00  0.00    +0.105 A 
ATOM     24  C   UNL     1      -2.783   5.066  24.751  0.00  0.00    +0.028 A 
ATOM     25  C   UNL     1      -2.486   3.204  26.262  0.00  0.00    +0.028 A 
ATOM     26  C   UNL     1      -1.400   5.237  24.691  0.00  0.00    +0.002 A 
ATOM     27  C   UNL     1      -1.103   3.375  26.201  0.00  0.00    +0.002 A 
ATOM     29  C   UNL     1      -0.560   4.392  25.416  0.00  0.00    +0.000 A 
ENDBRANCH   1  18
ENDBRANCH  10   1
ENDBRANCH  15  10
ENDBRANCH  13  15
TORSDOF 9
ENDMDL
MODEL 9
REMARK VINA RESULT:      -0.0      3.183      4.883
REMARK  Name = 75536688
REMARK  10 active torsions:
REMARK  status: ('A' for Active; 'I' for Inactive)
REMARK    1  A    between atoms: S_1  and  N_10
REMARK    2  A    between atoms: S_1  and  C_18
REMARK    3  A    between atoms: S_2  and  C_21
REMARK    4  A    between atoms: S_2  and  C_28
REMARK    5  A    between atoms: O_4  and  C_12
REMARK    6  A    between atoms: N_9  and  C_11
REMARK    7  A    between atoms: N_9  and  C_16
REMARK    8  A    between atoms: N_10  and  C_15
REMARK    9  A    between atoms: C_13  and  C_15
REMARK   10  A    between atoms: C_16  and  C_17
REMARK                            x       y       z     vdW  Elec       q    Type
REMARK                         _______ _______ _______ _____ _____    ______ ____
ROOT
ATOM      3  O   UNL     1      -0.828   1.770  24.000  0.00  0.00    -0.371 OA
ATOM     11  C   UNL     1       0.141   3.768  24.843  0.00  0.00    +0.111 C 
ATOM     12  C   UNL     1      -0.227   2.867  26.007  0.00  0.00    +0.164 C 
ATOM     13  C   UNL     1      -0.309   1.513  25.316  0.00  0.00    +0.164 C 
ATOM     14  C   UNL     1      -0.705   3.177  23.727  0.00  0.00    +0.181 C 
ENDROOT
BRANCH  12   4
ATOM      4  O   UNL     1       0.746   2.878  27.033  0.00  0.00    -0.388 OA
ATOM     31  H   UNL     1       0.850   1.970  27.367  0.00  0.00    +0.210 HD
ENDBRANCH  12   4
BRANCH  11   9
ATOM      9  N   UNL     1      -0.142   5.174  25.082  0.00  0.00    -0.305 NA
ATOM     30  H   UNL     1       0.609   5.738  24.681  0.00  0.00    +0.123 HD
BRANCH   9  16
ATOM     16  C   UNL     1      -1.405   5.568  24.466  0.00  0.00    +0.116 C 
BRANCH  16  17
ATOM     17  C   UNL     1      -2.522   4.625  24.828  0.00  0.00    -0.033 A 
ATOM     19  C   UNL     1      -2.827   4.388  26.168  0.00  0.00    +0.007 A 
ATOM     20  C   UNL     1      -3.251   3.989  23.823  0.00  0.00    +0.007 A 
ATOM     21  C   UNL     1      -4.591   2.880  25.499  0.00  0.00    +0.088 A 
ATOM     22  C   UNL     1      -3.862   3.515  26.503  0.00  0.00    +0.027 A 
ATOM     23  C   UNL     1      -4.285   3.116  24.159  0.00  0.00    +0.027 A 
BRANCH  21   2
ATOM      2  S   UNL     1      -5.885   1.784  25.918  0.00  0.00    -0.006 S 
ATOM      7  O   UNL     1      -5.340   0.440  26.053  0.00  0.00    -0.170 OA
ATOM      8  O   UNL     1      -6.633   2.374  27.020  0.00  0.00    -0.170 OA
ATOM     28  C   UNL     1      -6.939   1.774  24.486  0.00  0.00    +0.200 C 
ENDBRANCH  21   2
ENDBRANCH  16  17
ENDBRANCH   9  16
ENDBRANCH  11   9
BRANCH  13  15
ATOM     15  C   UNL     1      -1.206   0.524  26.037  0.00  0.00    +0.140 C 
BRANCH  15  10
ATOM     10  N   UNL     1      -0.495  -0.760  26.205  0.00  0.00    -0.187 NA
ATOM     32  H   UNL     1       0.257  -0.765  26.906  0.00  0.00    +0.148 HD
BRANCH  10   1
ATOM      1  S   UNL     1      -0.404  -1.858  24.909  0.00  0.00    +0.058 S 
ATOM      5  O   UNL     1       0.023  -3.152  25.405  0.00  0.00    -0.153 OA
ATOM      6  O   UNL     1       0.302  -1.230  23.808  0.00  0.00    -0.153 OA
BRANCH   1  18
ATOM     18  C   UNL     1      -2.099  -1.990  24.426  0.00  0.00    +0.105 A 
ATOM     24  C   UNL     1      -2.783  -0.862  23.972  0.00  0.00    +0.028 A 
ATOM     25  C   UNL     1      -2.752  -3.219  24.499  0.00  0.00    +0.028 A 
ATOM     26  C   UNL     1      -4.122  -0.965  23.590  0.00  0.00    +0.002 A 
ATOM     27  C   UNL     1      -4.090  -3.323  24.118  0.00  0.00    +0.002 A 
ATOM     29  C   UNL     1      -4.774  -2.196  23.663  0.00  0.00    +0.000 A 
ENDBRANCH   1  18
ENDBRANCH  10   1
ENDBRANCH  15  10
ENDBRANCH  13  15
TORSDOF 9
ENDMDL
MODEL 10
REMARK VINA RESULT:       0.1      3.073      5.790
REMARK  Name = 75536688
REMARK  10 active torsions:
REMARK  status: ('A' for Active; 'I' for Inactive)
REMARK    1  A    between atoms: S_1  and  N_10
REMARK    2  A    between atoms: S_1  and  C_18
REMARK    3  A    between atoms: S_2  and  C_21
REMARK    4  A    between atoms: S_2  and  C_28
REMARK    5  A    between atoms: O_4  and  C_12
REMARK    6  A    between atoms: N_9  and  C_11
REMARK    7  A    between atoms: N_9  and  C_16
REMARK    8  A    between atoms: N_10  and  C_15
REMARK    9  A    between atoms: C_13  and  C_15
REMARK   10  A    between atoms: C_16  and  C_17
REMARK                            x       y       z     vdW  Elec       q    Type
REMARK                         _______ _______ _______ _____ _____    ______ ____
ROOT
ATOM      3  O   UNL     1      -0.240   0.398  25.952  0.00  0.00    -0.371 OA
ATOM     11  C   UNL     1      -0.223  -1.387  24.384  0.00  0.00    +0.111 C 
ATOM     12  C   UNL     1       0.059  -0.085  23.656  0.00  0.00    +0.164 C 
ATOM     13  C   UNL     1       0.528   0.798  24.804  0.00  0.00    +0.164 C 
ATOM     14  C   UNL     1      -0.842  -0.880  25.676  0.00  0.00    +0.181 C 
ENDROOT
BRANCH  12   4
ATOM      4  O   UNL     1       1.051  -0.223  22.657  0.00  0.00    -0.388 OA
ATOM     31  H   UNL     1       1.086  -1.156  22.387  0.00  0.00    +0.210 HD
ENDBRANCH  12   4
BRANCH  11   9
ATOM      9  N   UNL     1      -1.100  -2.286  23.652  0.00  0.00    -0.305 NA
ATOM     30  H   UNL     1      -0.572  -3.115  23.376  0.00  0.00    +0.123 HD
BRANCH   9  16
ATOM     16  C   UNL     1      -2.231  -2.701  24.474  0.00  0.00    +0.116 C 
BRANCH  16  17
ATOM     17  C   UNL     1      -3.168  -1.557  24.757  0.00  0.00    -0.033 A 
ATOM     19  C   UNL     1      -3.416  -1.169  26.074  0.00  0.00    +0.007 A 
ATOM     20  C   UNL     1      -3.788  -0.886  23.703  0.00  0.00    +0.007 A 
ATOM     21  C   UNL     1      -4.903   0.562  25.282  0.00  0.00    +0.088 A 
ATOM     22  C   UNL     1      -4.284  -0.109  26.336  0.00  0.00    +0.027 A 
ATOM     23  C   UNL     1      -4.656   0.174  23.966  0.00  0.00    +0.027 A 
BRANCH  21   2
ATOM      2  S   UNL     1      -5.993   1.888  25.611  0.00  0.00    -0.006 S 
ATOM      7  O   UNL     1      -5.209   3.081  25.903  0.00  0.00    -0.170 OA
ATOM      8  O   UNL     1      -6.991   1.920  24.551  0.00  0.00    -0.170 OA
ATOM     28  C   UNL     1      -6.811   1.424  27.120  0.00  0.00    +0.200 C 
ENDBRANCH  21   2
ENDBRANCH  16  17
ENDBRANCH   9  16
ENDBRANCH  11   9
BRANCH  13  15
ATOM     15  C   UNL     1       0.326   2.279  24.543  0.00  0.00    +0.140 C 
BRANCH  15  10
ATOM     10  N   UNL     1      -0.373   2.894  25.690  0.00  0.00    -0.187 NA
ATOM     32  H   UNL     1      -0.471   2.300  26.523  0.00  0.00    +0.148 HD
BRANCH  10   1
ATOM      1  S   UNL     1      -1.524   4.118  25.428  0.00  0.00    +0.058 S 
ATOM      5  O   UNL     1      -0.844   5.351  25.081  0.00  0.00    -0.153 OA
ATOM      6  O   UNL     1      -2.489   4.099  26.512  0.00  0.00    -0.153 OA
BRANCH   1  18
ATOM     18  C   UNL     1      -2.358   3.530  23.985  0.00  0.00    +0.105 A 
ATOM     24  C   UNL     1      -3.616   4.033  23.653  0.00  0.00    +0.028 A 
ATOM     25  C   UNL     1      -1.759   2.564  23.178  0.00  0.00    +0.028 A 
ATOM     26  C   UNL     1      -4.275   3.569  22.514  0.00  0.00    +0.002 A 
ATOM     27  C   UNL     1      -2.417   2.099  22.039  0.00  0.00    +0.002 A 
ATOM     29  C   UNL     1      -3.675   2.602  21.708  0.00  0.00    +0.000 A 
ENDBRANCH   1  18
ENDBRANCH  10   1
ENDBRANCH  15  10
ENDBRANCH  13  15
TORSDOF 9
ENDMDL
