MODEL 1
REMARK VINA RESULT:      -4.6      0.000      0.000
REMARK  Name = 45360668
REMARK  10 active torsions:
REMARK  status: ('A' for Active; 'I' for Inactive)
REMARK    1  A    between atoms: O_4  and  C_26
REMARK    2  A    between atoms: N_7  and  C_10
REMARK    3  A    between atoms: N_7  and  C_18
REMARK    4  A    between atoms: N_8  and  C_23
REMARK    5  A    between atoms: C_12  and  C_16
REMARK    6  A    between atoms: C_16  and  C_17
REMARK    7  A    between atoms: C_17  and  C_19
REMARK    8  A    between atoms: C_18  and  C_20
REMARK    9  A    between atoms: C_22  and  C_26
REMARK   10  A    between atoms: C_23  and  C_25
REMARK                            x       y       z     vdW  Elec       q    Type
REMARK                         _______ _______ _______ _____ _____    ______ ____
ROOT
ATOM      1  O   UNL     1       0.942   2.391  27.119  0.00  0.00    -0.274 OA
ATOM      5  N   UNL     1      -1.787   1.934  24.737  0.00  0.00    -0.286 NA
ATOM      6  N   UNL     1       0.018   3.874  25.663  0.00  0.00    -0.313 N 
ATOM      9  C   UNL     1      -0.997   1.617  25.933  0.00  0.00    +0.145 C 
ATOM     10  C   UNL     1      -0.829  -0.084  24.208  0.00  0.00    +0.070 C 
ATOM     11  C   UNL     1      -0.365   0.250  25.626  0.00  0.00    +0.048 C 
ATOM     12  C   UNL     1      -2.130   3.345  24.600  0.00  0.00    +0.075 C 
ATOM     13  C   UNL     1      -1.135   1.280  23.604  0.00  0.00    +0.104 C 
ATOM     14  C   UNL     1      -0.878   4.208  24.579  0.00  0.00    +0.123 C 
ATOM     15  C   UNL     1       0.079   2.644  26.272  0.00  0.00    +0.230 C 
ATOM     32  H   UNL     1       0.727   4.557  25.912  0.00  0.00    +0.149 HD
ENDROOT
BRANCH  10   7
ATOM      7  N   UNL     1       0.150  -0.847  23.452  0.00  0.00    -0.305 NA
ATOM     33  H   UNL     1       0.866  -1.197  24.091  0.00  0.00    +0.123 HD
BRANCH   7  18
ATOM     18  C   UNL     1       0.791  -0.018  22.439  0.00  0.00    +0.156 C 
BRANCH  18  20
ATOM      2  O   UNL     1       2.923  -0.901  23.201  0.00  0.00    -0.461 OA
ATOM     20  C   UNL     1       2.254   0.177  22.716  0.00  0.00    +0.119 A 
ATOM     21  C   UNL     1       3.102   1.252  22.582  0.00  0.00    +0.046 A 
ATOM     22  C   UNL     1       4.213  -0.512  23.378  0.00  0.00    +0.131 A 
ATOM     24  C   UNL     1       4.375   0.805  23.011  0.00  0.00    +0.047 A 
BRANCH  22  26
ATOM     26  C   UNL     1       5.134  -1.529  23.901  0.00  0.00    +0.230 C 
BRANCH  26   4
ATOM      4  O   UNL     1       5.930  -0.981  24.955  0.00  0.00    -0.387 OA
ATOM     35  H   UNL     1       5.380  -0.988  25.757  0.00  0.00    +0.210 HD
ENDBRANCH  26   4
ENDBRANCH  22  26
ENDBRANCH  18  20
ENDBRANCH   7  18
ENDBRANCH  10   7
BRANCH  12  16
ATOM     16  C   UNL     1      -3.011   3.627  23.383  0.00  0.00    +0.029 C 
BRANCH  16  17
ATOM     17  C   UNL     1      -4.417   4.033  23.803  0.00  0.00    +0.097 C 
BRANCH  17  19
ATOM      3  O   UNL     1      -5.623   3.521  25.840  0.00  0.00    -0.276 OA
ATOM      8  N   UNL     1      -4.683   1.785  24.617  0.00  0.00    -0.311 N 
ATOM     19  C   UNL     1      -4.983   3.116  24.873  0.00  0.00    +0.213 C 
ATOM     34  H   UNL     1      -4.123   1.537  23.808  0.00  0.00    +0.149 HD
BRANCH   8  23
ATOM     23  C   UNL     1      -5.109   0.718  25.490  0.00  0.00    +0.139 C 
BRANCH  23  25
ATOM     25  C   UNL     1      -4.422  -0.579  25.170  0.00  0.00    -0.030 A 
ATOM     27  C   UNL     1      -4.572  -1.153  23.909  0.00  0.00    +0.005 A 
ATOM     28  C   UNL     1      -3.634  -1.206  26.133  0.00  0.00    +0.005 A 
ATOM     29  C   UNL     1      -3.934  -2.357  23.610  0.00  0.00    +0.000 A 
ATOM     30  C   UNL     1      -2.995  -2.411  25.835  0.00  0.00    +0.000 A 
ATOM     31  C   UNL     1      -3.146  -2.986  24.573  0.00  0.00    +0.000 A 
ENDBRANCH  23  25
ENDBRANCH   8  23
ENDBRANCH  17  19
ENDBRANCH  16  17
ENDBRANCH  12  16
TORSDOF 10
ENDMDL
MODEL 2
REMARK VINA RESULT:      -3.0      1.556      2.272
REMARK  Name = 45360668
REMARK  10 active torsions:
REMARK  status: ('A' for Active; 'I' for Inactive)
REMARK    1  A    between atoms: O_4  and  C_26
REMARK    2  A    between atoms: N_7  and  C_10
REMARK    3  A    between atoms: N_7  and  C_18
REMARK    4  A    between atoms: N_8  and  C_23
REMARK    5  A    between atoms: C_12  and  C_16
REMARK    6  A    between atoms: C_16  and  C_17
REMARK    7  A    between atoms: C_17  and  C_19
REMARK    8  A    between atoms: C_18  and  C_20
REMARK    9  A    between atoms: C_22  and  C_26
REMARK   10  A    between atoms: C_23  and  C_25
REMARK                            x       y       z     vdW  Elec       q    Type
REMARK                         _______ _______ _______ _____ _____    ______ ____
ROOT
ATOM      1  O   UNL     1       0.157   5.215  24.158  0.00  0.00    -0.274 OA
ATOM      5  N   UNL     1      -2.027   3.158  26.237  0.00  0.00    -0.286 NA
ATOM      6  N   UNL     1      -2.112   5.070  24.184  0.00  0.00    -0.313 N 
ATOM      9  C   UNL     1      -0.779   3.854  25.900  0.00  0.00    +0.145 C 
ATOM     10  C   UNL     1      -0.552   1.437  25.878  0.00  0.00    +0.070 C 
ATOM     11  C   UNL     1       0.244   2.728  25.684  0.00  0.00    +0.048 C 
ATOM     12  C   UNL     1      -3.230   3.965  26.068  0.00  0.00    +0.075 C 
ATOM     13  C   UNL     1      -1.984   1.854  25.578  0.00  0.00    +0.104 C 
ATOM     14  C   UNL     1      -3.346   4.472  24.639  0.00  0.00    +0.123 C 
ATOM     15  C   UNL     1      -0.866   4.748  24.666  0.00  0.00    +0.230 C 
ATOM     32  H   UNL     1      -2.158   5.681  23.375  0.00  0.00    +0.149 HD
ENDROOT
BRANCH  10   7
ATOM      7  N   UNL     1      -0.078   0.346  25.042  0.00  0.00    -0.305 NA
ATOM     33  H   UNL     1       0.889   0.131  25.290  0.00  0.00    +0.123 HD
BRANCH   7  18
ATOM     18  C   UNL     1      -0.132   0.704  23.631  0.00  0.00    +0.156 C 
BRANCH  18  20
ATOM      2  O   UNL     1       2.281   0.925  23.454  0.00  0.00    -0.461 OA
ATOM     20  C   UNL     1       1.153   0.388  22.921  0.00  0.00    +0.119 A 
ATOM     21  C   UNL     1       1.451  -0.355  21.803  0.00  0.00    +0.046 A 
ATOM     22  C   UNL     1       3.313   0.519  22.668  0.00  0.00    +0.131 A 
ATOM     24  C   UNL     1       2.855  -0.271  21.638  0.00  0.00    +0.047 A 
BRANCH  22  26
ATOM     26  C   UNL     1       4.651   0.984  23.059  0.00  0.00    +0.230 C 
BRANCH  26   4
ATOM      4  O   UNL     1       5.047   0.371  24.289  0.00  0.00    -0.387 OA
ATOM     35  H   UNL     1       4.485   0.748  24.987  0.00  0.00    +0.210 HD
ENDBRANCH  26   4
ENDBRANCH  22  26
ENDBRANCH  18  20
ENDBRANCH   7  18
ENDBRANCH  10   7
BRANCH  12  16
ATOM     16  C   UNL     1      -4.502   3.232  26.495  0.00  0.00    +0.029 C 
BRANCH  16  17
ATOM     17  C   UNL     1      -5.610   3.408  25.466  0.00  0.00    +0.097 C 
BRANCH  17  19
ATOM      3  O   UNL     1      -7.292   1.859  24.669  0.00  0.00    -0.276 OA
ATOM      8  N   UNL     1      -5.080   1.162  24.785  0.00  0.00    -0.311 N 
ATOM     19  C   UNL     1      -6.112   2.078  24.931  0.00  0.00    +0.213 C 
ATOM     34  H   UNL     1      -4.134   1.416  25.053  0.00  0.00    +0.149 HD
BRANCH   8  23
ATOM     23  C   UNL     1      -5.301  -0.177  24.294  0.00  0.00    +0.139 C 
BRANCH  23  25
ATOM     25  C   UNL     1      -4.154  -1.091  24.618  0.00  0.00    -0.030 A 
ATOM     27  C   UNL     1      -3.444  -0.924  25.806  0.00  0.00    +0.005 A 
ATOM     28  C   UNL     1      -3.800  -2.106  23.730  0.00  0.00    +0.005 A 
ATOM     29  C   UNL     1      -2.379  -1.772  26.108  0.00  0.00    +0.000 A 
ATOM     30  C   UNL     1      -2.734  -2.955  24.031  0.00  0.00    +0.000 A 
ATOM     31  C   UNL     1      -2.024  -2.788  25.220  0.00  0.00    +0.000 A 
ENDBRANCH  23  25
ENDBRANCH   8  23
ENDBRANCH  17  19
ENDBRANCH  16  17
ENDBRANCH  12  16
TORSDOF 10
ENDMDL
MODEL 3
REMARK VINA RESULT:      -2.3      2.171      7.033
REMARK  Name = 45360668
REMARK  10 active torsions:
REMARK  status: ('A' for Active; 'I' for Inactive)
REMARK    1  A    between atoms: O_4  and  C_26
REMARK    2  A    between atoms: N_7  and  C_10
REMARK    3  A    between atoms: N_7  and  C_18
REMARK    4  A    between atoms: N_8  and  C_23
REMARK    5  A    between atoms: C_12  and  C_16
REMARK    6  A    between atoms: C_16  and  C_17
REMARK    7  A    between atoms: C_17  and  C_19
REMARK    8  A    between atoms: C_18  and  C_20
REMARK    9  A    between atoms: C_22  and  C_26
REMARK   10  A    between atoms: C_23  and  C_25
REMARK                            x       y       z     vdW  Elec       q    Type
REMARK                         _______ _______ _______ _____ _____    ______ ____
ROOT
ATOM      1  O   UNL     1      -4.781  -3.060  23.692  0.00  0.00    -0.274 OA
ATOM      5  N   UNL     1      -2.872  -0.520  25.489  0.00  0.00    -0.286 NA
ATOM      6  N   UNL     1      -2.531  -2.819  23.915  0.00  0.00    -0.313 N 
ATOM      9  C   UNL     1      -4.063  -1.322  25.185  0.00  0.00    +0.145 C 
ATOM     10  C   UNL     1      -4.332   1.023  24.619  0.00  0.00    +0.070 C 
ATOM     11  C   UNL     1      -5.078  -0.312  24.628  0.00  0.00    +0.048 C 
ATOM     12  C   UNL     1      -1.643  -1.294  25.621  0.00  0.00    +0.075 C 
ATOM     13  C   UNL     1      -2.867   0.611  24.563  0.00  0.00    +0.104 C 
ATOM     14  C   UNL     1      -1.364  -2.088  24.354  0.00  0.00    +0.123 C 
ATOM     15  C   UNL     1      -3.827  -2.453  24.188  0.00  0.00    +0.230 C 
ATOM     32  H   UNL     1      -2.386  -3.586  23.267  0.00  0.00    +0.149 HD
ENDROOT
BRANCH  10   7
ATOM      7  N   UNL     1      -4.732   1.892  23.525  0.00  0.00    -0.305 NA
ATOM     33  H   UNL     1      -3.980   1.929  22.835  0.00  0.00    +0.123 HD
BRANCH   7  18
ATOM     18  C   UNL     1      -4.999   3.243  23.999  0.00  0.00    +0.156 C 
BRANCH  18  20
ATOM      2  O   UNL     1      -2.770   4.145  24.350  0.00  0.00    -0.461 OA
ATOM     20  C   UNL     1      -3.927   3.734  24.930  0.00  0.00    +0.119 A 
ATOM     21  C   UNL     1      -3.856   3.864  26.297  0.00  0.00    +0.046 A 
ATOM     22  C   UNL     1      -1.950   4.543  25.358  0.00  0.00    +0.131 A 
ATOM     24  C   UNL     1      -2.572   4.390  26.576  0.00  0.00    +0.047 A 
BRANCH  22  26
ATOM     26  C   UNL     1      -0.623   5.035  24.961  0.00  0.00    +0.230 C 
BRANCH  26   4
ATOM      4  O   UNL     1      -0.290   4.560  23.655  0.00  0.00    -0.387 OA
ATOM     35  H   UNL     1       0.626   4.237  23.696  0.00  0.00    +0.210 HD
ENDBRANCH  26   4
ENDBRANCH  22  26
ENDBRANCH  18  20
ENDBRANCH   7  18
ENDBRANCH  10   7
BRANCH  12  16
ATOM     16  C   UNL     1      -0.438  -0.435  26.007  0.00  0.00    +0.029 C 
BRANCH  16  17
ATOM     17  C   UNL     1      -0.545   0.961  25.408  0.00  0.00    +0.097 C 
BRANCH  17  19
ATOM      3  O   UNL     1       1.075   2.285  24.189  0.00  0.00    -0.276 OA
ATOM      8  N   UNL     1       0.724   0.075  23.567  0.00  0.00    -0.311 N 
ATOM     19  C   UNL     1       0.504   1.207  24.338  0.00  0.00    +0.213 C 
ATOM     34  H   UNL     1       0.188  -0.769  23.740  0.00  0.00    +0.149 HD
BRANCH   8  23
ATOM     23  C   UNL     1       1.676   0.055  22.482  0.00  0.00    +0.139 C 
BRANCH  23  25
ATOM     25  C   UNL     1       3.085  -0.109  22.973  0.00  0.00    -0.030 A 
ATOM     27  C   UNL     1       3.489  -1.315  23.543  0.00  0.00    +0.005 A 
ATOM     28  C   UNL     1       3.990   0.945  22.856  0.00  0.00    +0.005 A 
ATOM     29  C   UNL     1       4.797  -1.468  23.999  0.00  0.00    +0.000 A 
ATOM     30  C   UNL     1       5.301   0.793  23.313  0.00  0.00    +0.000 A 
ATOM     31  C   UNL     1       5.704  -0.414  23.884  0.00  0.00    +0.000 A 
ENDBRANCH  23  25
ENDBRANCH   8  23
ENDBRANCH  17  19
ENDBRANCH  16  17
ENDBRANCH  12  16
TORSDOF 10
ENDMDL
MODEL 4
REMARK VINA RESULT:      -2.3      2.103      6.236
REMARK  Name = 45360668
REMARK  10 active torsions:
REMARK  status: ('A' for Active; 'I' for Inactive)
REMARK    1  A    between atoms: O_4  and  C_26
REMARK    2  A    between atoms: N_7  and  C_10
REMARK    3  A    between atoms: N_7  and  C_18
REMARK    4  A    between atoms: N_8  and  C_23
REMARK    5  A    between atoms: C_12  and  C_16
REMARK    6  A    between atoms: C_16  and  C_17
REMARK    7  A    between atoms: C_17  and  C_19
REMARK    8  A    between atoms: C_18  and  C_20
REMARK    9  A    between atoms: C_22  and  C_26
REMARK   10  A    between atoms: C_23  and  C_25
REMARK                            x       y       z     vdW  Elec       q    Type
REMARK                         _______ _______ _______ _____ _____    ______ ____
ROOT
ATOM      1  O   UNL     1      -6.181   4.529  25.739  0.00  0.00    -0.274 OA
ATOM      5  N   UNL     1      -3.090   2.853  24.757  0.00  0.00    -0.286 NA
ATOM      6  N   UNL     1      -4.110   4.634  26.672  0.00  0.00    -0.313 N 
ATOM      9  C   UNL     1      -4.441   3.387  24.542  0.00  0.00    +0.145 C 
ATOM     10  C   UNL     1      -4.353   0.963  24.445  0.00  0.00    +0.070 C 
ATOM     11  C   UNL     1      -5.311   2.145  24.297  0.00  0.00    +0.048 C 
ATOM     12  C   UNL     1      -2.178   3.776  25.425  0.00  0.00    +0.075 C 
ATOM     13  C   UNL     1      -3.241   1.515  25.325  0.00  0.00    +0.104 C 
ATOM     14  C   UNL     1      -2.734   4.204  26.774  0.00  0.00    +0.123 C 
ATOM     15  C   UNL     1      -4.989   4.208  25.706  0.00  0.00    +0.230 C 
ATOM     32  H   UNL     1      -4.482   5.197  27.430  0.00  0.00    +0.149 HD
ENDROOT
BRANCH  10   7
ATOM      7  N   UNL     1      -4.991  -0.223  24.993  0.00  0.00    -0.305 NA
ATOM     33  H   UNL     1      -4.543  -0.465  25.877  0.00  0.00    +0.123 HD
BRANCH   7  18
ATOM     18  C   UNL     1      -4.869  -1.353  24.080  0.00  0.00    +0.156 C 
BRANCH  18  20
ATOM      2  O   UNL     1      -2.548  -1.322  24.799  0.00  0.00    -0.461 OA
ATOM     20  C   UNL     1      -3.540  -2.040  24.211  0.00  0.00    +0.119 A 
ATOM     21  C   UNL     1      -3.087  -3.288  23.852  0.00  0.00    +0.046 A 
ATOM     22  C   UNL     1      -1.448  -2.121  24.816  0.00  0.00    +0.131 A 
ATOM     24  C   UNL     1      -1.728  -3.342  24.246  0.00  0.00    +0.047 A 
BRANCH  22  26
ATOM     26  C   UNL     1      -0.236  -1.546  25.415  0.00  0.00    +0.230 C 
BRANCH  26   4
ATOM      4  O   UNL     1      -0.559  -0.355  26.137  0.00  0.00    -0.387 OA
ATOM     35  H   UNL     1       0.229  -0.114  26.653  0.00  0.00    +0.210 HD
ENDBRANCH  26   4
ENDBRANCH  22  26
ENDBRANCH  18  20
ENDBRANCH   7  18
ENDBRANCH  10   7
BRANCH  12  16
ATOM     16  C   UNL     1      -0.764   3.213  25.568  0.00  0.00    +0.029 C 
BRANCH  16  17
ATOM     17  C   UNL     1      -0.030   3.226  24.234  0.00  0.00    +0.097 C 
BRANCH  17  19
ATOM      3  O   UNL     1      -0.807   1.070  23.452  0.00  0.00    -0.276 OA
ATOM      8  N   UNL     1       1.467   1.539  23.399  0.00  0.00    -0.311 N 
ATOM     19  C   UNL     1       0.135   1.832  23.657  0.00  0.00    +0.213 C 
ATOM     34  H   UNL     1       2.189   2.216  23.624  0.00  0.00    +0.149 HD
BRANCH   8  23
ATOM     23  C   UNL     1       1.885   0.271  22.848  0.00  0.00    +0.139 C 
BRANCH  23  25
ATOM     25  C   UNL     1       3.305  -0.057  23.208  0.00  0.00    -0.030 A 
ATOM     27  C   UNL     1       3.635  -1.341  23.641  0.00  0.00    +0.005 A 
ATOM     28  C   UNL     1       4.293   0.921  23.109  0.00  0.00    +0.005 A 
ATOM     29  C   UNL     1       4.953  -1.647  23.976  0.00  0.00    +0.000 A 
ATOM     30  C   UNL     1       5.613   0.615  23.443  0.00  0.00    +0.000 A 
ATOM     31  C   UNL     1       5.943  -0.669  23.877  0.00  0.00    +0.000 A 
ENDBRANCH  23  25
ENDBRANCH   8  23
ENDBRANCH  17  19
ENDBRANCH  16  17
ENDBRANCH  12  16
TORSDOF 10
ENDMDL
MODEL 5
REMARK VINA RESULT:      -1.8      1.789      6.464
REMARK  Name = 45360668
REMARK  10 active torsions:
REMARK  status: ('A' for Active; 'I' for Inactive)
REMARK    1  A    between atoms: O_4  and  C_26
REMARK    2  A    between atoms: N_7  and  C_10
REMARK    3  A    between atoms: N_7  and  C_18
REMARK    4  A    between atoms: N_8  and  C_23
REMARK    5  A    between atoms: C_12  and  C_16
REMARK    6  A    between atoms: C_16  and  C_17
REMARK    7  A    between atoms: C_17  and  C_19
REMARK    8  A    between atoms: C_18  and  C_20
REMARK    9  A    between atoms: C_22  and  C_26
REMARK   10  A    between atoms: C_23  and  C_25
REMARK                            x       y       z     vdW  Elec       q    Type
REMARK                         _______ _______ _______ _____ _____    ______ ____
ROOT
ATOM      1  O   UNL     1      -3.406   4.622  27.427  0.00  0.00    -0.274 OA
ATOM      5  N   UNL     1      -2.442   3.228  24.194  0.00  0.00    -0.286 NA
ATOM      6  N   UNL     1      -1.499   3.543  26.818  0.00  0.00    -0.313 N 
ATOM      9  C   UNL     1      -3.200   4.110  25.090  0.00  0.00    +0.145 C 
ATOM     10  C   UNL     1      -4.582   2.412  24.041  0.00  0.00    +0.070 C 
ATOM     11  C   UNL     1      -4.649   3.610  24.988  0.00  0.00    +0.048 C 
ATOM     12  C   UNL     1      -1.004   3.215  24.437  0.00  0.00    +0.075 C 
ATOM     13  C   UNL     1      -3.139   1.944  24.163  0.00  0.00    +0.104 C 
ATOM     14  C   UNL     1      -0.701   2.801  25.869  0.00  0.00    +0.123 C 
ATOM     15  C   UNL     1      -2.726   4.095  26.541  0.00  0.00    +0.230 C 
ATOM     32  H   UNL     1      -1.185   3.557  27.784  0.00  0.00    +0.149 HD
ENDROOT
BRANCH  10   7
ATOM      7  N   UNL     1      -5.556   1.380  24.358  0.00  0.00    -0.305 NA
ATOM     33  H   UNL     1      -6.436   1.822  24.626  0.00  0.00    +0.123 HD
BRANCH   7  18
ATOM     18  C   UNL     1      -5.095   0.546  25.460  0.00  0.00    +0.156 C 
BRANCH  18  20
ATOM      2  O   UNL     1      -3.099  -0.834  25.591  0.00  0.00    -0.461 OA
ATOM     20  C   UNL     1      -4.295  -0.631  24.979  0.00  0.00    +0.119 A 
ATOM     21  C   UNL     1      -4.514  -1.587  24.015  0.00  0.00    +0.046 A 
ATOM     22  C   UNL     1      -2.548  -1.933  25.012  0.00  0.00    +0.131 A 
ATOM     24  C   UNL     1      -3.380  -2.434  24.036  0.00  0.00    +0.047 A 
BRANCH  22  26
ATOM     26  C   UNL     1      -1.234  -2.348  25.522  0.00  0.00    +0.230 C 
BRANCH  26   4
ATOM      4  O   UNL     1      -0.610  -1.266  26.217  0.00  0.00    -0.387 OA
ATOM     35  H   UNL     1      -1.053  -1.189  27.078  0.00  0.00    +0.210 HD
ENDBRANCH  26   4
ENDBRANCH  22  26
ENDBRANCH  18  20
ENDBRANCH   7  18
ENDBRANCH  10   7
BRANCH  12  16
ATOM     16  C   UNL     1      -0.241   2.342  23.440  0.00  0.00    +0.029 C 
BRANCH  16  17
ATOM     17  C   UNL     1      -0.667   0.885  23.548  0.00  0.00    +0.097 C 
BRANCH  17  19
ATOM      3  O   UNL     1       0.562  -1.200  23.611  0.00  0.00    -0.276 OA
ATOM      8  N   UNL     1       1.296   0.501  22.212  0.00  0.00    -0.311 N 
ATOM     19  C   UNL     1       0.445  -0.068  23.148  0.00  0.00    +0.213 C 
ATOM     34  H   UNL     1       1.144   1.456  21.902  0.00  0.00    +0.149 HD
BRANCH   8  23
ATOM     23  C   UNL     1       2.434  -0.205  21.674  0.00  0.00    +0.139 C 
BRANCH  23  25
ATOM     25  C   UNL     1       3.597  -0.202  22.624  0.00  0.00    -0.030 A 
ATOM     27  C   UNL     1       4.350   0.958  22.801  0.00  0.00    +0.005 A 
ATOM     28  C   UNL     1       3.923  -1.359  23.330  0.00  0.00    +0.005 A 
ATOM     29  C   UNL     1       5.430   0.961  23.683  0.00  0.00    +0.000 A 
ATOM     30  C   UNL     1       5.004  -1.357  24.213  0.00  0.00    +0.000 A 
ATOM     31  C   UNL     1       5.757  -0.196  24.389  0.00  0.00    +0.000 A 
ENDBRANCH  23  25
ENDBRANCH   8  23
ENDBRANCH  17  19
ENDBRANCH  16  17
ENDBRANCH  12  16
TORSDOF 10
ENDMDL
MODEL 6
REMARK VINA RESULT:      -1.4     14.760     18.302
REMARK  Name = 45360668
REMARK  10 active torsions:
REMARK  status: ('A' for Active; 'I' for Inactive)
REMARK    1  A    between atoms: O_4  and  C_26
REMARK    2  A    between atoms: N_7  and  C_10
REMARK    3  A    between atoms: N_7  and  C_18
REMARK    4  A    between atoms: N_8  and  C_23
REMARK    5  A    between atoms: C_12  and  C_16
REMARK    6  A    between atoms: C_16  and  C_17
REMARK    7  A    between atoms: C_17  and  C_19
REMARK    8  A    between atoms: C_18  and  C_20
REMARK    9  A    between atoms: C_22  and  C_26
REMARK   10  A    between atoms: C_23  and  C_25
REMARK                            x       y       z     vdW  Elec       q    Type
REMARK                         _______ _______ _______ _____ _____    ______ ____
ROOT
ATOM      1  O   UNL     1      -7.979  -6.689   8.319  0.00  0.00    -0.274 OA
ATOM      5  N   UNL     1      -7.059  -9.835   9.926  0.00  0.00    -0.286 NA
ATOM      6  N   UNL     1      -6.029  -7.296   9.321  0.00  0.00    -0.313 N 
ATOM      9  C   UNL     1      -7.837  -8.981   9.020  0.00  0.00    +0.145 C 
ATOM     10  C   UNL     1      -9.142  -9.815  10.891  0.00  0.00    +0.070 C 
ATOM     11  C   UNL     1      -9.252  -8.971   9.620  0.00  0.00    +0.048 C 
ATOM     12  C   UNL     1      -5.615  -9.662   9.823  0.00  0.00    +0.075 C 
ATOM     13  C   UNL     1      -7.666  -9.723  11.251  0.00  0.00    +0.104 C 
ATOM     14  C   UNL     1      -5.223  -8.216  10.090  0.00  0.00    +0.123 C 
ATOM     15  C   UNL     1      -7.303  -7.559   8.877  0.00  0.00    +0.230 C 
ATOM     32  H   UNL     1      -5.677  -6.351   9.201  0.00  0.00    +0.149 HD
ENDROOT
BRANCH  10   7
ATOM      7  N   UNL     1     -10.028  -9.365  11.952  0.00  0.00    -0.305 NA
ATOM     33  H   UNL     1      -9.789  -8.404  12.200  0.00  0.00    +0.123 HD
BRANCH   7  18
ATOM     18  C   UNL     1      -9.893 -10.202  13.137  0.00  0.00    +0.156 C 
BRANCH  18  20
ATOM      2  O   UNL     1      -9.307 -10.000  15.486  0.00  0.00    -0.461 OA
ATOM     20  C   UNL     1      -9.842  -9.388  14.398  0.00  0.00    +0.119 A 
ATOM     21  C   UNL     1     -10.234  -8.107  14.707  0.00  0.00    +0.046 A 
ATOM     22  C   UNL     1      -9.356  -9.099  16.503  0.00  0.00    +0.131 A 
ATOM     24  C   UNL     1      -9.918  -7.918  16.074  0.00  0.00    +0.047 A 
BRANCH  22  26
ATOM     26  C   UNL     1      -8.823  -9.547  17.796  0.00  0.00    +0.230 C 
BRANCH  26   4
ATOM      4  O   UNL     1      -9.848  -9.511  18.793  0.00  0.00    -0.387 OA
ATOM     35  H   UNL     1      -9.415  -9.298  19.637  0.00  0.00    +0.210 HD
ENDBRANCH  26   4
ENDBRANCH  22  26
ENDBRANCH  18  20
ENDBRANCH   7  18
ENDBRANCH  10   7
BRANCH  12  16
ATOM     16  C   UNL     1      -4.836 -10.616  10.729  0.00  0.00    +0.029 C 
BRANCH  16  17
ATOM     17  C   UNL     1      -4.205  -9.873  11.898  0.00  0.00    +0.097 C 
BRANCH  17  19
ATOM      3  O   UNL     1      -2.242 -10.780  12.988  0.00  0.00    -0.276 OA
ATOM      8  N   UNL     1      -1.999  -9.678  10.959  0.00  0.00    -0.311 N 
ATOM     19  C   UNL     1      -2.722 -10.173  12.034  0.00  0.00    +0.213 C 
ATOM     34  H   UNL     1      -2.471  -9.161  10.224  0.00  0.00    +0.149 HD
BRANCH   8  23
ATOM     23  C   UNL     1      -0.567  -9.833  10.856  0.00  0.00    +0.139 C 
BRANCH  23  25
ATOM     25  C   UNL     1       0.169  -8.654  11.423  0.00  0.00    -0.030 A 
ATOM     27  C   UNL     1       1.484  -8.401  11.036  0.00  0.00    +0.005 A 
ATOM     28  C   UNL     1      -0.463  -7.813  12.337  0.00  0.00    +0.005 A 
ATOM     29  C   UNL     1       2.169  -7.307  11.562  0.00  0.00    +0.000 A 
ATOM     30  C   UNL     1       0.221  -6.717  12.865  0.00  0.00    +0.000 A 
ATOM     31  C   UNL     1       1.537  -6.464  12.477  0.00  0.00    +0.000 A 
ENDBRANCH  23  25
ENDBRANCH   8  23
ENDBRANCH  17  19
ENDBRANCH  16  17
ENDBRANCH  12  16
TORSDOF 10
ENDMDL
