MODEL 1
REMARK VINA RESULT:       0.4      0.000      0.000
REMARK  Name = 45783640
REMARK  7 active torsions:
REMARK  status: ('A' for Active; 'I' for Inactive)
REMARK    1  A    between atoms: O_3  and  C_27
REMARK    2  A    between atoms: O_3  and  C_28
REMARK    3  A    between atoms: N_5  and  C_10
REMARK    4  A    between atoms: N_9  and  C_25
REMARK    5  A    between atoms: C_11  and  C_19
REMARK    6  A    between atoms: C_20  and  C_21
REMARK    7  A    between atoms: C_26  and  C_27
REMARK                            x       y       z     vdW  Elec       q    Type
REMARK                         _______ _______ _______ _____ _____    ______ ____
ROOT
ATOM      2  O   UNL     1      -2.099   3.160  24.484  0.00  0.00    -0.336 OA
ATOM      6  N   UNL     1      -1.657   1.109  23.702  0.00  0.00    -0.190 NA
ATOM      7  N   UNL     1      -0.709   3.098  24.317  0.00  0.00    -0.056 NA
ATOM     19  C   UNL     1      -2.579   1.950  24.100  0.00  0.00    +0.245 A 
ATOM     20  C   UNL     1      -0.526   1.858  23.853  0.00  0.00    +0.204 A 
ENDROOT
BRANCH  20  21
ATOM      8  N   UNL     1       3.140   1.726  23.249  0.00  0.00    -0.239 NA
ATOM     21  C   UNL     1       0.770   1.337  23.532  0.00  0.00    +0.041 A 
ATOM     22  C   UNL     1       0.943  -0.002  23.203  0.00  0.00    +0.016 A 
ATOM     23  C   UNL     1       1.891   2.152  23.541  0.00  0.00    +0.124 A 
ATOM     24  C   UNL     1       2.213  -0.479  22.896  0.00  0.00    +0.044 A 
ATOM     25  C   UNL     1       3.269   0.418  22.933  0.00  0.00    +0.125 A 
BRANCH  25   9
ATOM      4  O   UNL     1       5.610  -0.206  24.717  0.00  0.00    -0.273 OA
ATOM      9  N   UNL     1       4.542  -0.072  22.622  0.00  0.00    -0.268 N 
ATOM     26  C   UNL     1       5.598  -0.346  23.498  0.00  0.00    +0.244 C 
ATOM     29  H   UNL     1       4.696  -0.243  21.631  0.00  0.00    +0.156 HD
BRANCH  26  27
ATOM     27  C   UNL     1       6.822  -0.858  22.771  0.00  0.00    +0.255 C 
BRANCH  27   3
ATOM      3  O   UNL     1       7.804   0.156  22.762  0.00  0.00    -0.374 OA
ATOM     28  C   UNL     1       9.094  -0.351  23.090  0.00  0.00    +0.194 C 
ENDBRANCH  27   3
ENDBRANCH  26  27
ENDBRANCH  25   9
ENDBRANCH  20  21
BRANCH  19  11
ATOM      5  N   UNL     1      -4.490   1.047  25.412  0.00  0.00    -0.288 NA
ATOM     11  C   UNL     1      -4.078   1.760  24.187  0.00  0.00    +0.146 C 
ATOM     12  C   UNL     1      -5.835   1.526  25.737  0.00  0.00    +0.085 C 
ATOM     13  C   UNL     1      -4.845   3.095  24.234  0.00  0.00    +0.030 C 
ATOM     14  C   UNL     1      -5.706   3.015  25.486  0.00  0.00    +0.017 C 
BRANCH   5  10
ATOM      1  O   UNL     1      -3.077  -2.750  24.314  0.00  0.00    -0.380 OA
ATOM     10  C   UNL     1      -4.443  -0.407  25.278  0.00  0.00    +0.062 C 
ATOM     15  C   UNL     1      -4.438  -0.805  23.799  0.00  0.00    +0.047 C 
ATOM     16  C   UNL     1      -3.211  -0.986  25.980  0.00  0.00    +0.047 C 
ATOM     17  C   UNL     1      -4.266  -2.312  23.656  0.00  0.00    +0.161 C 
ATOM     18  C   UNL     1      -3.105  -2.484  25.716  0.00  0.00    +0.161 C 
ENDBRANCH   5  10
ENDBRANCH  19  11
TORSDOF 6
ENDMDL
MODEL 2
REMARK VINA RESULT:       3.9      1.633      3.504
REMARK  Name = 45783640
REMARK  7 active torsions:
REMARK  status: ('A' for Active; 'I' for Inactive)
REMARK    1  A    between atoms: O_3  and  C_27
REMARK    2  A    between atoms: O_3  and  C_28
REMARK    3  A    between atoms: N_5  and  C_10
REMARK    4  A    between atoms: N_9  and  C_25
REMARK    5  A    between atoms: C_11  and  C_19
REMARK    6  A    between atoms: C_20  and  C_21
REMARK    7  A    between atoms: C_26  and  C_27
REMARK                            x       y       z     vdW  Elec       q    Type
REMARK                         _______ _______ _______ _____ _____    ______ ____
ROOT
ATOM      2  O   UNL     1      -3.185  -0.491  24.368  0.00  0.00    -0.336 OA
ATOM      6  N   UNL     1      -1.840   1.281  24.628  0.00  0.00    -0.190 NA
ATOM      7  N   UNL     1      -1.930  -0.879  23.878  0.00  0.00    -0.056 NA
ATOM     19  C   UNL     1      -3.044   0.793  24.788  0.00  0.00    +0.245 A 
ATOM     20  C   UNL     1      -1.192   0.219  24.065  0.00  0.00    +0.204 A 
ENDROOT
BRANCH  20  21
ATOM      8  N   UNL     1       2.267   1.535  23.698  0.00  0.00    -0.239 NA
ATOM     21  C   UNL     1       0.193   0.289  23.702  0.00  0.00    +0.041 A 
ATOM     22  C   UNL     1       0.813  -0.758  23.031  0.00  0.00    +0.016 A 
ATOM     23  C   UNL     1       0.958   1.404  24.010  0.00  0.00    +0.124 A 
ATOM     24  C   UNL     1       2.158  -0.662  22.691  0.00  0.00    +0.044 A 
ATOM     25  C   UNL     1       2.834   0.496  23.045  0.00  0.00    +0.125 A 
BRANCH  25   9
ATOM      4  O   UNL     1       5.263  -0.719  24.341  0.00  0.00    -0.273 OA
ATOM      9  N   UNL     1       4.187   0.583  22.699  0.00  0.00    -0.268 N 
ATOM     26  C   UNL     1       5.281  -0.007  23.341  0.00  0.00    +0.244 C 
ATOM     29  H   UNL     1       4.374   1.150  21.876  0.00  0.00    +0.156 HD
BRANCH  26  27
ATOM     27  C   UNL     1       6.590   0.333  22.664  0.00  0.00    +0.255 C 
BRANCH  27   3
ATOM      3  O   UNL     1       7.467  -0.766  22.790  0.00  0.00    -0.374 OA
ATOM     28  C   UNL     1       8.811  -0.350  23.015  0.00  0.00    +0.194 C 
ENDBRANCH  27   3
ENDBRANCH  26  27
ENDBRANCH  25   9
ENDBRANCH  20  21
BRANCH  19  11
ATOM      5  N   UNL     1      -4.762   2.576  24.546  0.00  0.00    -0.288 NA
ATOM     11  C   UNL     1      -4.277   1.451  25.370  0.00  0.00    +0.146 C 
ATOM     12  C   UNL     1      -6.209   2.649  24.756  0.00  0.00    +0.085 C 
ATOM     13  C   UNL     1      -5.476   0.489  25.465  0.00  0.00    +0.030 C 
ATOM     14  C   UNL     1      -6.604   1.186  24.718  0.00  0.00    +0.017 C 
BRANCH   5  10
ATOM      1  O   UNL     1      -1.675   5.273  25.454  0.00  0.00    -0.380 OA
ATOM     10  C   UNL     1      -4.099   3.842  24.851  0.00  0.00    +0.062 C 
ATOM     15  C   UNL     1      -3.425   3.773  26.224  0.00  0.00    +0.047 C 
ATOM     16  C   UNL     1      -3.065   4.196  23.777  0.00  0.00    +0.047 C 
ATOM     17  C   UNL     1      -2.631   5.047  26.489  0.00  0.00    +0.161 C 
ATOM     18  C   UNL     1      -2.291   5.447  24.178  0.00  0.00    +0.161 C 
ENDBRANCH   5  10
ENDBRANCH  19  11
TORSDOF 6
ENDMDL
