MODEL 1
REMARK VINA RESULT:       2.9      0.000      0.000
REMARK  Name = 45783592
REMARK  7 active torsions:
REMARK  status: ('A' for Active; 'I' for Inactive)
REMARK    1  A    between atoms: O_1  and  C_14
REMARK    2  A    between atoms: O_1  and  C_27
REMARK    3  A    between atoms: N_3  and  C_12
REMARK    4  A    between atoms: N_4  and  C_28
REMARK    5  A    between atoms: C_8  and  C_13
REMARK    6  A    between atoms: C_12  and  C_17
REMARK    7  A    between atoms: C_24  and  C_29
REMARK                            x       y       z     vdW  Elec       q    Type
REMARK                         _______ _______ _______ _____ _____    ______ ____
ROOT
ATOM      2  O   UNL     1      -2.284   3.664  24.983  0.00  0.00    -0.336 OA
ATOM      5  N   UNL     1      -2.361   1.878  23.632  0.00  0.00    -0.190 NA
ATOM      6  N   UNL     1      -0.952   3.308  24.732  0.00  0.00    -0.056 NA
ATOM     13  C   UNL     1      -3.048   2.771  24.299  0.00  0.00    +0.245 A 
ATOM     24  C   UNL     1      -1.080   2.248  23.927  0.00  0.00    +0.204 A 
ENDROOT
BRANCH  24  29
ATOM      7  N   UNL     1       0.907  -0.357  22.172  0.00  0.00    -0.221 NA
ATOM     27  C   UNL     1       2.150   0.127  22.383  0.00  0.00    +0.215 A 
ATOM     29  C   UNL     1       0.049   1.536  23.405  0.00  0.00    +0.041 A 
ATOM     32  C   UNL     1       2.420   1.292  23.086  0.00  0.00    +0.068 A 
ATOM     33  C   UNL     1       1.343   2.004  23.603  0.00  0.00    +0.018 A 
ATOM     34  C   UNL     1      -0.115   0.362  22.690  0.00  0.00    +0.126 A 
BRANCH  27   1
ATOM      1  O   UNL     1       3.194  -0.592  21.865  0.00  0.00    -0.473 OA
BRANCH   1  14
ATOM     14  C   UNL     1       4.428  -0.528  22.571  0.00  0.00    +0.175 C 
ATOM     15  C   UNL     1       4.674   0.902  23.048  0.00  0.00    +0.044 C 
ATOM     16  C   UNL     1       4.403  -1.515  23.737  0.00  0.00    +0.044 C 
ATOM     18  C   UNL     1       5.939   1.002  23.895  0.00  0.00    +0.004 C 
ATOM     19  C   UNL     1       5.667  -1.415  24.584  0.00  0.00    +0.004 C 
ATOM     20  C   UNL     1       5.914   0.015  25.059  0.00  0.00    +0.000 C 
ENDBRANCH   1  14
ENDBRANCH  27   1
ENDBRANCH  24  29
BRANCH  13   8
ATOM      3  N   UNL     1      -5.115   2.239  25.576  0.00  0.00    -0.287 NA
ATOM      8  C   UNL     1      -4.547   2.942  24.408  0.00  0.00    +0.146 C 
ATOM      9  C   UNL     1      -4.967   4.412  24.595  0.00  0.00    +0.030 C 
ATOM     10  C   UNL     1      -6.301   2.995  25.978  0.00  0.00    +0.085 C 
ATOM     11  C   UNL     1      -5.816   4.426  25.858  0.00  0.00    +0.017 C 
BRANCH   3  12
ATOM     12  C   UNL     1      -5.422   0.840  25.310  0.00  0.00    +0.122 C 
BRANCH  12  17
ATOM      4  N   UNL     1      -2.154  -0.775  25.818  0.00  0.00    -0.349 N 
ATOM     17  C   UNL     1      -4.186  -0.021  25.340  0.00  0.00    -0.008 A 
ATOM     21  C   UNL     1      -3.990  -1.246  24.642  0.00  0.00    +0.004 A 
ATOM     22  C   UNL     1      -3.040   0.242  26.054  0.00  0.00    +0.091 A 
ATOM     23  C   UNL     1      -2.708  -1.697  24.959  0.00  0.00    +0.049 A 
ATOM     25  C   UNL     1      -4.784  -2.015  23.767  0.00  0.00    +0.010 A 
ATOM     26  C   UNL     1      -2.176  -2.885  24.444  0.00  0.00    +0.026 A 
ATOM     28  C   UNL     1      -0.830  -0.853  26.397  0.00  0.00    +0.149 C 
ATOM     30  C   UNL     1      -4.265  -3.205  23.244  0.00  0.00    +0.001 A 
ATOM     31  C   UNL     1      -2.981  -3.631  23.578  0.00  0.00    +0.002 A 
ENDBRANCH  12  17
ENDBRANCH   3  12
ENDBRANCH  13   8
TORSDOF 6
ENDMDL
MODEL 2
REMARK VINA RESULT:       4.2      0.964      2.038
REMARK  Name = 45783592
REMARK  7 active torsions:
REMARK  status: ('A' for Active; 'I' for Inactive)
REMARK    1  A    between atoms: O_1  and  C_14
REMARK    2  A    between atoms: O_1  and  C_27
REMARK    3  A    between atoms: N_3  and  C_12
REMARK    4  A    between atoms: N_4  and  C_28
REMARK    5  A    between atoms: C_8  and  C_13
REMARK    6  A    between atoms: C_12  and  C_17
REMARK    7  A    between atoms: C_24  and  C_29
REMARK                            x       y       z     vdW  Elec       q    Type
REMARK                         _______ _______ _______ _____ _____    ______ ____
ROOT
ATOM      2  O   UNL     1      -2.216   3.429  25.214  0.00  0.00    -0.336 OA
ATOM      5  N   UNL     1      -2.300   1.677  23.822  0.00  0.00    -0.190 NA
ATOM      6  N   UNL     1      -0.888   3.140  24.873  0.00  0.00    -0.056 NA
ATOM     13  C   UNL     1      -2.981   2.521  24.554  0.00  0.00    +0.245 A 
ATOM     24  C   UNL     1      -1.020   2.095  24.049  0.00  0.00    +0.204 A 
ENDROOT
BRANCH  24  29
ATOM      7  N   UNL     1       2.469   1.444  22.947  0.00  0.00    -0.221 NA
ATOM     27  C   UNL     1       2.286   0.272  22.299  0.00  0.00    +0.215 A 
ATOM     29  C   UNL     1       0.103   1.447  23.438  0.00  0.00    +0.041 A 
ATOM     32  C   UNL     1       1.060  -0.365  22.180  0.00  0.00    +0.068 A 
ATOM     33  C   UNL     1      -0.047   0.241  22.763  0.00  0.00    +0.018 A 
ATOM     34  C   UNL     1       1.370   2.003  23.501  0.00  0.00    +0.126 A 
BRANCH  27   1
ATOM      1  O   UNL     1       3.392  -0.304  21.733  0.00  0.00    -0.473 OA
BRANCH   1  14
ATOM     14  C   UNL     1       4.559  -0.383  22.544  0.00  0.00    +0.175 C 
ATOM     15  C   UNL     1       4.859   0.988  23.148  0.00  0.00    +0.044 C 
ATOM     16  C   UNL     1       4.360  -1.444  23.626  0.00  0.00    +0.044 C 
ATOM     18  C   UNL     1       6.045   0.934  24.104  0.00  0.00    +0.004 C 
ATOM     19  C   UNL     1       5.547  -1.498  24.582  0.00  0.00    +0.004 C 
ATOM     20  C   UNL     1       5.848  -0.127  25.184  0.00  0.00    +0.000 C 
ENDBRANCH   1  14
ENDBRANCH  27   1
ENDBRANCH  24  29
BRANCH  13   8
ATOM      3  N   UNL     1      -5.062   1.380  25.302  0.00  0.00    -0.287 NA
ATOM      8  C   UNL     1      -4.478   2.623  24.760  0.00  0.00    +0.146 C 
ATOM      9  C   UNL     1      -4.866   3.713  25.776  0.00  0.00    +0.030 C 
ATOM     10  C   UNL     1      -6.231   1.779  26.084  0.00  0.00    +0.085 C 
ATOM     11  C   UNL     1      -5.716   3.000  26.818  0.00  0.00    +0.017 C 
BRANCH   3  12
ATOM     12  C   UNL     1      -5.398   0.406  24.271  0.00  0.00    +0.122 C 
BRANCH  12  17
ATOM      4  N   UNL     1      -3.581  -2.771  23.887  0.00  0.00    -0.349 N 
ATOM     17  C   UNL     1      -4.460  -0.772  24.286  0.00  0.00    -0.008 A 
ATOM     21  C   UNL     1      -3.221  -0.860  24.981  0.00  0.00    +0.004 A 
ATOM     22  C   UNL     1      -4.653  -1.962  23.623  0.00  0.00    +0.091 A 
ATOM     23  C   UNL     1      -2.691  -2.123  24.714  0.00  0.00    +0.049 A 
ATOM     25  C   UNL     1      -2.498   0.017  25.815  0.00  0.00    +0.010 A 
ATOM     26  C   UNL     1      -1.468  -2.556  25.240  0.00  0.00    +0.026 A 
ATOM     28  C   UNL     1      -3.422  -4.111  23.364  0.00  0.00    +0.149 C 
ATOM     30  C   UNL     1      -1.275  -0.402  26.348  0.00  0.00    +0.001 A 
ATOM     31  C   UNL     1      -0.769  -1.669  26.064  0.00  0.00    +0.002 A 
ENDBRANCH  12  17
ENDBRANCH   3  12
ENDBRANCH  13   8
TORSDOF 6
ENDMDL
MODEL 3
REMARK VINA RESULT:       5.3      1.135      2.229
REMARK  Name = 45783592
REMARK  7 active torsions:
REMARK  status: ('A' for Active; 'I' for Inactive)
REMARK    1  A    between atoms: O_1  and  C_14
REMARK    2  A    between atoms: O_1  and  C_27
REMARK    3  A    between atoms: N_3  and  C_12
REMARK    4  A    between atoms: N_4  and  C_28
REMARK    5  A    between atoms: C_8  and  C_13
REMARK    6  A    between atoms: C_12  and  C_17
REMARK    7  A    between atoms: C_24  and  C_29
REMARK                            x       y       z     vdW  Elec       q    Type
REMARK                         _______ _______ _______ _____ _____    ______ ____
ROOT
ATOM      2  O   UNL     1      -3.611   2.612  22.200  0.00  0.00    -0.336 OA
ATOM      5  N   UNL     1      -2.452   1.821  23.945  0.00  0.00    -0.190 NA
ATOM      6  N   UNL     1      -2.419   2.097  21.674  0.00  0.00    -0.056 NA
ATOM     13  C   UNL     1      -3.549   2.410  23.542  0.00  0.00    +0.245 A 
ATOM     24  C   UNL     1      -1.790   1.648  22.764  0.00  0.00    +0.204 A 
ENDROOT
BRANCH  24  29
ATOM      7  N   UNL     1       0.955  -0.627  21.710  0.00  0.00    -0.221 NA
ATOM     27  C   UNL     1       1.929  -0.207  22.547  0.00  0.00    +0.215 A 
ATOM     29  C   UNL     1      -0.500   1.025  22.708  0.00  0.00    +0.041 A 
ATOM     32  C   UNL     1       1.768   0.807  23.479  0.00  0.00    +0.068 A 
ATOM     33  C   UNL     1       0.527   1.430  23.554  0.00  0.00    +0.018 A 
ATOM     34  C   UNL     1      -0.238   0.002  21.812  0.00  0.00    +0.126 A 
BRANCH  27   1
ATOM      1  O   UNL     1       3.142  -0.837  22.454  0.00  0.00    -0.473 OA
BRANCH   1  14
ATOM     14  C   UNL     1       4.115  -0.498  23.436  0.00  0.00    +0.175 C 
ATOM     15  C   UNL     1       5.015  -1.703  23.705  0.00  0.00    +0.044 C 
ATOM     16  C   UNL     1       4.920   0.712  22.963  0.00  0.00    +0.044 C 
ATOM     18  C   UNL     1       6.137  -1.361  24.680  0.00  0.00    +0.004 C 
ATOM     19  C   UNL     1       6.042   1.054  23.938  0.00  0.00    +0.004 C 
ATOM     20  C   UNL     1       6.940  -0.151  24.209  0.00  0.00    +0.000 C 
ENDBRANCH   1  14
ENDBRANCH  27   1
ENDBRANCH  24  29
BRANCH  13   8
ATOM      3  N   UNL     1      -4.891   2.147  25.620  0.00  0.00    -0.287 NA
ATOM      8  C   UNL     1      -4.736   2.887  24.352  0.00  0.00    +0.146 C 
ATOM      9  C   UNL     1      -4.615   4.363  24.772  0.00  0.00    +0.030 C 
ATOM     10  C   UNL     1      -5.522   3.071  26.563  0.00  0.00    +0.085 C 
ATOM     11  C   UNL     1      -4.775   4.360  26.286  0.00  0.00    +0.017 C 
BRANCH   3  12
ATOM     12  C   UNL     1      -5.648   0.911  25.475  0.00  0.00    +0.122 C 
BRANCH  12  17
ATOM      4  N   UNL     1      -4.115  -2.046  23.910  0.00  0.00    -0.349 N 
ATOM     17  C   UNL     1      -4.786  -0.220  24.979  0.00  0.00    -0.008 A 
ATOM     21  C   UNL     1      -3.422  -0.454  25.312  0.00  0.00    +0.004 A 
ATOM     22  C   UNL     1      -5.183  -1.215  24.116  0.00  0.00    +0.091 A 
ATOM     23  C   UNL     1      -3.026  -1.605  24.628  0.00  0.00    +0.049 A 
ATOM     25  C   UNL     1      -2.485   0.205  26.132  0.00  0.00    +0.010 A 
ATOM     26  C   UNL     1      -1.733  -2.133  24.724  0.00  0.00    +0.026 A 
ATOM     28  C   UNL     1      -4.143  -3.215  23.058  0.00  0.00    +0.149 C 
ATOM     30  C   UNL     1      -1.189  -0.312  26.238  0.00  0.00    +0.001 A 
ATOM     31  C   UNL     1      -0.820  -1.463  25.544  0.00  0.00    +0.002 A 
ENDBRANCH  12  17
ENDBRANCH   3  12
ENDBRANCH  13   8
TORSDOF 6
ENDMDL
MODEL 4
REMARK VINA RESULT:       5.6      1.881      3.947
REMARK  Name = 45783592
REMARK  7 active torsions:
REMARK  status: ('A' for Active; 'I' for Inactive)
REMARK    1  A    between atoms: O_1  and  C_14
REMARK    2  A    between atoms: O_1  and  C_27
REMARK    3  A    between atoms: N_3  and  C_12
REMARK    4  A    between atoms: N_4  and  C_28
REMARK    5  A    between atoms: C_8  and  C_13
REMARK    6  A    between atoms: C_12  and  C_17
REMARK    7  A    between atoms: C_24  and  C_29
REMARK                            x       y       z     vdW  Elec       q    Type
REMARK                         _______ _______ _______ _____ _____    ______ ____
ROOT
ATOM      2  O   UNL     1      -3.410  -0.739  25.643  0.00  0.00    -0.336 OA
ATOM      5  N   UNL     1      -2.668   1.024  24.477  0.00  0.00    -0.190 NA
ATOM      6  N   UNL     1      -2.169  -1.117  25.113  0.00  0.00    -0.056 NA
ATOM     13  C   UNL     1      -3.628   0.534  25.220  0.00  0.00    +0.245 A 
ATOM     24  C   UNL     1      -1.795  -0.024  24.439  0.00  0.00    +0.204 A 
ENDROOT
BRANCH  24  29
ATOM      7  N   UNL     1       0.941  -0.908  22.083  0.00  0.00    -0.221 NA
ATOM     27  C   UNL     1       1.777   0.128  22.310  0.00  0.00    +0.215 A 
ATOM     29  C   UNL     1      -0.559   0.051  23.718  0.00  0.00    +0.041 A 
ATOM     32  C   UNL     1       1.521   1.149  23.213  0.00  0.00    +0.068 A 
ATOM     33  C   UNL     1       0.327   1.102  23.926  0.00  0.00    +0.018 A 
ATOM     34  C   UNL     1      -0.209  -0.920  22.794  0.00  0.00    +0.126 A 
BRANCH  27   1
ATOM      1  O   UNL     1       2.946   0.152  21.596  0.00  0.00    -0.473 OA
BRANCH   1  14
ATOM     14  C   UNL     1       4.135  -0.177  22.305  0.00  0.00    +0.175 C 
ATOM     15  C   UNL     1       4.695   1.074  22.980  0.00  0.00    +0.044 C 
ATOM     16  C   UNL     1       3.838  -1.279  23.321  0.00  0.00    +0.044 C 
ATOM     18  C   UNL     1       5.917   0.754  23.833  0.00  0.00    +0.004 C 
ATOM     19  C   UNL     1       5.061  -1.600  24.175  0.00  0.00    +0.004 C 
ATOM     20  C   UNL     1       5.621  -0.348  24.847  0.00  0.00    +0.000 C 
ENDBRANCH   1  14
ENDBRANCH  27   1
ENDBRANCH  24  29
BRANCH  13   8
ATOM      3  N   UNL     1      -4.997   2.610  25.304  0.00  0.00    -0.287 NA
ATOM      8  C   UNL     1      -4.923   1.180  25.664  0.00  0.00    +0.146 C 
ATOM      9  C   UNL     1      -6.162   0.546  25.005  0.00  0.00    +0.030 C 
ATOM     10  C   UNL     1      -6.415   2.917  25.119  0.00  0.00    +0.085 C 
ATOM     11  C   UNL     1      -6.901   1.705  24.351  0.00  0.00    +0.017 C 
BRANCH   3  12
ATOM     12  C   UNL     1      -4.371   3.483  26.289  0.00  0.00    +0.122 C 
BRANCH  12  17
ATOM      4  N   UNL     1      -1.381   5.059  24.832  0.00  0.00    -0.349 N 
ATOM     17  C   UNL     1      -3.004   3.936  25.848  0.00  0.00    -0.008 A 
ATOM     21  C   UNL     1      -1.757   3.386  26.260  0.00  0.00    +0.004 A 
ATOM     22  C   UNL     1      -2.740   4.962  24.972  0.00  0.00    +0.091 A 
ATOM     23  C   UNL     1      -0.756   4.109  25.608  0.00  0.00    +0.049 A 
ATOM     25  C   UNL     1      -1.383   2.339  27.126  0.00  0.00    +0.010 A 
ATOM     26  C   UNL     1       0.606   3.837  25.780  0.00  0.00    +0.026 A 
ATOM     28  C   UNL     1      -0.715   6.028  23.989  0.00  0.00    +0.149 C 
ATOM     30  C   UNL     1      -0.025   2.055  27.307  0.00  0.00    +0.001 A 
ATOM     31  C   UNL     1       0.953   2.793  26.643  0.00  0.00    +0.002 A 
ENDBRANCH  12  17
ENDBRANCH   3  12
ENDBRANCH  13   8
TORSDOF 6
ENDMDL
MODEL 5
REMARK VINA RESULT:       6.6      2.038      4.234
REMARK  Name = 45783592
REMARK  7 active torsions:
REMARK  status: ('A' for Active; 'I' for Inactive)
REMARK    1  A    between atoms: O_1  and  C_14
REMARK    2  A    between atoms: O_1  and  C_27
REMARK    3  A    between atoms: N_3  and  C_12
REMARK    4  A    between atoms: N_4  and  C_28
REMARK    5  A    between atoms: C_8  and  C_13
REMARK    6  A    between atoms: C_12  and  C_17
REMARK    7  A    between atoms: C_24  and  C_29
REMARK                            x       y       z     vdW  Elec       q    Type
REMARK                         _______ _______ _______ _____ _____    ______ ____
ROOT
ATOM      2  O   UNL     1      -4.574  -0.498  25.429  0.00  0.00    -0.336 OA
ATOM      5  N   UNL     1      -3.132   1.145  24.942  0.00  0.00    -0.190 NA
ATOM      6  N   UNL     1      -3.420  -1.125  24.938  0.00  0.00    -0.056 NA
ATOM     13  C   UNL     1      -4.320   0.836  25.397  0.00  0.00    +0.245 A 
ATOM     24  C   UNL     1      -2.616  -0.090  24.674  0.00  0.00    +0.204 A 
ENDROOT
BRANCH  24  29
ATOM      7  N   UNL     1       0.444   0.522  22.654  0.00  0.00    -0.221 NA
ATOM     27  C   UNL     1       1.204  -0.510  23.079  0.00  0.00    +0.215 A 
ATOM     29  C   UNL     1      -1.297  -0.256  24.140  0.00  0.00    +0.041 A 
ATOM     32  C   UNL     1       0.792  -1.443  24.018  0.00  0.00    +0.068 A 
ATOM     33  C   UNL     1      -0.485  -1.306  24.553  0.00  0.00    +0.018 A 
ATOM     34  C   UNL     1      -0.791   0.623  23.197  0.00  0.00    +0.126 A 
BRANCH  27   1
ATOM      1  O   UNL     1       2.456  -0.624  22.537  0.00  0.00    -0.473 OA
BRANCH   1  14
ATOM     14  C   UNL     1       3.554  -0.320  23.391  0.00  0.00    +0.175 C 
ATOM     15  C   UNL     1       4.401  -1.574  23.605  0.00  0.00    +0.044 C 
ATOM     16  C   UNL     1       4.375   0.818  22.786  0.00  0.00    +0.044 C 
ATOM     18  C   UNL     1       5.645  -1.276  24.435  0.00  0.00    +0.004 C 
ATOM     19  C   UNL     1       5.619   1.115  23.617  0.00  0.00    +0.004 C 
ATOM     20  C   UNL     1       6.464  -0.138  23.832  0.00  0.00    +0.000 C 
ENDBRANCH   1  14
ENDBRANCH  27   1
ENDBRANCH  24  29
BRANCH  13   8
ATOM      3  N   UNL     1      -5.161   3.169  25.596  0.00  0.00    -0.287 NA
ATOM      8  C   UNL     1      -5.427   1.746  25.884  0.00  0.00    +0.146 C 
ATOM      9  C   UNL     1      -6.778   1.455  25.204  0.00  0.00    +0.030 C 
ATOM     10  C   UNL     1      -6.466   3.811  25.438  0.00  0.00    +0.085 C 
ATOM     11  C   UNL     1      -7.221   2.787  24.615  0.00  0.00    +0.017 C 
BRANCH   3  12
ATOM     12  C   UNL     1      -4.350   3.820  26.617  0.00  0.00    +0.122 C 
BRANCH  12  17
ATOM      4  N   UNL     1      -0.754   3.082  26.356  0.00  0.00    -0.349 N 
ATOM     17  C   UNL     1      -2.879   3.724  26.311  0.00  0.00    -0.008 A 
ATOM     21  C   UNL     1      -2.159   4.500  25.359  0.00  0.00    +0.004 A 
ATOM     22  C   UNL     1      -1.988   2.862  26.906  0.00  0.00    +0.091 A 
ATOM     23  C   UNL     1      -0.830   4.078  25.408  0.00  0.00    +0.049 A 
ATOM     25  C   UNL     1      -2.513   5.526  24.459  0.00  0.00    +0.010 A 
ATOM     26  C   UNL     1       0.169   4.631  24.598  0.00  0.00    +0.026 A 
ATOM     28  C   UNL     1       0.445   2.363  26.727  0.00  0.00    +0.149 C 
ATOM     30  C   UNL     1      -1.525   6.089  23.644  0.00  0.00    +0.001 A 
ATOM     31  C   UNL     1      -0.206   5.647  23.713  0.00  0.00    +0.002 A 
ENDBRANCH  12  17
ENDBRANCH   3  12
ENDBRANCH  13   8
TORSDOF 6
ENDMDL
