MODEL 1
REMARK VINA RESULT:       2.6      0.000      0.000
REMARK  Name = 28960439
REMARK  8 active torsions:
REMARK  status: ('A' for Active; 'I' for Inactive)
REMARK    1  A    between atoms: O_3  and  C_10
REMARK    2  A    between atoms: O_4  and  C_22
REMARK    3  A    between atoms: O_4  and  C_31
REMARK    4  A    between atoms: N_5  and  C_9
REMARK    5  A    between atoms: N_6  and  C_11
REMARK    6  A    between atoms: N_6  and  C_19
REMARK    7  A    between atoms: N_7  and  C_20
REMARK    8  A    between atoms: C_19  and  C_21
REMARK                            x       y       z     vdW  Elec       q    Type
REMARK                         _______ _______ _______ _____ _____    ______ ____
ROOT
ATOM      1  O   UNL     1      -4.196   3.609  24.000  0.00  0.00    -0.343 OA
ATOM      2  O   UNL     1      -5.065   5.288  25.342  0.00  0.00    -0.347 OA
ATOM      9  C   UNL     1      -2.828   4.486  25.786  0.00  0.00    +0.143 C 
ATOM     10  C   UNL     1      -3.382   3.416  26.755  0.00  0.00    +0.156 C 
ATOM     11  C   UNL     1      -4.317   2.383  26.081  0.00  0.00    +0.116 C 
ATOM     12  C   UNL     1      -5.117   2.988  24.904  0.00  0.00    +0.166 C 
ATOM     13  C   UNL     1      -3.868   4.817  24.700  0.00  0.00    +0.270 C 
ATOM     14  C   UNL     1      -5.976   4.180  25.282  0.00  0.00    +0.196 C 
ENDROOT
BRANCH   9   5
ATOM      5  N   UNL     1      -1.585   4.030  25.165  0.00  0.00    -0.290 NA
ATOM      7  N   UNL     1       0.251   2.115  24.105  0.00  0.00    -0.325 N 
ATOM     15  C   UNL     1      -1.863   3.361  23.888  0.00  0.00    +0.104 C 
ATOM     16  C   UNL     1      -0.865   3.115  26.061  0.00  0.00    +0.104 C 
ATOM     17  C   UNL     1      -0.566   2.929  23.199  0.00  0.00    +0.120 C 
ATOM     18  C   UNL     1       0.464   2.676  25.444  0.00  0.00    +0.120 C 
BRANCH   7  20
ATOM     20  C   UNL     1       1.235   1.270  23.580  0.00  0.00    +0.072 A 
ATOM     22  C   UNL     1       0.976  -0.086  23.383  0.00  0.00    +0.141 A 
ATOM     23  C   UNL     1       2.486   1.795  23.256  0.00  0.00    +0.027 A 
ATOM     25  C   UNL     1       1.966  -0.917  22.861  0.00  0.00    +0.047 A 
ATOM     26  C   UNL     1       3.477   0.963  22.732  0.00  0.00    +0.002 A 
ATOM     27  C   UNL     1       3.217  -0.393  22.535  0.00  0.00    +0.004 A 
BRANCH  22   4
ATOM      4  O   UNL     1      -0.240  -0.619  23.694  0.00  0.00    -0.493 OA
ATOM     31  C   UNL     1      -0.326  -1.374  24.900  0.00  0.00    +0.277 C 
ENDBRANCH  22   4
ENDBRANCH   7  20
ENDBRANCH   9   5
BRANCH  10   3
ATOM      3  O   UNL     1      -4.119   4.100  27.780  0.00  0.00    -0.388 OA
ATOM     33  H   UNL     1      -3.473   4.495  28.391  0.00  0.00    +0.210 HD
ENDBRANCH  10   3
BRANCH  11   6
ATOM      6  N   UNL     1      -3.545   1.244  25.573  0.00  0.00    -0.303 NA
ATOM     32  H   UNL     1      -3.283   0.636  26.348  0.00  0.00    +0.123 HD
BRANCH   6  19
ATOM     19  C   UNL     1      -4.317   0.503  24.590  0.00  0.00    +0.137 C 
BRANCH  19  21
ATOM      8  N   UNL     1      -3.500  -1.453  25.785  0.00  0.00    -0.259 NA
ATOM     21  C   UNL     1      -4.007  -0.970  24.629  0.00  0.00    +0.055 A 
ATOM     24  C   UNL     1      -4.249  -1.743  23.505  0.00  0.00    +0.024 A 
ATOM     28  C   UNL     1      -3.953  -3.100  23.573  0.00  0.00    +0.003 A 
ATOM     29  C   UNL     1      -3.225  -2.775  25.814  0.00  0.00    +0.111 A 
ATOM     30  C   UNL     1      -3.431  -3.634  24.747  0.00  0.00    +0.020 A 
ENDBRANCH  19  21
ENDBRANCH   6  19
ENDBRANCH  11   6
TORSDOF 7
ENDMDL
MODEL 2
REMARK VINA RESULT:       4.8      2.292      5.030
REMARK  Name = 28960439
REMARK  8 active torsions:
REMARK  status: ('A' for Active; 'I' for Inactive)
REMARK    1  A    between atoms: O_3  and  C_10
REMARK    2  A    between atoms: O_4  and  C_22
REMARK    3  A    between atoms: O_4  and  C_31
REMARK    4  A    between atoms: N_5  and  C_9
REMARK    5  A    between atoms: N_6  and  C_11
REMARK    6  A    between atoms: N_6  and  C_19
REMARK    7  A    between atoms: N_7  and  C_20
REMARK    8  A    between atoms: C_19  and  C_21
REMARK                            x       y       z     vdW  Elec       q    Type
REMARK                         _______ _______ _______ _____ _____    ______ ____
ROOT
ATOM      1  O   UNL     1      -2.318   0.031  25.757  0.00  0.00    -0.343 OA
ATOM      2  O   UNL     1      -4.048  -1.396  26.344  0.00  0.00    -0.347 OA
ATOM      9  C   UNL     1      -2.543  -2.061  24.572  0.00  0.00    +0.143 C 
ATOM     10  C   UNL     1      -3.451  -1.383  23.520  0.00  0.00    +0.156 C 
ATOM     11  C   UNL     1      -3.594   0.147  23.707  0.00  0.00    +0.116 C 
ATOM     12  C   UNL     1      -3.516   0.573  25.191  0.00  0.00    +0.166 C 
ATOM     13  C   UNL     1      -2.672  -1.347  25.931  0.00  0.00    +0.270 C 
ATOM     14  C   UNL     1      -4.558  -0.080  26.081  0.00  0.00    +0.196 C 
ENDROOT
BRANCH   9   5
ATOM      5  N   UNL     1      -1.147  -2.054  24.135  0.00  0.00    -0.290 NA
ATOM      7  N   UNL     1       1.487  -0.990  23.836  0.00  0.00    -0.325 N 
ATOM     15  C   UNL     1      -0.246  -1.965  25.290  0.00  0.00    +0.104 C 
ATOM     16  C   UNL     1      -0.899  -0.932  23.220  0.00  0.00    +0.104 C 
ATOM     17  C   UNL     1       1.219  -2.015  24.850  0.00  0.00    +0.120 C 
ATOM     18  C   UNL     1       0.545  -0.949  22.712  0.00  0.00    +0.120 C 
BRANCH   7  20
ATOM     20  C   UNL     1       2.800  -0.565  23.610  0.00  0.00    +0.072 A 
ATOM     22  C   UNL     1       3.060   0.731  23.164  0.00  0.00    +0.141 A 
ATOM     23  C   UNL     1       3.855  -1.450  23.834  0.00  0.00    +0.027 A 
ATOM     25  C   UNL     1       4.374   1.142  22.942  0.00  0.00    +0.047 A 
ATOM     26  C   UNL     1       5.170  -1.038  23.613  0.00  0.00    +0.002 A 
ATOM     27  C   UNL     1       5.429   0.258  23.166  0.00  0.00    +0.004 A 
BRANCH  22   4
ATOM      4  O   UNL     1       2.044   1.611  22.939  0.00  0.00    -0.493 OA
ATOM     31  C   UNL     1       1.203   1.926  24.046  0.00  0.00    +0.277 C 
ENDBRANCH  22   4
ENDBRANCH   7  20
ENDBRANCH   9   5
BRANCH  10   3
ATOM      3  O   UNL     1      -4.752  -1.980  23.621  0.00  0.00    -0.388 OA
ATOM     33  H   UNL     1      -4.936  -2.428  22.778  0.00  0.00    +0.210 HD
ENDBRANCH  10   3
BRANCH  11   6
ATOM      6  N   UNL     1      -2.542   0.857  22.972  0.00  0.00    -0.303 NA
ATOM     32  H   UNL     1      -2.337   0.362  22.104  0.00  0.00    +0.123 HD
BRANCH   6  19
ATOM     19  C   UNL     1      -2.950   2.222  22.689  0.00  0.00    +0.137 C 
BRANCH  19  21
ATOM      8  N   UNL     1      -4.241   3.413  24.373  0.00  0.00    -0.259 NA
ATOM     21  C   UNL     1      -3.010   3.059  23.940  0.00  0.00    +0.055 A 
ATOM     24  C   UNL     1      -1.832   3.417  24.574  0.00  0.00    +0.024 A 
ATOM     28  C   UNL     1      -1.921   4.188  25.727  0.00  0.00    +0.003 A 
ATOM     29  C   UNL     1      -4.288   4.162  25.497  0.00  0.00    +0.111 A 
ATOM     30  C   UNL     1      -3.170   4.572  26.204  0.00  0.00    +0.020 A 
ENDBRANCH  19  21
ENDBRANCH   6  19
ENDBRANCH  11   6
TORSDOF 7
ENDMDL
MODEL 3
REMARK VINA RESULT:       5.6      1.881      6.540
REMARK  Name = 28960439
REMARK  8 active torsions:
REMARK  status: ('A' for Active; 'I' for Inactive)
REMARK    1  A    between atoms: O_3  and  C_10
REMARK    2  A    between atoms: O_4  and  C_22
REMARK    3  A    between atoms: O_4  and  C_31
REMARK    4  A    between atoms: N_5  and  C_9
REMARK    5  A    between atoms: N_6  and  C_11
REMARK    6  A    between atoms: N_6  and  C_19
REMARK    7  A    between atoms: N_7  and  C_20
REMARK    8  A    between atoms: C_19  and  C_21
REMARK                            x       y       z     vdW  Elec       q    Type
REMARK                         _______ _______ _______ _____ _____    ______ ____
ROOT
ATOM      1  O   UNL     1       2.202   0.895  24.430  0.00  0.00    -0.343 OA
ATOM      2  O   UNL     1       3.059   1.571  22.384  0.00  0.00    -0.347 OA
ATOM      9  C   UNL     1       0.719   0.977  22.526  0.00  0.00    +0.143 C 
ATOM     10  C   UNL     1       1.052  -0.494  22.187  0.00  0.00    +0.156 C 
ATOM     11  C   UNL     1       1.960  -1.190  23.230  0.00  0.00    +0.116 C 
ATOM     12  C   UNL     1       2.947  -0.208  23.903  0.00  0.00    +0.166 C 
ATOM     13  C   UNL     1       1.908   1.644  23.243  0.00  0.00    +0.270 C 
ATOM     14  C   UNL     1       3.863   0.517  22.934  0.00  0.00    +0.196 C 
ENDROOT
BRANCH   9   5
ATOM      5  N   UNL     1      -0.478   1.059  23.363  0.00  0.00    -0.290 NA
ATOM      7  N   UNL     1      -2.916   2.196  24.324  0.00  0.00    -0.325 N 
ATOM     15  C   UNL     1      -1.689   1.030  22.534  0.00  0.00    +0.104 C 
ATOM     16  C   UNL     1      -0.457   2.282  24.175  0.00  0.00    +0.104 C 
ATOM     17  C   UNL     1      -2.950   1.057  23.402  0.00  0.00    +0.120 C 
ATOM     18  C   UNL     1      -1.677   2.350  25.096  0.00  0.00    +0.120 C 
BRANCH   7  20
ATOM     20  C   UNL     1      -4.106   2.668  24.888  0.00  0.00    +0.072 A 
ATOM     22  C   UNL     1      -4.350   4.038  24.988  0.00  0.00    +0.141 A 
ATOM     23  C   UNL     1      -5.052   1.756  25.354  0.00  0.00    +0.027 A 
ATOM     25  C   UNL     1      -5.540   4.495  25.553  0.00  0.00    +0.047 A 
ATOM     26  C   UNL     1      -6.243   2.213  25.919  0.00  0.00    +0.002 A 
ATOM     27  C   UNL     1      -6.487   3.583  26.019  0.00  0.00    +0.004 A 
BRANCH  22   4
ATOM      4  O   UNL     1      -3.438   4.946  24.539  0.00  0.00    -0.493 OA
ATOM     31  C   UNL     1      -2.382   5.297  25.429  0.00  0.00    +0.277 C 
ENDBRANCH  22   4
ENDBRANCH   7  20
ENDBRANCH   9   5
BRANCH  10   3
ATOM      3  O   UNL     1       1.722  -0.505  20.917  0.00  0.00    -0.388 OA
ATOM     33  H   UNL     1       1.782   0.415  20.610  0.00  0.00    +0.210 HD
ENDBRANCH  10   3
BRANCH  11   6
ATOM      6  N   UNL     1       1.151  -1.818  24.280  0.00  0.00    -0.303 NA
ATOM     32  H   UNL     1       0.956  -1.138  25.014  0.00  0.00    +0.123 HD
BRANCH   6  19
ATOM     19  C   UNL     1      -0.089  -2.334  23.728  0.00  0.00    +0.137 C 
BRANCH  19  21
ATOM      8  N   UNL     1      -1.042  -1.162  25.636  0.00  0.00    -0.259 NA
ATOM     21  C   UNL     1      -1.272  -1.992  24.594  0.00  0.00    +0.055 A 
ATOM     24  C   UNL     1      -2.513  -2.530  24.291  0.00  0.00    +0.024 A 
ATOM     28  C   UNL     1      -3.585  -2.194  25.109  0.00  0.00    +0.003 A 
ATOM     29  C   UNL     1      -2.108  -0.859  26.409  0.00  0.00    +0.111 A 
ATOM     30  C   UNL     1      -3.387  -1.342  26.191  0.00  0.00    +0.020 A 
ENDBRANCH  19  21
ENDBRANCH   6  19
ENDBRANCH  11   6
TORSDOF 7
ENDMDL
MODEL 4
REMARK VINA RESULT:       6.0      2.217      4.903
REMARK  Name = 28960439
REMARK  8 active torsions:
REMARK  status: ('A' for Active; 'I' for Inactive)
REMARK    1  A    between atoms: O_3  and  C_10
REMARK    2  A    between atoms: O_4  and  C_22
REMARK    3  A    between atoms: O_4  and  C_31
REMARK    4  A    between atoms: N_5  and  C_9
REMARK    5  A    between atoms: N_6  and  C_11
REMARK    6  A    between atoms: N_6  and  C_19
REMARK    7  A    between atoms: N_7  and  C_20
REMARK    8  A    between atoms: C_19  and  C_21
REMARK                            x       y       z     vdW  Elec       q    Type
REMARK                         _______ _______ _______ _____ _____    ______ ____
ROOT
ATOM      1  O   UNL     1      -2.892   0.597  25.830  0.00  0.00    -0.343 OA
ATOM      2  O   UNL     1      -3.734  -1.507  26.319  0.00  0.00    -0.347 OA
ATOM      9  C   UNL     1      -2.363  -1.233  24.346  0.00  0.00    +0.143 C 
ATOM     10  C   UNL     1      -3.616  -0.922  23.494  0.00  0.00    +0.156 C 
ATOM     11  C   UNL     1      -4.375   0.353  23.937  0.00  0.00    +0.116 C 
ATOM     12  C   UNL     1      -4.274   0.604  25.459  0.00  0.00    +0.166 C 
ATOM     13  C   UNL     1      -2.589  -0.804  25.808  0.00  0.00    +0.270 C 
ATOM     14  C   UNL     1      -4.793  -0.537  26.314  0.00  0.00    +0.196 C 
ENDROOT
BRANCH   9   5
ATOM      5  N   UNL     1      -1.186  -0.556  23.803  0.00  0.00    -0.290 NA
ATOM      7  N   UNL     1       1.604  -0.041  23.469  0.00  0.00    -0.325 N 
ATOM     15  C   UNL     1      -0.338  -1.505  23.072  0.00  0.00    +0.104 C 
ATOM     16  C   UNL     1      -0.413   0.078  24.879  0.00  0.00    +0.104 C 
ATOM     17  C   UNL     1       0.870  -0.797  22.450  0.00  0.00    +0.120 C 
ATOM     18  C   UNL     1       0.790   0.838  24.317  0.00  0.00    +0.120 C 
BRANCH   7  20
ATOM     20  C   UNL     1       2.938   0.314  23.241  0.00  0.00    +0.072 A 
ATOM     22  C   UNL     1       3.968  -0.588  23.503  0.00  0.00    +0.141 A 
ATOM     23  C   UNL     1       3.233   1.586  22.750  0.00  0.00    +0.027 A 
ATOM     25  C   UNL     1       5.294  -0.221  23.273  0.00  0.00    +0.047 A 
ATOM     26  C   UNL     1       4.560   1.954  22.519  0.00  0.00    +0.002 A 
ATOM     27  C   UNL     1       5.590   1.050  22.780  0.00  0.00    +0.004 A 
BRANCH  22   4
ATOM      4  O   UNL     1       3.701  -1.836  23.984  0.00  0.00    -0.493 OA
ATOM     31  C   UNL     1       4.809  -2.716  24.152  0.00  0.00    +0.277 C 
ENDBRANCH  22   4
ENDBRANCH   7  20
ENDBRANCH   9   5
BRANCH  10   3
ATOM      3  O   UNL     1      -4.504  -2.044  23.604  0.00  0.00    -0.388 OA
ATOM     33  H   UNL     1      -4.497  -2.334  24.533  0.00  0.00    +0.210 HD
ENDBRANCH  10   3
BRANCH  11   6
ATOM      6  N   UNL     1      -3.849   1.533  23.242  0.00  0.00    -0.303 NA
ATOM     32  H   UNL     1      -4.255   1.589  22.308  0.00  0.00    +0.123 HD
BRANCH   6  19
ATOM     19  C   UNL     1      -4.146   2.740  23.994  0.00  0.00    +0.137 C 
BRANCH  19  21
ATOM      8  N   UNL     1      -1.741   3.053  23.796  0.00  0.00    -0.259 NA
ATOM     21  C   UNL     1      -2.898   3.521  24.314  0.00  0.00    +0.055 A 
ATOM     24  C   UNL     1      -2.992   4.654  25.105  0.00  0.00    +0.024 A 
ATOM     28  C   UNL     1      -1.823   5.354  25.381  0.00  0.00    +0.003 A 
ATOM     29  C   UNL     1      -0.625   3.759  24.086  0.00  0.00    +0.111 A 
ATOM     30  C   UNL     1      -0.612   4.904  24.865  0.00  0.00    +0.020 A 
ENDBRANCH  19  21
ENDBRANCH   6  19
ENDBRANCH  11   6
TORSDOF 7
ENDMDL
MODEL 5
REMARK VINA RESULT:       6.3      2.302      5.371
REMARK  Name = 28960439
REMARK  8 active torsions:
REMARK  status: ('A' for Active; 'I' for Inactive)
REMARK    1  A    between atoms: O_3  and  C_10
REMARK    2  A    between atoms: O_4  and  C_22
REMARK    3  A    between atoms: O_4  and  C_31
REMARK    4  A    between atoms: N_5  and  C_9
REMARK    5  A    between atoms: N_6  and  C_11
REMARK    6  A    between atoms: N_6  and  C_19
REMARK    7  A    between atoms: N_7  and  C_20
REMARK    8  A    between atoms: C_19  and  C_21
REMARK                            x       y       z     vdW  Elec       q    Type
REMARK                         _______ _______ _______ _____ _____    ______ ____
ROOT
ATOM      1  O   UNL     1      -2.142  -1.726  25.582  0.00  0.00    -0.343 OA
ATOM      2  O   UNL     1      -4.124  -1.482  24.402  0.00  0.00    -0.347 OA
ATOM      9  C   UNL     1      -2.057  -0.777  23.363  0.00  0.00    +0.143 C 
ATOM     10  C   UNL     1      -2.223   0.644  23.950  0.00  0.00    +0.156 C 
ATOM     11  C   UNL     1      -2.217   0.689  25.497  0.00  0.00    +0.116 C 
ATOM     12  C   UNL     1      -2.817  -0.588  26.129  0.00  0.00    +0.166 C 
ATOM     13  C   UNL     1      -2.731  -1.817  24.278  0.00  0.00    +0.270 C 
ATOM     14  C   UNL     1      -4.243  -0.884  25.702  0.00  0.00    +0.196 C 
ENDROOT
BRANCH   9   5
ATOM      5  N   UNL     1      -0.641  -1.105  23.192  0.00  0.00    -0.290 NA
ATOM      7  N   UNL     1       2.175  -0.754  23.516  0.00  0.00    -0.325 N 
ATOM     15  C   UNL     1      -0.008  -1.345  24.494  0.00  0.00    +0.104 C 
ATOM     16  C   UNL     1       0.058  -0.023  22.488  0.00  0.00    +0.104 C 
ATOM     17  C   UNL     1       1.460  -1.746  24.326  0.00  0.00    +0.120 C 
ATOM     18  C   UNL     1       1.527  -0.381  22.253  0.00  0.00    +0.120 C 
BRANCH   7  20
ATOM     20  C   UNL     1       3.570  -0.674  23.589  0.00  0.00    +0.072 A 
ATOM     22  C   UNL     1       4.223   0.539  23.373  0.00  0.00    +0.141 A 
ATOM     23  C   UNL     1       4.307  -1.821  23.880  0.00  0.00    +0.027 A 
ATOM     25  C   UNL     1       5.614   0.605  23.448  0.00  0.00    +0.047 A 
ATOM     26  C   UNL     1       5.699  -1.756  23.956  0.00  0.00    +0.002 A 
ATOM     27  C   UNL     1       6.353  -0.542  23.740  0.00  0.00    +0.004 A 
BRANCH  22   4
ATOM      4  O   UNL     1       3.521   1.672  23.087  0.00  0.00    -0.493 OA
ATOM     31  C   UNL     1       3.977   2.455  21.987  0.00  0.00    +0.277 C 
ENDBRANCH  22   4
ENDBRANCH   7  20
ENDBRANCH   9   5
BRANCH  10   3
ATOM      3  O   UNL     1      -3.478   1.162  23.482  0.00  0.00    -0.388 OA
ATOM     33  H   UNL     1      -4.041   0.402  23.253  0.00  0.00    +0.210 HD
ENDBRANCH  10   3
BRANCH  11   6
ATOM      6  N   UNL     1      -0.850   0.851  26.003  0.00  0.00    -0.303 NA
ATOM     32  H   UNL     1      -0.340  -0.025  25.896  0.00  0.00    +0.123 HD
BRANCH   6  19
ATOM     19  C   UNL     1      -0.169   1.922  25.296  0.00  0.00    +0.137 C 
BRANCH  19  21
ATOM      8  N   UNL     1      -2.101   3.194  26.050  0.00  0.00    -0.259 NA
ATOM     21  C   UNL     1      -0.941   3.213  25.355  0.00  0.00    +0.055 A 
ATOM     24  C   UNL     1      -0.440   4.333  24.712  0.00  0.00    +0.024 A 
ATOM     28  C   UNL     1      -1.176   5.510  24.787  0.00  0.00    +0.003 A 
ATOM     29  C   UNL     1      -2.789   4.356  26.101  0.00  0.00    +0.111 A 
ATOM     30  C   UNL     1      -2.374   5.530  25.494  0.00  0.00    +0.020 A 
ENDBRANCH  19  21
ENDBRANCH   6  19
ENDBRANCH  11   6
TORSDOF 7
ENDMDL
MODEL 6
REMARK VINA RESULT:       6.3      2.004      6.760
REMARK  Name = 28960439
REMARK  8 active torsions:
REMARK  status: ('A' for Active; 'I' for Inactive)
REMARK    1  A    between atoms: O_3  and  C_10
REMARK    2  A    between atoms: O_4  and  C_22
REMARK    3  A    between atoms: O_4  and  C_31
REMARK    4  A    between atoms: N_5  and  C_9
REMARK    5  A    between atoms: N_6  and  C_11
REMARK    6  A    between atoms: N_6  and  C_19
REMARK    7  A    between atoms: N_7  and  C_20
REMARK    8  A    between atoms: C_19  and  C_21
REMARK                            x       y       z     vdW  Elec       q    Type
REMARK                         _______ _______ _______ _____ _____    ______ ____
ROOT
ATOM      1  O   UNL     1      -2.246  -1.449  23.572  0.00  0.00    -0.343 OA
ATOM      2  O   UNL     1      -2.287  -3.452  24.741  0.00  0.00    -0.347 OA
ATOM      9  C   UNL     1      -1.615  -1.440  25.903  0.00  0.00    +0.143 C 
ATOM     10  C   UNL     1      -0.138  -1.688  25.518  0.00  0.00    +0.156 C 
ATOM     11  C   UNL     1       0.125  -1.672  23.993  0.00  0.00    +0.116 C 
ATOM     12  C   UNL     1      -1.084  -2.188  23.178  0.00  0.00    +0.166 C 
ATOM     13  C   UNL     1      -2.554  -2.042  24.840  0.00  0.00    +0.270 C 
ATOM     14  C   UNL     1      -1.520  -3.596  23.536  0.00  0.00    +0.196 C 
ENDROOT
BRANCH   9   5
ATOM      5  N   UNL     1      -1.880  -0.009  26.050  0.00  0.00    -0.290 NA
ATOM      7  N   UNL     1      -2.055   2.712  25.198  0.00  0.00    -0.325 N 
ATOM     15  C   UNL     1      -2.943   0.415  25.130  0.00  0.00    +0.104 C 
ATOM     16  C   UNL     1      -0.661   0.770  25.798  0.00  0.00    +0.104 C 
ATOM     17  C   UNL     1      -3.270   1.899  25.315  0.00  0.00    +0.120 C 
ATOM     18  C   UNL     1      -0.913   2.265  26.005  0.00  0.00    +0.120 C 
BRANCH   7  20
ATOM     20  C   UNL     1      -2.158   4.075  24.902  0.00  0.00    +0.072 A 
ATOM     22  C   UNL     1      -3.374   4.623  24.493  0.00  0.00    +0.141 A 
ATOM     23  C   UNL     1      -1.031   4.889  25.019  0.00  0.00    +0.027 A 
ATOM     25  C   UNL     1      -3.463   5.983  24.199  0.00  0.00    +0.047 A 
ATOM     26  C   UNL     1      -1.120   6.251  24.726  0.00  0.00    +0.002 A 
ATOM     27  C   UNL     1      -2.337   6.798  24.316  0.00  0.00    +0.004 A 
BRANCH  22   4
ATOM      4  O   UNL     1      -4.487   3.845  24.372  0.00  0.00    -0.493 OA
ATOM     31  C   UNL     1      -5.442   3.913  25.428  0.00  0.00    +0.277 C 
ENDBRANCH  22   4
ENDBRANCH   7  20
ENDBRANCH   9   5
BRANCH  10   3
ATOM      3  O   UNL     1       0.234  -2.975  26.033  0.00  0.00    -0.388 OA
ATOM     33  H   UNL     1       1.188  -3.087  25.881  0.00  0.00    +0.210 HD
ENDBRANCH  10   3
BRANCH  11   6
ATOM      6  N   UNL     1       0.437  -0.313  23.538  0.00  0.00    -0.303 NA
ATOM     32  H   UNL     1       0.832   0.224  24.309  0.00  0.00    +0.123 HD
BRANCH   6  19
ATOM     19  C   UNL     1       1.366  -0.350  22.422  0.00  0.00    +0.137 C 
BRANCH  19  21
ATOM      8  N   UNL     1       3.318  -1.354  23.472  0.00  0.00    -0.259 NA
ATOM     21  C   UNL     1       2.797  -0.255  22.881  0.00  0.00    +0.055 A 
ATOM     24  C   UNL     1       3.497   0.923  22.681  0.00  0.00    +0.024 A 
ATOM     28  C   UNL     1       4.817   0.978  23.115  0.00  0.00    +0.003 A 
ATOM     29  C   UNL     1       4.603  -1.263  23.881  0.00  0.00    +0.111 A 
ATOM     30  C   UNL     1       5.388  -0.133  23.727  0.00  0.00    +0.020 A 
ENDBRANCH  19  21
ENDBRANCH   6  19
ENDBRANCH  11   6
TORSDOF 7
ENDMDL
MODEL 7
REMARK VINA RESULT:       6.4      1.916      6.450
REMARK  Name = 28960439
REMARK  8 active torsions:
REMARK  status: ('A' for Active; 'I' for Inactive)
REMARK    1  A    between atoms: O_3  and  C_10
REMARK    2  A    between atoms: O_4  and  C_22
REMARK    3  A    between atoms: O_4  and  C_31
REMARK    4  A    between atoms: N_5  and  C_9
REMARK    5  A    between atoms: N_6  and  C_11
REMARK    6  A    between atoms: N_6  and  C_19
REMARK    7  A    between atoms: N_7  and  C_20
REMARK    8  A    between atoms: C_19  and  C_21
REMARK                            x       y       z     vdW  Elec       q    Type
REMARK                         _______ _______ _______ _____ _____    ______ ____
ROOT
ATOM      1  O   UNL     1       2.981   0.586  24.349  0.00  0.00    -0.343 OA
ATOM      2  O   UNL     1       3.780   1.128  22.240  0.00  0.00    -0.347 OA
ATOM      9  C   UNL     1       1.395   1.187  22.630  0.00  0.00    +0.143 C 
ATOM     10  C   UNL     1       1.269  -0.296  22.209  0.00  0.00    +0.156 C 
ATOM     11  C   UNL     1       2.050  -1.275  23.119  0.00  0.00    +0.116 C 
ATOM     12  C   UNL     1       3.333  -0.644  23.705  0.00  0.00    +0.166 C 
ATOM     13  C   UNL     1       2.788   1.459  23.228  0.00  0.00    +0.270 C 
ATOM     14  C   UNL     1       4.311  -0.137  22.662  0.00  0.00    +0.196 C 
ENDROOT
BRANCH   9   5
ATOM      5  N   UNL     1       0.358   1.539  23.601  0.00  0.00    -0.290 NA
ATOM      7  N   UNL     1      -2.023   2.819  24.525  0.00  0.00    -0.325 N 
ATOM     15  C   UNL     1      -0.958   1.084  23.137  0.00  0.00    +0.104 C 
ATOM     16  C   UNL     1       0.334   2.991  23.825  0.00  0.00    +0.104 C 
ATOM     17  C   UNL     1      -2.043   1.396  24.171  0.00  0.00    +0.120 C 
ATOM     18  C   UNL     1      -0.708   3.365  24.882  0.00  0.00    +0.120 C 
BRANCH   7  20
ATOM     20  C   UNL     1      -3.156   3.409  25.094  0.00  0.00    +0.072 A 
ATOM     22  C   UNL     1      -4.412   2.820  24.948  0.00  0.00    +0.141 A 
ATOM     23  C   UNL     1      -3.023   4.598  25.811  0.00  0.00    +0.027 A 
ATOM     25  C   UNL     1      -5.535   3.419  25.518  0.00  0.00    +0.047 A 
ATOM     26  C   UNL     1      -4.146   5.197  26.383  0.00  0.00    +0.002 A 
ATOM     27  C   UNL     1      -5.402   4.607  26.237  0.00  0.00    +0.004 A 
BRANCH  22   4
ATOM      4  O   UNL     1      -4.564   1.658  24.250  0.00  0.00    -0.493 OA
ATOM     31  C   UNL     1      -5.625   0.795  24.653  0.00  0.00    +0.277 C 
ENDBRANCH  22   4
ENDBRANCH   7  20
ENDBRANCH   9   5
BRANCH  10   3
ATOM      3  O   UNL     1       1.778  -0.410  20.871  0.00  0.00    -0.388 OA
ATOM     33  H   UNL     1       1.691   0.462  20.449  0.00  0.00    +0.210 HD
ENDBRANCH  10   3
BRANCH  11   6
ATOM      6  N   UNL     1       1.209  -1.724  24.234  0.00  0.00    -0.303 NA
ATOM     32  H   UNL     1       1.027  -0.941  24.861  0.00  0.00    +0.123 HD
BRANCH   6  19
ATOM     19  C   UNL     1      -0.041  -2.274  23.740  0.00  0.00    +0.137 C 
BRANCH  19  21
ATOM      8  N   UNL     1      -0.907  -1.237  25.763  0.00  0.00    -0.259 NA
ATOM     21  C   UNL     1      -1.192  -1.967  24.662  0.00  0.00    +0.055 A 
ATOM     24  C   UNL     1      -2.457  -2.434  24.346  0.00  0.00    +0.024 A 
ATOM     28  C   UNL     1      -3.498  -2.131  25.216  0.00  0.00    +0.003 A 
ATOM     29  C   UNL     1      -1.944  -0.963  26.586  0.00  0.00    +0.111 A 
ATOM     30  C   UNL     1      -3.245  -1.382  26.360  0.00  0.00    +0.020 A 
ENDBRANCH  19  21
ENDBRANCH   6  19
ENDBRANCH  11   6
TORSDOF 7
ENDMDL
