MODEL 1
REMARK VINA RESULT:      -0.7      0.000      0.000
REMARK  Name = 11912171
REMARK  6 active torsions:
REMARK  status: ('A' for Active; 'I' for Inactive)
REMARK    1  A    between atoms: O_3  and  C_26
REMARK    2  A    between atoms: N_4  and  C_14
REMARK    3  A    between atoms: C_14  and  C_19
REMARK    4  A    between atoms: C_17  and  C_20
REMARK    5  A    between atoms: C_22  and  C_26
REMARK    6  A    between atoms: C_27  and  C_30
REMARK                            x       y       z     vdW  Elec       q    Type
REMARK                         _______ _______ _______ _____ _____    ______ ____
ROOT
ATOM      1  O   UNL     1      14.617  -5.878  26.817  0.00  0.00    -0.267 OA
ATOM      4  N   UNL     1      16.610 -10.279  28.156  0.00  0.00    -0.294 NA
ATOM      5  N   UNL     1      15.419  -7.998  26.272  0.00  0.00    -0.311 N 
ATOM      7  C   UNL     1      14.326 -10.153  27.128  0.00  0.00    +0.024 C 
ATOM      8  C   UNL     1      16.295 -10.282  25.678  0.00  0.00    +0.050 C 
ATOM      9  C   UNL     1      14.855 -10.759  25.834  0.00  0.00    +0.017 C 
ATOM     10  C   UNL     1      15.190 -10.617  28.319  0.00  0.00    +0.090 C 
ATOM     11  C   UNL     1      17.136 -10.777  26.876  0.00  0.00    +0.094 C 
ATOM     12  C   UNL     1      14.295  -8.626  26.982  0.00  0.00    +0.130 C 
ATOM     13  C   UNL     1      16.354  -8.769  25.577  0.00  0.00    +0.026 A 
ATOM     15  C   UNL     1      17.306  -8.172  24.844  0.00  0.00    +0.022 A 
ATOM     16  C   UNL     1      15.443  -6.590  26.245  0.00  0.00    +0.259 A 
ATOM     17  C   UNL     1      16.543  -5.949  25.442  0.00  0.00    +0.047 A 
ATOM     18  C   UNL     1      17.402  -6.741  24.782  0.00  0.00    +0.015 A 
ENDROOT
BRANCH  17  20
ATOM     20  C   UNL     1      16.689  -4.485  25.379  0.00  0.00    -0.011 A 
ATOM     24  C   UNL     1      16.388  -3.802  24.199  0.00  0.00    +0.027 A 
ATOM     25  C   UNL     1      17.129  -3.779  26.499  0.00  0.00    +0.009 A 
ATOM     27  C   UNL     1      16.525  -2.415  24.142  0.00  0.00    +0.052 A 
ATOM     28  C   UNL     1      17.266  -2.391  26.441  0.00  0.00    +0.002 A 
ATOM     29  C   UNL     1      16.965  -1.710  25.262  0.00  0.00    +0.019 A 
BRANCH  27  30
ATOM      6  N   UNL     1      15.969  -1.147  21.952  0.00  0.00    -0.191 NA
ATOM     30  C   UNL     1      16.219  -1.716  22.934  0.00  0.00    +0.099 C 
ENDBRANCH  27  30
ENDBRANCH  17  20
BRANCH   4  14
ATOM     14  C   UNL     1      17.400 -10.781  29.277  0.00  0.00    +0.158 C 
BRANCH  14  19
ATOM      2  O   UNL     1      17.198  -8.684  30.432  0.00  0.00    -0.461 OA
ATOM     19  C   UNL     1      17.096 -10.019  30.538  0.00  0.00    +0.119 A 
ATOM     21  C   UNL     1      16.734 -10.423  31.776  0.00  0.00    +0.046 A 
ATOM     22  C   UNL     1      16.886  -8.201  31.663  0.00  0.00    +0.131 A 
ATOM     23  C   UNL     1      16.594  -9.231  32.525  0.00  0.00    +0.047 A 
BRANCH  22  26
ATOM     26  C   UNL     1      16.924  -6.739  31.817  0.00  0.00    +0.230 C 
BRANCH  26   3
ATOM      3  O   UNL     1      16.529  -6.151  30.577  0.00  0.00    -0.387 OA
ATOM     31  H   UNL     1      15.787  -6.679  30.237  0.00  0.00    +0.210 HD
ENDBRANCH  26   3
ENDBRANCH  22  26
ENDBRANCH  14  19
ENDBRANCH   4  14
TORSDOF 6
ENDMDL
MODEL 2
REMARK VINA RESULT:       3.1     18.503     20.732
REMARK  Name = 11912171
REMARK  6 active torsions:
REMARK  status: ('A' for Active; 'I' for Inactive)
REMARK    1  A    between atoms: O_3  and  C_26
REMARK    2  A    between atoms: N_4  and  C_14
REMARK    3  A    between atoms: C_14  and  C_19
REMARK    4  A    between atoms: C_17  and  C_20
REMARK    5  A    between atoms: C_22  and  C_26
REMARK    6  A    between atoms: C_27  and  C_30
REMARK                            x       y       z     vdW  Elec       q    Type
REMARK                         _______ _______ _______ _____ _____    ______ ____
ROOT
ATOM      1  O   UNL     1      -1.908   3.607  27.759  0.00  0.00    -0.267 OA
ATOM      4  N   UNL     1      -4.324   0.905  24.295  0.00  0.00    -0.294 NA
ATOM      5  N   UNL     1      -2.351   3.085  25.531  0.00  0.00    -0.311 N 
ATOM      7  C   UNL     1      -4.667   3.382  24.473  0.00  0.00    +0.024 C 
ATOM      8  C   UNL     1      -2.817   2.516  23.123  0.00  0.00    +0.050 C 
ATOM      9  C   UNL     1      -3.886   3.602  23.183  0.00  0.00    +0.017 C 
ATOM     10  C   UNL     1      -5.310   1.979  24.469  0.00  0.00    +0.090 C 
ATOM     11  C   UNL     1      -3.493   1.126  23.102  0.00  0.00    +0.094 C 
ATOM     12  C   UNL     1      -3.724   3.595  25.664  0.00  0.00    +0.130 C 
ATOM     13  C   UNL     1      -1.868   2.627  24.302  0.00  0.00    +0.026 A 
ATOM     15  C   UNL     1      -0.580   2.271  24.176  0.00  0.00    +0.022 A 
ATOM     16  C   UNL     1      -1.527   3.177  26.669  0.00  0.00    +0.259 A 
ATOM     17  C   UNL     1      -0.097   2.739  26.506  0.00  0.00    +0.047 A 
ATOM     18  C   UNL     1       0.313   2.324  25.297  0.00  0.00    +0.015 A 
ENDROOT
BRANCH  17  20
ATOM     20  C   UNL     1       0.841   2.753  27.641  0.00  0.00    -0.011 A 
ATOM     24  C   UNL     1       0.378   2.500  28.933  0.00  0.00    +0.027 A 
ATOM     25  C   UNL     1       2.194   3.018  27.426  0.00  0.00    +0.009 A 
ATOM     27  C   UNL     1       1.268   2.511  30.008  0.00  0.00    +0.052 A 
ATOM     28  C   UNL     1       3.083   3.029  28.501  0.00  0.00    +0.002 A 
ATOM     29  C   UNL     1       2.620   2.776  29.792  0.00  0.00    +0.019 A 
BRANCH  27  30
ATOM      6  N   UNL     1       0.408   2.044  32.407  0.00  0.00    -0.191 NA
ATOM     30  C   UNL     1       0.794   2.253  31.331  0.00  0.00    +0.099 C 
ENDBRANCH  27  30
ENDBRANCH  17  20
BRANCH   4  14
ATOM     14  C   UNL     1      -4.977  -0.401  24.242  0.00  0.00    +0.158 C 
BRANCH  14  19
ATOM      2  O   UNL     1      -2.744  -1.136  24.737  0.00  0.00    -0.461 OA
ATOM     19  C   UNL     1      -3.969  -1.514  24.336  0.00  0.00    +0.119 A 
ATOM     21  C   UNL     1      -4.057  -2.840  24.090  0.00  0.00    +0.046 A 
ATOM     22  C   UNL     1      -2.003  -2.275  24.753  0.00  0.00    +0.131 A 
ATOM     23  C   UNL     1      -2.765  -3.351  24.362  0.00  0.00    +0.047 A 
BRANCH  22  26
ATOM     26  C   UNL     1      -0.599  -2.134  25.165  0.00  0.00    +0.230 C 
BRANCH  26   3
ATOM      3  O   UNL     1      -0.472  -0.914  25.898  0.00  0.00    -0.387 OA
ATOM     31  H   UNL     1      -1.341  -0.480  25.877  0.00  0.00    +0.210 HD
ENDBRANCH  26   3
ENDBRANCH  22  26
ENDBRANCH  14  19
ENDBRANCH   4  14
TORSDOF 6
ENDMDL
