MODEL 1
REMARK VINA RESULT:       7.0      0.000      0.000
REMARK  Name = 45783966
REMARK  13 active torsions:
REMARK  status: ('A' for Active; 'I' for Inactive)
REMARK    1  A    between atoms: N_3  and  C_13
REMARK    2  A    between atoms: N_7  and  C_33
REMARK    3  A    between atoms: N_7  and  C_34
REMARK    4  A    between atoms: N_7  and  C_35
REMARK    5  A    between atoms: C_8  and  C_12
REMARK    6  A    between atoms: C_9  and  C_13
REMARK    7  A    between atoms: C_11  and  C_16
REMARK    8  A    between atoms: C_12  and  C_17
REMARK    9  A    between atoms: C_12  and  C_18
REMARK   10  A    between atoms: C_15  and  C_21
REMARK   11  A    between atoms: C_16  and  C_24
REMARK   12  A    between atoms: C_25  and  C_27
REMARK   13  A    between atoms: C_26  and  C_28
REMARK                            x       y       z     vdW  Elec       q    Type
REMARK                         _______ _______ _______ _____ _____    ______ ____
ROOT
ATOM      8  C   UNL     1      -1.395   3.991  24.263  0.00  0.00    +0.000 C 
ATOM      9  C   UNL     1      -0.971   2.933  25.307  0.00  0.00    +0.029 C 
ATOM     10  C   UNL     1      -2.907   4.248  24.340  0.00  0.00    +0.012 C 
ATOM     11  C   UNL     1      -3.382   4.689  25.740  0.00  0.00    +0.024 C 
ATOM     14  C   UNL     1      -1.615   3.156  26.652  0.00  0.00    -0.023 C 
ATOM     15  C   UNL     1      -2.683   3.945  26.868  0.00  0.00    -0.073 C 
ATOM     21  C   UNL     1      -3.192   4.166  28.267  0.00  0.00    +0.039 C 
ENDROOT
BRANCH   8  12
ATOM     12  C   UNL     1      -0.602   5.295  24.434  0.00  0.00    -0.013 C 
ATOM     17  C   UNL     1       0.276   5.547  23.212  0.00  0.00    +0.007 C 
ATOM     18  C   UNL     1      -1.550   6.466  24.671  0.00  0.00    +0.007 C 
ENDBRANCH   8  12
BRANCH   9  13
ATOM     13  C   UNL     1      -1.283   1.511  24.830  0.00  0.00    +0.092 C 
BRANCH  13   3
ATOM      2  O   UNL     1       3.887  -1.737  23.544  0.00  0.00    -0.276 OA
ATOM      3  N   UNL     1      -0.232   1.024  23.937  0.00  0.00    -0.299 NA
ATOM      4  N   UNL     1       2.362  -0.004  23.286  0.00  0.00    -0.299 N 
ATOM     19  C   UNL     1       0.125  -0.363  24.267  0.00  0.00    +0.103 C 
ATOM     20  C   UNL     1       0.952   1.892  24.011  0.00  0.00    +0.103 C 
ATOM     22  C   UNL     1       1.198  -0.888  23.313  0.00  0.00    +0.123 C 
ATOM     23  C   UNL     1       2.046   1.410  23.057  0.00  0.00    +0.123 C 
ATOM     25  C   UNL     1       3.646  -0.543  23.349  0.00  0.00    +0.213 C 
ATOM     27  C   UNL     1       4.792   0.421  23.170  0.00  0.00    +0.109 C 
ENDBRANCH  13   3
ENDBRANCH   9  13
BRANCH  11  16
ATOM     16  C   UNL     1      -4.909   4.565  25.801  0.00  0.00    +0.105 C 
BRANCH  16  24
ATOM      1  O   UNL     1      -4.457   2.213  25.325  0.00  0.00    -0.420 OA
ATOM      5  N   UNL     1      -6.469   2.596  26.225  0.00  0.00    -0.112 NA
ATOM      6  N   UNL     1      -6.349   1.235  26.010  0.00  0.00    -0.107 NA
ATOM     24  C   UNL     1      -5.343   3.126  25.811  0.00  0.00    +0.218 A 
ATOM     26  C   UNL     1      -5.160   1.058  25.483  0.00  0.00    +0.248 A 
BRANCH  26  28
ATOM     28  C   UNL     1      -4.500  -0.140  25.058  0.00  0.00    +0.039 A 
ATOM     29  C   UNL     1      -3.600  -0.782  25.911  0.00  0.00    +0.015 A 
ATOM     30  C   UNL     1      -4.757  -0.667  23.792  0.00  0.00    +0.015 A 
ATOM     31  C   UNL     1      -2.957  -1.949  25.498  0.00  0.00    +0.024 A 
ATOM     32  C   UNL     1      -4.113  -1.834  23.378  0.00  0.00    +0.024 A 
ATOM     33  C   UNL     1      -3.214  -2.475  24.232  0.00  0.00    +0.029 A 
BRANCH  33   7
ATOM      7  N   UNL     1      -2.563  -3.654  23.813  0.00  0.00    -0.336 N 
ATOM     34  C   UNL     1      -1.137  -3.817  24.015  0.00  0.00    +0.129 C 
ATOM     35  C   UNL     1      -3.310  -4.715  23.169  0.00  0.00    +0.129 C 
ENDBRANCH  33   7
ENDBRANCH  26  28
ENDBRANCH  16  24
ENDBRANCH  11  16
TORSDOF 7
ENDMDL
MODEL 2
REMARK VINA RESULT:       7.9      2.395      5.350
REMARK  Name = 45783966
REMARK  13 active torsions:
REMARK  status: ('A' for Active; 'I' for Inactive)
REMARK    1  A    between atoms: N_3  and  C_13
REMARK    2  A    between atoms: N_7  and  C_33
REMARK    3  A    between atoms: N_7  and  C_34
REMARK    4  A    between atoms: N_7  and  C_35
REMARK    5  A    between atoms: C_8  and  C_12
REMARK    6  A    between atoms: C_9  and  C_13
REMARK    7  A    between atoms: C_11  and  C_16
REMARK    8  A    between atoms: C_12  and  C_17
REMARK    9  A    between atoms: C_12  and  C_18
REMARK   10  A    between atoms: C_15  and  C_21
REMARK   11  A    between atoms: C_16  and  C_24
REMARK   12  A    between atoms: C_25  and  C_27
REMARK   13  A    between atoms: C_26  and  C_28
REMARK                            x       y       z     vdW  Elec       q    Type
REMARK                         _______ _______ _______ _____ _____    ______ ____
ROOT
ATOM      8  C   UNL     1      -3.006   2.820  23.193  0.00  0.00    +0.000 C 
ATOM      9  C   UNL     1      -3.782   3.899  23.984  0.00  0.00    +0.029 C 
ATOM     10  C   UNL     1      -2.973   1.499  23.976  0.00  0.00    +0.012 C 
ATOM     11  C   UNL     1      -4.375   0.964  24.333  0.00  0.00    +0.024 C 
ATOM     14  C   UNL     1      -5.056   3.367  24.591  0.00  0.00    -0.023 C 
ATOM     15  C   UNL     1      -5.344   2.062  24.744  0.00  0.00    -0.073 C 
ATOM     21  C   UNL     1      -6.684   1.641  25.284  0.00  0.00    +0.039 C 
ENDROOT
BRANCH   8  12
ATOM     12  C   UNL     1      -3.599   2.619  21.791  0.00  0.00    -0.013 C 
ATOM     17  C   UNL     1      -4.096   3.947  21.229  0.00  0.00    +0.007 C 
ATOM     18  C   UNL     1      -2.565   1.990  20.863  0.00  0.00    +0.007 C 
ENDBRANCH   8  12
BRANCH   9  13
ATOM     13  C   UNL     1      -2.920   4.521  25.087  0.00  0.00    +0.092 C 
BRANCH  13   3
ATOM      2  O   UNL     1       0.928   1.999  29.300  0.00  0.00    -0.276 OA
ATOM      3  N   UNL     1      -1.874   3.592  25.512  0.00  0.00    -0.299 NA
ATOM      4  N   UNL     1       0.267   2.666  27.176  0.00  0.00    -0.299 N 
ATOM     19  C   UNL     1      -2.145   3.094  26.868  0.00  0.00    +0.103 C 
ATOM     20  C   UNL     1      -0.554   4.238  25.455  0.00  0.00    +0.103 C 
ATOM     22  C   UNL     1      -1.073   2.095  27.303  0.00  0.00    +0.123 C 
ATOM     23  C   UNL     1       0.551   3.265  25.868  0.00  0.00    +0.123 C 
ATOM     25  C   UNL     1       1.191   2.505  28.206  0.00  0.00    +0.213 C 
ATOM     27  C   UNL     1       2.592   2.996  27.939  0.00  0.00    +0.109 C 
ENDBRANCH  13   3
ENDBRANCH   9  13
BRANCH  11  16
ATOM     16  C   UNL     1      -4.226  -0.128  25.399  0.00  0.00    +0.105 C 
BRANCH  16  24
ATOM      1  O   UNL     1      -1.881  -0.324  24.749  0.00  0.00    -0.420 OA
ATOM      5  N   UNL     1      -2.854  -2.270  25.269  0.00  0.00    -0.112 NA
ATOM      6  N   UNL     1      -1.540  -2.528  24.924  0.00  0.00    -0.107 NA
ATOM     24  C   UNL     1      -3.008  -0.973  25.153  0.00  0.00    +0.218 A 
ATOM     26  C   UNL     1      -1.011  -1.364  24.627  0.00  0.00    +0.248 A 
BRANCH  26  28
ATOM     28  C   UNL     1       0.316  -1.025  24.204  0.00  0.00    +0.039 A 
ATOM     29  C   UNL     1       1.389  -1.850  24.543  0.00  0.00    +0.015 A 
ATOM     30  C   UNL     1       0.534   0.130  23.454  0.00  0.00    +0.015 A 
ATOM     31  C   UNL     1       2.680  -1.520  24.132  0.00  0.00    +0.024 A 
ATOM     32  C   UNL     1       1.826   0.461  23.042  0.00  0.00    +0.024 A 
ATOM     33  C   UNL     1       2.899  -0.365  23.381  0.00  0.00    +0.029 A 
BRANCH  33   7
ATOM      7  N   UNL     1       4.205  -0.031  22.966  0.00  0.00    -0.336 N 
ATOM     34  C   UNL     1       5.356  -0.612  23.627  0.00  0.00    +0.129 C 
ATOM     35  C   UNL     1       4.412   0.904  21.879  0.00  0.00    +0.129 C 
ENDBRANCH  33   7
ENDBRANCH  26  28
ENDBRANCH  16  24
ENDBRANCH  11  16
TORSDOF 7
ENDMDL
MODEL 3
REMARK VINA RESULT:      10.4      2.489      5.459
REMARK  Name = 45783966
REMARK  13 active torsions:
REMARK  status: ('A' for Active; 'I' for Inactive)
REMARK    1  A    between atoms: N_3  and  C_13
REMARK    2  A    between atoms: N_7  and  C_33
REMARK    3  A    between atoms: N_7  and  C_34
REMARK    4  A    between atoms: N_7  and  C_35
REMARK    5  A    between atoms: C_8  and  C_12
REMARK    6  A    between atoms: C_9  and  C_13
REMARK    7  A    between atoms: C_11  and  C_16
REMARK    8  A    between atoms: C_12  and  C_17
REMARK    9  A    between atoms: C_12  and  C_18
REMARK   10  A    between atoms: C_15  and  C_21
REMARK   11  A    between atoms: C_16  and  C_24
REMARK   12  A    between atoms: C_25  and  C_27
REMARK   13  A    between atoms: C_26  and  C_28
REMARK                            x       y       z     vdW  Elec       q    Type
REMARK                         _______ _______ _______ _____ _____    ______ ____
ROOT
ATOM      8  C   UNL     1      -3.111  -0.605  24.425  0.00  0.00    +0.000 C 
ATOM      9  C   UNL     1      -2.068   0.082  23.513  0.00  0.00    +0.029 C 
ATOM     10  C   UNL     1      -3.977   0.444  25.137  0.00  0.00    +0.012 C 
ATOM     11  C   UNL     1      -4.697   1.403  24.167  0.00  0.00    +0.024 C 
ATOM     14  C   UNL     1      -2.656   1.218  22.716  0.00  0.00    -0.023 C 
ATOM     15  C   UNL     1      -3.833   1.813  22.984  0.00  0.00    -0.073 C 
ATOM     21  C   UNL     1      -4.367   2.882  22.070  0.00  0.00    +0.039 C 
ENDROOT
BRANCH   8  12
ATOM     12  C   UNL     1      -3.977  -1.597  23.637  0.00  0.00    -0.013 C 
ATOM     17  C   UNL     1      -3.545  -3.031  23.930  0.00  0.00    +0.007 C 
ATOM     18  C   UNL     1      -5.452  -1.398  23.972  0.00  0.00    +0.007 C 
ENDBRANCH   8  12
BRANCH   9  13
ATOM     13  C   UNL     1      -0.867   0.597  24.314  0.00  0.00    +0.092 C 
BRANCH  13   3
ATOM      2  O   UNL     1       4.954  -1.587  23.801  0.00  0.00    -0.276 OA
ATOM      3  N   UNL     1       0.379   0.353  23.589  0.00  0.00    -0.299 NA
ATOM      4  N   UNL     1       3.188  -0.151  23.338  0.00  0.00    -0.299 N 
ATOM     19  C   UNL     1       0.936  -0.959  23.945  0.00  0.00    +0.103 C 
ATOM     20  C   UNL     1       1.354   1.418  23.866  0.00  0.00    +0.103 C 
ATOM     22  C   UNL     1       2.221  -1.233  23.163  0.00  0.00    +0.123 C 
ATOM     23  C   UNL     1       2.651   1.191  23.089  0.00  0.00    +0.123 C 
ATOM     25  C   UNL     1       4.525  -0.449  23.593  0.00  0.00    +0.213 C 
ATOM     27  C   UNL     1       5.484   0.716  23.616  0.00  0.00    +0.109 C 
ENDBRANCH  13   3
ENDBRANCH   9  13
BRANCH  11  16
ATOM     16  C   UNL     1      -5.223   2.603  24.964  0.00  0.00    +0.105 C 
BRANCH  16  24
ATOM      1  O   UNL     1      -3.087   2.734  26.138  0.00  0.00    -0.420 OA
ATOM      5  N   UNL     1      -3.931   4.720  25.546  0.00  0.00    -0.112 NA
ATOM      6  N   UNL     1      -2.731   4.942  26.196  0.00  0.00    -0.107 NA
ATOM     24  C   UNL     1      -4.098   3.418  25.536  0.00  0.00    +0.218 A 
ATOM     26  C   UNL     1      -2.275   3.756  26.524  0.00  0.00    +0.248 A 
BRANCH  26  28
ATOM     28  C   UNL     1      -1.075   3.378  27.211  0.00  0.00    +0.039 A 
ATOM     29  C   UNL     1       0.074   3.057  26.486  0.00  0.00    +0.015 A 
ATOM     30  C   UNL     1      -1.056   3.330  28.605  0.00  0.00    +0.015 A 
ATOM     31  C   UNL     1       1.241   2.690  27.155  0.00  0.00    +0.024 A 
ATOM     32  C   UNL     1       0.112   2.961  29.274  0.00  0.00    +0.024 A 
ATOM     33  C   UNL     1       1.261   2.642  28.549  0.00  0.00    +0.029 A 
BRANCH  33   7
ATOM      7  N   UNL     1       2.441   2.268  29.225  0.00  0.00    -0.336 N 
ATOM     34  C   UNL     1       3.739   2.574  28.658  0.00  0.00    +0.129 C 
ATOM     35  C   UNL     1       2.371   1.568  30.491  0.00  0.00    +0.129 C 
ENDBRANCH  33   7
ENDBRANCH  26  28
ENDBRANCH  16  24
ENDBRANCH  11  16
TORSDOF 7
ENDMDL
MODEL 4
REMARK VINA RESULT:      10.4      2.165      6.571
REMARK  Name = 45783966
REMARK  13 active torsions:
REMARK  status: ('A' for Active; 'I' for Inactive)
REMARK    1  A    between atoms: N_3  and  C_13
REMARK    2  A    between atoms: N_7  and  C_33
REMARK    3  A    between atoms: N_7  and  C_34
REMARK    4  A    between atoms: N_7  and  C_35
REMARK    5  A    between atoms: C_8  and  C_12
REMARK    6  A    between atoms: C_9  and  C_13
REMARK    7  A    between atoms: C_11  and  C_16
REMARK    8  A    between atoms: C_12  and  C_17
REMARK    9  A    between atoms: C_12  and  C_18
REMARK   10  A    between atoms: C_15  and  C_21
REMARK   11  A    between atoms: C_16  and  C_24
REMARK   12  A    between atoms: C_25  and  C_27
REMARK   13  A    between atoms: C_26  and  C_28
REMARK                            x       y       z     vdW  Elec       q    Type
REMARK                         _______ _______ _______ _____ _____    ______ ____
ROOT
ATOM      8  C   UNL     1      -2.640   3.167  25.861  0.00  0.00    +0.000 C 
ATOM      9  C   UNL     1      -4.168   3.162  25.628  0.00  0.00    +0.029 C 
ATOM     10  C   UNL     1      -1.921   2.408  24.737  0.00  0.00    +0.012 C 
ATOM     11  C   UNL     1      -2.227   2.965  23.330  0.00  0.00    +0.024 C 
ATOM     14  C   UNL     1      -4.535   3.447  24.193  0.00  0.00    -0.023 C 
ATOM     15  C   UNL     1      -3.681   3.376  23.156  0.00  0.00    -0.073 C 
ATOM     21  C   UNL     1      -4.132   3.766  21.774  0.00  0.00    +0.039 C 
ENDROOT
BRANCH   8  12
ATOM     12  C   UNL     1      -2.098   4.597  25.999  0.00  0.00    -0.013 C 
ATOM     17  C   UNL     1      -0.975   4.839  24.995  0.00  0.00    +0.007 C 
ATOM     18  C   UNL     1      -3.221   5.611  25.811  0.00  0.00    +0.007 C 
ENDBRANCH   8  12
BRANCH   9  13
ATOM     13  C   UNL     1      -4.802   1.835  26.056  0.00  0.00    +0.092 C 
BRANCH  13   3
ATOM      2  O   UNL     1      -4.697  -3.649  23.084  0.00  0.00    -0.276 OA
ATOM      3  N   UNL     1      -4.127   0.709  25.413  0.00  0.00    -0.299 NA
ATOM      4  N   UNL     1      -3.875  -1.991  24.488  0.00  0.00    -0.299 N 
ATOM     19  C   UNL     1      -4.891   0.246  24.246  0.00  0.00    +0.103 C 
ATOM     20  C   UNL     1      -3.933  -0.391  26.370  0.00  0.00    +0.103 C 
ATOM     22  C   UNL     1      -4.171  -0.909  23.551  0.00  0.00    +0.123 C 
ATOM     23  C   UNL     1      -3.199  -1.563  25.717  0.00  0.00    +0.123 C 
ATOM     25  C   UNL     1      -4.125  -3.313  24.125  0.00  0.00    +0.213 C 
ATOM     27  C   UNL     1      -3.659  -4.377  25.087  0.00  0.00    +0.109 C 
ENDBRANCH  13   3
ENDBRANCH   9  13
BRANCH  11  16
ATOM     16  C   UNL     1      -1.768   1.939  22.287  0.00  0.00    +0.105 C 
BRANCH  16  24
ATOM      1  O   UNL     1       0.507   1.139  22.663  0.00  0.00    -0.420 OA
ATOM      5  N   UNL     1      -1.078  -0.133  23.597  0.00  0.00    -0.112 NA
ATOM      6  N   UNL     1       0.150  -0.699  23.888  0.00  0.00    -0.107 NA
ATOM     24  C   UNL     1      -0.822   0.936  22.881  0.00  0.00    +0.218 A 
ATOM     26  C   UNL     1       1.045   0.077  23.323  0.00  0.00    +0.248 A 
BRANCH  26  28
ATOM     28  C   UNL     1       2.475  -0.019  23.295  0.00  0.00    +0.039 A 
ATOM     29  C   UNL     1       3.106  -1.176  23.752  0.00  0.00    +0.015 A 
ATOM     30  C   UNL     1       3.236   1.045  22.809  0.00  0.00    +0.015 A 
ATOM     31  C   UNL     1       4.497  -1.270  23.725  0.00  0.00    +0.024 A 
ATOM     32  C   UNL     1       4.628   0.952  22.783  0.00  0.00    +0.024 A 
ATOM     33  C   UNL     1       5.258  -0.206  23.240  0.00  0.00    +0.029 A 
BRANCH  33   7
ATOM      7  N   UNL     1       6.666  -0.301  23.213  0.00  0.00    -0.336 N 
ATOM     34  C   UNL     1       7.478   0.632  23.969  0.00  0.00    +0.129 C 
ATOM     35  C   UNL     1       7.317  -1.326  22.424  0.00  0.00    +0.129 C 
ENDBRANCH  33   7
ENDBRANCH  26  28
ENDBRANCH  16  24
ENDBRANCH  11  16
TORSDOF 7
ENDMDL
MODEL 5
REMARK VINA RESULT:      10.7      2.536      4.991
REMARK  Name = 45783966
REMARK  13 active torsions:
REMARK  status: ('A' for Active; 'I' for Inactive)
REMARK    1  A    between atoms: N_3  and  C_13
REMARK    2  A    between atoms: N_7  and  C_33
REMARK    3  A    between atoms: N_7  and  C_34
REMARK    4  A    between atoms: N_7  and  C_35
REMARK    5  A    between atoms: C_8  and  C_12
REMARK    6  A    between atoms: C_9  and  C_13
REMARK    7  A    between atoms: C_11  and  C_16
REMARK    8  A    between atoms: C_12  and  C_17
REMARK    9  A    between atoms: C_12  and  C_18
REMARK   10  A    between atoms: C_15  and  C_21
REMARK   11  A    between atoms: C_16  and  C_24
REMARK   12  A    between atoms: C_25  and  C_27
REMARK   13  A    between atoms: C_26  and  C_28
REMARK                            x       y       z     vdW  Elec       q    Type
REMARK                         _______ _______ _______ _____ _____    ______ ____
ROOT
ATOM      8  C   UNL     1      -3.197   2.677  23.037  0.00  0.00    +0.000 C 
ATOM      9  C   UNL     1      -2.579   3.133  24.378  0.00  0.00    +0.029 C 
ATOM     10  C   UNL     1      -3.883   1.313  23.196  0.00  0.00    +0.012 C 
ATOM     11  C   UNL     1      -4.969   1.298  24.292  0.00  0.00    +0.024 C 
ATOM     14  C   UNL     1      -3.502   2.902  25.548  0.00  0.00    -0.023 C 
ATOM     15  C   UNL     1      -4.580   2.097  25.526  0.00  0.00    -0.073 C 
ATOM     21  C   UNL     1      -5.483   2.007  26.726  0.00  0.00    +0.039 C 
ENDROOT
BRANCH   8  12
ATOM     12  C   UNL     1      -4.172   3.727  22.484  0.00  0.00    -0.013 C 
ATOM     17  C   UNL     1      -3.905   5.088  23.120  0.00  0.00    +0.007 C 
ATOM     18  C   UNL     1      -4.062   3.807  20.965  0.00  0.00    +0.007 C 
ENDBRANCH   8  12
BRANCH   9  13
ATOM     13  C   UNL     1      -1.240   2.440  24.649  0.00  0.00    +0.092 C 
BRANCH  13   3
ATOM      2  O   UNL     1       3.415   3.048  28.758  0.00  0.00    -0.276 OA
ATOM      3  N   UNL     1      -0.654   2.919  25.900  0.00  0.00    -0.299 NA
ATOM      4  N   UNL     1       1.197   2.889  28.087  0.00  0.00    -0.299 N 
ATOM     19  C   UNL     1       0.747   3.314  25.697  0.00  0.00    +0.103 C 
ATOM     20  C   UNL     1      -0.751   1.887  26.944  0.00  0.00    +0.103 C 
ATOM     22  C   UNL     1       1.353   3.848  26.995  0.00  0.00    +0.123 C 
ATOM     23  C   UNL     1      -0.170   2.389  28.266  0.00  0.00    +0.123 C 
ATOM     25  C   UNL     1       2.272   2.616  28.930  0.00  0.00    +0.213 C 
ATOM     27  C   UNL     1       1.991   1.728  30.117  0.00  0.00    +0.109 C 
ENDBRANCH  13   3
ENDBRANCH   9  13
BRANCH  11  16
ATOM     16  C   UNL     1      -5.322  -0.159  24.613  0.00  0.00    +0.105 C 
BRANCH  16  24
ATOM      1  O   UNL     1      -2.922  -0.444  24.272  0.00  0.00    -0.420 OA
ATOM      5  N   UNL     1      -4.025  -2.351  24.655  0.00  0.00    -0.112 NA
ATOM      6  N   UNL     1      -2.688  -2.659  24.483  0.00  0.00    -0.107 NA
ATOM     24  C   UNL     1      -4.115  -1.049  24.524  0.00  0.00    +0.218 A 
ATOM     26  C   UNL     1      -2.083  -1.515  24.261  0.00  0.00    +0.248 A 
BRANCH  26  28
ATOM     28  C   UNL     1      -0.700  -1.227  24.015  0.00  0.00    +0.039 A 
ATOM     29  C   UNL     1      -0.346  -0.252  23.082  0.00  0.00    +0.015 A 
ATOM     30  C   UNL     1       0.291  -1.920  24.709  0.00  0.00    +0.015 A 
ATOM     31  C   UNL     1       0.999   0.029  22.842  0.00  0.00    +0.024 A 
ATOM     32  C   UNL     1       1.637  -1.640  24.470  0.00  0.00    +0.024 A 
ATOM     33  C   UNL     1       1.991  -0.664  23.537  0.00  0.00    +0.029 A 
BRANCH  33   7
ATOM      7  N   UNL     1       3.351  -0.381  23.294  0.00  0.00    -0.336 N 
ATOM     34  C   UNL     1       3.732   0.803  22.551  0.00  0.00    +0.129 C 
ATOM     35  C   UNL     1       4.384  -1.275  23.777  0.00  0.00    +0.129 C 
ENDBRANCH  33   7
ENDBRANCH  26  28
ENDBRANCH  16  24
ENDBRANCH  11  16
TORSDOF 7
ENDMDL
