MODEL 1
REMARK VINA RESULT:      -3.6      0.000      0.000
REMARK  Name = 7161700
REMARK  6 active torsions:
REMARK  status: ('A' for Active; 'I' for Inactive)
REMARK    1  A    between atoms: N_6  and  C_14
REMARK    2  A    between atoms: N_7  and  C_18
REMARK    3  A    between atoms: C_14  and  C_16
REMARK    4  A    between atoms: C_14  and  C_17
REMARK    5  A    between atoms: C_18  and  C_19
REMARK    6  A    between atoms: C_18  and  C_20
REMARK                            x       y       z     vdW  Elec       q    Type
REMARK                         _______ _______ _______ _____ _____    ______ ____
ROOT
ATOM      1  O   UNL     1      -1.793   4.244  24.768  0.00  0.00    -0.273 OA
ATOM      2  O   UNL     1      -4.312   0.418  25.270  0.00  0.00    -0.252 OA
ATOM      3  O   UNL     1       2.076  -1.009  23.153  0.00  0.00    -0.253 OA
ATOM      4  N   UNL     1      -2.300   0.871  24.163  0.00  0.00    -0.271 N 
ATOM      5  N   UNL     1       0.451   0.409  24.005  0.00  0.00    -0.282 N 
ATOM      6  N   UNL     1      -3.338   2.543  25.194  0.00  0.00    -0.222 N 
ATOM      7  N   UNL     1       2.516   1.242  23.208  0.00  0.00    -0.297 N 
ATOM      8  C   UNL     1      -1.436   2.001  23.918  0.00  0.00    +0.181 C 
ATOM      9  C   UNL     1      -0.033   1.735  24.450  0.00  0.00    +0.141 C 
ATOM     10  C   UNL     1      -1.865  -0.444  23.736  0.00  0.00    +0.129 C 
ATOM     11  C   UNL     1      -0.467  -0.711  24.283  0.00  0.00    +0.128 C 
ATOM     12  C   UNL     1      -2.182   3.088  24.672  0.00  0.00    +0.245 C 
ATOM     13  C   UNL     1      -3.431   1.190  24.915  0.00  0.00    +0.312 C 
ATOM     15  C   UNL     1       1.705   0.136  23.435  0.00  0.00    +0.303 C 
ATOM     21  H   UNL     1       2.265   2.156  23.554  0.00  0.00    +0.150 HD
ENDROOT
BRANCH   6  14
ATOM     14  C   UNL     1      -4.304   3.295  25.970  0.00  0.00    +0.080 C 
ATOM     16  C   UNL     1      -5.322   3.958  25.050  0.00  0.00    +0.028 C 
ATOM     17  C   UNL     1      -3.602   4.324  26.848  0.00  0.00    +0.028 C 
ENDBRANCH   6  14
BRANCH   7  18
ATOM     18  C   UNL     1       3.837   1.122  22.631  0.00  0.00    +0.068 C 
ATOM     19  C   UNL     1       3.783   0.307  21.346  0.00  0.00    +0.027 C 
ATOM     20  C   UNL     1       4.804   0.505  23.635  0.00  0.00    +0.027 C 
ENDBRANCH   7  18
TORSDOF 2
ENDMDL
MODEL 2
REMARK VINA RESULT:      -3.1      2.045      3.197
REMARK  Name = 7161700
REMARK  6 active torsions:
REMARK  status: ('A' for Active; 'I' for Inactive)
REMARK    1  A    between atoms: N_6  and  C_14
REMARK    2  A    between atoms: N_7  and  C_18
REMARK    3  A    between atoms: C_14  and  C_16
REMARK    4  A    between atoms: C_14  and  C_17
REMARK    5  A    between atoms: C_18  and  C_19
REMARK    6  A    between atoms: C_18  and  C_20
REMARK                            x       y       z     vdW  Elec       q    Type
REMARK                         _______ _______ _______ _____ _____    ______ ____
ROOT
ATOM      1  O   UNL     1      -1.751  -2.095  24.992  0.00  0.00    -0.273 OA
ATOM      2  O   UNL     1      -3.268   2.255  24.876  0.00  0.00    -0.252 OA
ATOM      3  O   UNL     1       3.351   1.826  23.049  0.00  0.00    -0.253 OA
ATOM      4  N   UNL     1      -1.126   1.311  24.893  0.00  0.00    -0.271 N 
ATOM      5  N   UNL     1       1.274   0.907  23.522  0.00  0.00    -0.282 N 
ATOM      6  N   UNL     1      -2.880  -0.049  24.987  0.00  0.00    -0.222 N 
ATOM      7  N   UNL     1       3.209  -0.443  23.353  0.00  0.00    -0.297 N 
ATOM      8  C   UNL     1      -0.527  -0.001  24.947  0.00  0.00    +0.181 C 
ATOM      9  C   UNL     1       0.364  -0.240  23.734  0.00  0.00    +0.141 C 
ATOM     10  C   UNL     1      -0.266   2.461  24.695  0.00  0.00    +0.129 C 
ATOM     11  C   UNL     1       0.612   2.223  23.471  0.00  0.00    +0.128 C 
ATOM     12  C   UNL     1      -1.771  -0.872  24.976  0.00  0.00    +0.245 C 
ATOM     13  C   UNL     1      -2.520   1.287  24.922  0.00  0.00    +0.312 C 
ATOM     15  C   UNL     1       2.658   0.831  23.293  0.00  0.00    +0.303 C 
ATOM     21  H   UNL     1       2.626  -1.263  23.424  0.00  0.00    +0.150 HD
ENDROOT
BRANCH   6  14
ATOM     14  C   UNL     1      -4.245  -0.537  25.023  0.00  0.00    +0.080 C 
ATOM     16  C   UNL     1      -4.480  -1.538  23.900  0.00  0.00    +0.028 C 
ATOM     17  C   UNL     1      -5.229   0.624  24.944  0.00  0.00    +0.028 C 
ENDBRANCH   6  14
BRANCH   7  18
ATOM     18  C   UNL     1       4.618  -0.684  23.133  0.00  0.00    +0.068 C 
ATOM     19  C   UNL     1       5.057  -1.955  23.848  0.00  0.00    +0.027 C 
ATOM     20  C   UNL     1       5.442   0.516  23.586  0.00  0.00    +0.027 C 
ENDBRANCH   7  18
TORSDOF 2
ENDMDL
MODEL 3
REMARK VINA RESULT:      -1.8      1.727      2.678
REMARK  Name = 7161700
REMARK  6 active torsions:
REMARK  status: ('A' for Active; 'I' for Inactive)
REMARK    1  A    between atoms: N_6  and  C_14
REMARK    2  A    between atoms: N_7  and  C_18
REMARK    3  A    between atoms: C_14  and  C_16
REMARK    4  A    between atoms: C_14  and  C_17
REMARK    5  A    between atoms: C_18  and  C_19
REMARK    6  A    between atoms: C_18  and  C_20
REMARK                            x       y       z     vdW  Elec       q    Type
REMARK                         _______ _______ _______ _____ _____    ______ ____
ROOT
ATOM      1  O   UNL     1      -3.521  -0.694  24.526  0.00  0.00    -0.273 OA
ATOM      2  O   UNL     1      -3.679   3.680  25.967  0.00  0.00    -0.252 OA
ATOM      3  O   UNL     1       2.524   2.051  23.479  0.00  0.00    -0.253 OA
ATOM      4  N   UNL     1      -1.913   2.224  25.474  0.00  0.00    -0.271 N 
ATOM      5  N   UNL     1       0.266   1.649  23.825  0.00  0.00    -0.282 N 
ATOM      6  N   UNL     1      -3.993   1.463  25.290  0.00  0.00    -0.222 N 
ATOM      7  N   UNL     1       1.715  -0.051  23.045  0.00  0.00    -0.297 N 
ATOM      8  C   UNL     1      -1.731   0.859  25.044  0.00  0.00    +0.181 C 
ATOM      9  C   UNL     1      -0.945   0.802  23.740  0.00  0.00    +0.141 C 
ATOM     10  C   UNL     1      -0.750   3.083  25.578  0.00  0.00    +0.129 C 
ATOM     11  C   UNL     1       0.025   3.035  24.265  0.00  0.00    +0.128 C 
ATOM     12  C   UNL     1      -3.178   0.416  24.907  0.00  0.00    +0.245 C 
ATOM     13  C   UNL     1      -3.252   2.585  25.626  0.00  0.00    +0.312 C 
ATOM     15  C   UNL     1       1.567   1.269  23.453  0.00  0.00    +0.303 C 
ATOM     21  H   UNL     1       0.914  -0.648  22.903  0.00  0.00    +0.150 HD
ENDROOT
BRANCH   6  14
ATOM     14  C   UNL     1      -5.441   1.397  25.296  0.00  0.00    +0.080 C 
ATOM     16  C   UNL     1      -6.023   2.424  24.333  0.00  0.00    +0.028 C 
ATOM     17  C   UNL     1      -5.979   1.597  26.707  0.00  0.00    +0.028 C 
ENDBRANCH   6  14
BRANCH   7  18
ATOM     18  C   UNL     1       2.990  -0.589  22.627  0.00  0.00    +0.068 C 
ATOM     19  C   UNL     1       3.667  -1.310  23.785  0.00  0.00    +0.027 C 
ATOM     20  C   UNL     1       3.880   0.516  22.069  0.00  0.00    +0.027 C 
ENDBRANCH   7  18
TORSDOF 2
ENDMDL
MODEL 4
REMARK VINA RESULT:      -0.6      0.747      1.100
REMARK  Name = 7161700
REMARK  6 active torsions:
REMARK  status: ('A' for Active; 'I' for Inactive)
REMARK    1  A    between atoms: N_6  and  C_14
REMARK    2  A    between atoms: N_7  and  C_18
REMARK    3  A    between atoms: C_14  and  C_16
REMARK    4  A    between atoms: C_14  and  C_17
REMARK    5  A    between atoms: C_18  and  C_19
REMARK    6  A    between atoms: C_18  and  C_20
REMARK                            x       y       z     vdW  Elec       q    Type
REMARK                         _______ _______ _______ _____ _____    ______ ____
ROOT
ATOM      1  O   UNL     1      -1.022   4.496  25.340  0.00  0.00    -0.273 OA
ATOM      2  O   UNL     1      -4.505   1.505  24.938  0.00  0.00    -0.252 OA
ATOM      3  O   UNL     1       1.451  -1.240  22.859  0.00  0.00    -0.253 OA
ATOM      4  N   UNL     1      -2.345   1.571  24.037  0.00  0.00    -0.271 N 
ATOM      5  N   UNL     1       0.185   0.394  23.910  0.00  0.00    -0.282 N 
ATOM      6  N   UNL     1      -2.998   3.248  25.341  0.00  0.00    -0.222 N 
ATOM      7  N   UNL     1       2.466   0.746  23.392  0.00  0.00    -0.297 N 
ATOM      8  C   UNL     1      -1.192   2.439  24.066  0.00  0.00    +0.181 C 
ATOM      9  C   UNL     1       0.030   1.697  24.595  0.00  0.00    +0.141 C 
ATOM     10  C   UNL     1      -2.236   0.289  23.370  0.00  0.00    +0.129 C 
ATOM     11  C   UNL     1      -1.021  -0.455  23.912  0.00  0.00    +0.128 C 
ATOM     12  C   UNL     1      -1.693   3.534  24.992  0.00  0.00    +0.245 C 
ATOM     13  C   UNL     1      -3.419   2.050  24.787  0.00  0.00    +0.312 C 
ATOM     15  C   UNL     1       1.372  -0.110  23.352  0.00  0.00    +0.303 C 
ATOM     21  H   UNL     1       2.434   1.614  23.906  0.00  0.00    +0.150 HD
ENDROOT
BRANCH   6  14
ATOM     14  C   UNL     1      -3.801   4.085  26.210  0.00  0.00    +0.080 C 
ATOM     16  C   UNL     1      -5.201   4.257  25.635  0.00  0.00    +0.028 C 
ATOM     17  C   UNL     1      -3.125   5.432  26.430  0.00  0.00    +0.028 C 
ENDBRANCH   6  14
BRANCH   7  18
ATOM     18  C   UNL     1       3.758   0.369  22.862  0.00  0.00    +0.068 C 
ATOM     19  C   UNL     1       4.872   0.924  23.739  0.00  0.00    +0.027 C 
ATOM     20  C   UNL     1       3.903   0.841  21.420  0.00  0.00    +0.027 C 
ENDBRANCH   7  18
TORSDOF 2
ENDMDL
MODEL 5
REMARK VINA RESULT:      -0.6      1.309      6.650
REMARK  Name = 7161700
REMARK  6 active torsions:
REMARK  status: ('A' for Active; 'I' for Inactive)
REMARK    1  A    between atoms: N_6  and  C_14
REMARK    2  A    between atoms: N_7  and  C_18
REMARK    3  A    between atoms: C_14  and  C_16
REMARK    4  A    between atoms: C_14  and  C_17
REMARK    5  A    between atoms: C_18  and  C_19
REMARK    6  A    between atoms: C_18  and  C_20
REMARK                            x       y       z     vdW  Elec       q    Type
REMARK                         _______ _______ _______ _____ _____    ______ ____
ROOT
ATOM      1  O   UNL     1       0.950   2.898  23.637  0.00  0.00    -0.273 OA
ATOM      2  O   UNL     1       1.776  -1.636  23.622  0.00  0.00    -0.252 OA
ATOM      3  O   UNL     1      -4.727  -0.247  25.387  0.00  0.00    -0.253 OA
ATOM      4  N   UNL     1       0.068  -0.327  24.544  0.00  0.00    -0.271 N 
ATOM      5  N   UNL     1      -2.646   0.334  24.542  0.00  0.00    -0.282 N 
ATOM      6  N   UNL     1       1.715   0.697  23.459  0.00  0.00    -0.222 N 
ATOM      7  N   UNL     1      -4.243   1.979  25.122  0.00  0.00    -0.297 N 
ATOM      8  C   UNL     1      -0.290   1.068  24.636  0.00  0.00    +0.181 C 
ATOM      9  C   UNL     1      -1.665   1.316  24.028  0.00  0.00    +0.141 C 
ATOM     10  C   UNL     1      -0.863  -1.320  25.043  0.00  0.00    +0.129 C 
ATOM     11  C   UNL     1      -2.234  -1.077  24.420  0.00  0.00    +0.128 C 
ATOM     12  C   UNL     1       0.849   1.698  23.853  0.00  0.00    +0.245 C 
ATOM     13  C   UNL     1       1.258  -0.551  23.851  0.00  0.00    +0.312 C 
ATOM     15  C   UNL     1      -3.926   0.629  25.042  0.00  0.00    +0.303 C 
ATOM     21  H   UNL     1      -3.641   2.684  24.722  0.00  0.00    +0.150 HD
ENDROOT
BRANCH   6  14
ATOM     14  C   UNL     1       2.925   0.932  22.697  0.00  0.00    +0.080 C 
ATOM     16  C   UNL     1       2.923   0.092  21.426  0.00  0.00    +0.028 C 
ATOM     17  C   UNL     1       4.157   0.644  23.547  0.00  0.00    +0.028 C 
ENDBRANCH   6  14
BRANCH   7  18
ATOM     18  C   UNL     1      -5.524   2.441  25.610  0.00  0.00    +0.068 C 
ATOM     19  C   UNL     1      -6.653   1.862  24.767  0.00  0.00    +0.027 C 
ATOM     20  C   UNL     1      -5.573   3.964  25.626  0.00  0.00    +0.027 C 
ENDBRANCH   7  18
TORSDOF 2
ENDMDL
