MODEL 1
REMARK VINA RESULT:       2.0      0.000      0.000
REMARK  Name = 7144189
REMARK  6 active torsions:
REMARK  status: ('A' for Active; 'I' for Inactive)
REMARK    1  A    between atoms: S_1  and  C_23
REMARK    2  A    between atoms: S_1  and  C_29
REMARK    3  A    between atoms: O_7  and  C_28
REMARK    4  A    between atoms: O_7  and  C_30
REMARK    5  A    between atoms: C_17  and  C_22
REMARK    6  A    between atoms: C_19  and  C_23
REMARK                            x       y       z     vdW  Elec       q    Type
REMARK                         _______ _______ _______ _____ _____    ______ ____
ROOT
ATOM      5  O   UNL     1      -3.323   4.787  26.691  0.00  0.00    -0.268 OA
ATOM      6  O   UNL     1      -5.396   0.037  25.751  0.00  0.00    -0.275 OA
ATOM      8  N   UNL     1      -3.960   0.621  24.022  0.00  0.00    -0.300 N 
ATOM      9  N   UNL     1      -2.705   3.411  24.899  0.00  0.00    -0.311 N 
ATOM     10  C   UNL     1      -4.343   2.862  23.004  0.00  0.00    +0.027 C 
ATOM     11  C   UNL     1      -2.084   1.895  22.993  0.00  0.00    +0.054 C 
ATOM     12  C   UNL     1      -3.088   2.694  22.163  0.00  0.00    +0.018 C 
ATOM     13  C   UNL     1      -4.940   1.495  23.376  0.00  0.00    +0.113 C 
ATOM     14  C   UNL     1      -3.991   3.687  24.242  0.00  0.00    +0.130 C 
ATOM     15  C   UNL     1      -2.675   0.507  23.318  0.00  0.00    +0.117 C 
ATOM     16  C   UNL     1      -1.710   2.626  24.284  0.00  0.00    +0.034 A 
ATOM     17  C   UNL     1      -0.482   2.522  24.857  0.00  0.00    +0.002 A 
ATOM     18  C   UNL     1      -2.495   4.079  26.119  0.00  0.00    +0.252 A 
ATOM     19  C   UNL     1      -4.309  -0.076  25.177  0.00  0.00    +0.225 C 
ATOM     20  C   UNL     1      -0.229   3.193  26.117  0.00  0.00    +0.015 A 
ATOM     21  C   UNL     1      -1.160   3.918  26.739  0.00  0.00    +0.071 A 
ENDROOT
BRANCH  17  22
ATOM     22  C   UNL     1       0.601   1.725  24.240  0.00  0.00    -0.016 A 
ATOM     24  C   UNL     1       1.711   2.368  23.700  0.00  0.00    +0.012 A 
ATOM     25  C   UNL     1       0.502   0.337  24.203  0.00  0.00    +0.012 A 
ATOM     26  C   UNL     1       2.731   1.617  23.119  0.00  0.00    +0.046 A 
ATOM     27  C   UNL     1       1.523  -0.414  23.621  0.00  0.00    +0.046 A 
ATOM     28  C   UNL     1       2.638   0.225  23.079  0.00  0.00    +0.130 A 
BRANCH  28   7
ATOM      7  O   UNL     1       3.634  -0.508  22.511  0.00  0.00    -0.406 OA
BRANCH   7  30
ATOM      2  F   UNL     1       4.996  -1.801  23.815  0.00  0.00    -0.133 F 
ATOM      3  F   UNL     1       4.924   0.357  24.150  0.00  0.00    -0.133 F 
ATOM      4  F   UNL     1       5.915  -0.413  22.361  0.00  0.00    -0.133 F 
ATOM     30  C   UNL     1       4.875  -0.606  23.201  0.00  0.00    +0.575 C 
ENDBRANCH   7  30
ENDBRANCH  28   7
ENDBRANCH  17  22
BRANCH  19  23
ATOM     23  C   UNL     1      -3.271  -1.012  25.742  0.00  0.00    +0.164 C 
BRANCH  23   1
ATOM      1  S   UNL     1      -3.401  -2.572  24.855  0.00  0.00    -0.155 S 
ATOM     29  C   UNL     1      -1.682  -2.731  24.315  0.00  0.00    +0.085 C 
ENDBRANCH  23   1
ENDBRANCH  19  23
TORSDOF 5
ENDMDL
