MODEL 1
REMARK VINA RESULT:      -6.5      0.000      0.000
REMARK  Name = 26744252
REMARK  5 active torsions:
REMARK  status: ('A' for Active; 'I' for Inactive)
REMARK    1  A    between atoms: O_3  and  C_12
REMARK    2  A    between atoms: N_4  and  C_16
REMARK    3  A    between atoms: C_7  and  C_14
REMARK    4  A    between atoms: C_8  and  C_15
REMARK    5  A    between atoms: C_16  and  C_17
REMARK                            x       y       z     vdW  Elec       q    Type
REMARK                         _______ _______ _______ _____ _____    ______ ____
ROOT
ATOM      4  N   UNL     1      -0.416   0.350  24.536  0.00  0.00    -0.285 NA
ATOM      8  C   UNL     1      -0.161   1.635  25.220  0.00  0.00    +0.149 C 
ATOM     11  C   UNL     1       0.976   2.291  24.416  0.00  0.00    +0.061 C 
ATOM     12  C   UNL     1       1.324   1.282  23.329  0.00  0.00    +0.130 C 
ATOM     13  C   UNL     1       0.844  -0.038  23.903  0.00  0.00    +0.116 C 
ENDROOT
BRANCH   8  15
ATOM      2  O   UNL     1      -1.201   3.808  25.635  0.00  0.00    -0.336 OA
ATOM      5  N   UNL     1      -2.651   2.185  25.104  0.00  0.00    -0.194 NA
ATOM      6  N   UNL     1      -2.470   4.400  25.647  0.00  0.00    -0.061 NA
ATOM     14  C   UNL     1      -3.272   3.381  25.325  0.00  0.00    +0.175 A 
ATOM     15  C   UNL     1      -1.398   2.505  25.305  0.00  0.00    +0.245 A 
BRANCH  14   7
ATOM      7  C   UNL     1      -4.789   3.546  25.213  0.00  0.00    +0.060 C 
ATOM      9  C   UNL     1      -5.672   2.740  26.120  0.00  0.00    +0.012 C 
ATOM     10  C   UNL     1      -5.599   2.412  24.657  0.00  0.00    +0.012 C 
ENDBRANCH  14   7
ENDBRANCH   8  15
BRANCH  12   3
ATOM      3  O   UNL     1       2.716   1.272  23.082  0.00  0.00    -0.390 OA
ATOM     23  H   UNL     1       3.008   0.344  23.100  0.00  0.00    +0.210 HD
ENDBRANCH  12   3
BRANCH   4  16
ATOM     16  C   UNL     1      -0.923  -0.685  25.426  0.00  0.00    +0.120 C 
BRANCH  16  17
ATOM      1  F   UNL     1      -5.539  -3.162  23.352  0.00  0.00    -0.205 F 
ATOM     17  C   UNL     1      -2.156  -1.347  24.873  0.00  0.00    -0.033 A 
ATOM     18  C   UNL     1      -3.288  -0.584  24.586  0.00  0.00    +0.008 A 
ATOM     19  C   UNL     1      -2.167  -2.723  24.645  0.00  0.00    +0.008 A 
ATOM     20  C   UNL     1      -4.431  -1.197  24.073  0.00  0.00    +0.038 A 
ATOM     21  C   UNL     1      -3.311  -3.336  24.131  0.00  0.00    +0.038 A 
ATOM     22  C   UNL     1      -4.442  -2.572  23.846  0.00  0.00    +0.123 A 
ENDBRANCH  16  17
ENDBRANCH   4  16
TORSDOF 5
ENDMDL
MODEL 2
REMARK VINA RESULT:      -6.4      1.997      4.962
REMARK  Name = 26744252
REMARK  5 active torsions:
REMARK  status: ('A' for Active; 'I' for Inactive)
REMARK    1  A    between atoms: O_3  and  C_12
REMARK    2  A    between atoms: N_4  and  C_16
REMARK    3  A    between atoms: C_7  and  C_14
REMARK    4  A    between atoms: C_8  and  C_15
REMARK    5  A    between atoms: C_16  and  C_17
REMARK                            x       y       z     vdW  Elec       q    Type
REMARK                         _______ _______ _______ _____ _____    ______ ____
ROOT
ATOM      4  N   UNL     1      -4.803   1.689  25.228  0.00  0.00    -0.285 NA
ATOM      8  C   UNL     1      -4.050   2.538  24.282  0.00  0.00    +0.149 C 
ATOM     11  C   UNL     1      -4.414   3.982  24.673  0.00  0.00    +0.061 C 
ATOM     12  C   UNL     1      -5.411   3.842  25.817  0.00  0.00    +0.130 C 
ATOM     13  C   UNL     1      -5.987   2.452  25.617  0.00  0.00    +0.116 C 
ENDROOT
BRANCH   8  15
ATOM      2  O   UNL     1      -1.862   2.905  25.309  0.00  0.00    -0.336 OA
ATOM      5  N   UNL     1      -1.826   1.525  23.545  0.00  0.00    -0.194 NA
ATOM      6  N   UNL     1      -0.527   2.513  25.148  0.00  0.00    -0.061 NA
ATOM     14  C   UNL     1      -0.586   1.701  24.089  0.00  0.00    +0.175 A 
ATOM     15  C   UNL     1      -2.559   2.278  24.326  0.00  0.00    +0.245 A 
BRANCH  14   7
ATOM      7  C   UNL     1       0.659   1.013  23.523  0.00  0.00    +0.060 C 
ATOM      9  C   UNL     1       0.483  -0.051  22.480  0.00  0.00    +0.012 C 
ATOM     10  C   UNL     1       0.909  -0.425  23.870  0.00  0.00    +0.012 C 
ENDBRANCH  14   7
ENDBRANCH   8  15
BRANCH  12   3
ATOM      3  O   UNL     1      -6.409   4.840  25.737  0.00  0.00    -0.390 OA
ATOM     23  H   UNL     1      -6.600   5.135  26.645  0.00  0.00    +0.210 HD
ENDBRANCH  12   3
BRANCH   4  16
ATOM     16  C   UNL     1      -5.148   0.384  24.680  0.00  0.00    +0.120 C 
BRANCH  16  17
ATOM      1  F   UNL     1      -0.910  -3.295  25.187  0.00  0.00    -0.205 F 
ATOM     17  C   UNL     1      -4.016  -0.599  24.816  0.00  0.00    -0.033 A 
ATOM     18  C   UNL     1      -3.926  -1.684  23.944  0.00  0.00    +0.008 A 
ATOM     19  C   UNL     1      -3.057  -0.425  25.813  0.00  0.00    +0.008 A 
ATOM     20  C   UNL     1      -2.877  -2.595  24.069  0.00  0.00    +0.038 A 
ATOM     21  C   UNL     1      -2.008  -1.336  25.939  0.00  0.00    +0.038 A 
ATOM     22  C   UNL     1      -1.919  -2.421  25.067  0.00  0.00    +0.123 A 
ENDBRANCH  16  17
ENDBRANCH   4  16
TORSDOF 5
ENDMDL
MODEL 3
REMARK VINA RESULT:      -6.1      1.679      4.758
REMARK  Name = 26744252
REMARK  5 active torsions:
REMARK  status: ('A' for Active; 'I' for Inactive)
REMARK    1  A    between atoms: O_3  and  C_12
REMARK    2  A    between atoms: N_4  and  C_16
REMARK    3  A    between atoms: C_7  and  C_14
REMARK    4  A    between atoms: C_8  and  C_15
REMARK    5  A    between atoms: C_16  and  C_17
REMARK                            x       y       z     vdW  Elec       q    Type
REMARK                         _______ _______ _______ _____ _____    ______ ____
ROOT
ATOM      4  N   UNL     1      -3.385   2.347  25.107  0.00  0.00    -0.285 NA
ATOM      8  C   UNL     1      -2.364   3.096  24.345  0.00  0.00    +0.149 C 
ATOM     11  C   UNL     1      -2.114   4.372  25.169  0.00  0.00    +0.061 C 
ATOM     12  C   UNL     1      -3.072   4.273  26.351  0.00  0.00    +0.130 C 
ATOM     13  C   UNL     1      -4.159   3.342  25.847  0.00  0.00    +0.116 C 
ENDROOT
BRANCH   8  15
ATOM      2  O   UNL     1       0.053   2.822  24.594  0.00  0.00    -0.336 OA
ATOM      5  N   UNL     1      -0.953   1.138  23.513  0.00  0.00    -0.194 NA
ATOM      6  N   UNL     1       1.064   1.910  24.268  0.00  0.00    -0.061 NA
ATOM     14  C   UNL     1       0.393   0.944  23.632  0.00  0.00    +0.175 A 
ATOM     15  C   UNL     1      -1.102   2.290  24.115  0.00  0.00    +0.245 A 
BRANCH  14   7
ATOM      7  C   UNL     1       1.092  -0.297  23.074  0.00  0.00    +0.060 C 
ATOM      9  C   UNL     1       2.532  -0.192  22.667  0.00  0.00    +0.012 C 
ATOM     10  C   UNL     1       1.465  -0.323  21.621  0.00  0.00    +0.012 C 
ENDBRANCH  14   7
ENDBRANCH   8  15
BRANCH  12   3
ATOM      3  O   UNL     1      -3.586   5.547  26.687  0.00  0.00    -0.390 OA
ATOM     23  H   UNL     1      -4.533   5.546  26.468  0.00  0.00    +0.210 HD
ENDBRANCH  12   3
BRANCH   4  16
ATOM     16  C   UNL     1      -4.230   1.510  24.266  0.00  0.00    +0.120 C 
BRANCH  16  17
ATOM      1  F   UNL     1      -3.384  -3.975  25.237  0.00  0.00    -0.205 F 
ATOM     17  C   UNL     1      -4.005   0.045  24.526  0.00  0.00    -0.033 A 
ATOM     18  C   UNL     1      -4.385  -0.899  23.572  0.00  0.00    +0.008 A 
ATOM     19  C   UNL     1      -3.415  -0.369  25.720  0.00  0.00    +0.008 A 
ATOM     20  C   UNL     1      -4.175  -2.257  23.812  0.00  0.00    +0.038 A 
ATOM     21  C   UNL     1      -3.205  -1.728  25.960  0.00  0.00    +0.038 A 
ATOM     22  C   UNL     1      -3.586  -2.671  25.006  0.00  0.00    +0.123 A 
ENDBRANCH  16  17
ENDBRANCH   4  16
TORSDOF 5
ENDMDL
MODEL 4
REMARK VINA RESULT:      -5.7      3.039      6.136
REMARK  Name = 26744252
REMARK  5 active torsions:
REMARK  status: ('A' for Active; 'I' for Inactive)
REMARK    1  A    between atoms: O_3  and  C_12
REMARK    2  A    between atoms: N_4  and  C_16
REMARK    3  A    between atoms: C_7  and  C_14
REMARK    4  A    between atoms: C_8  and  C_15
REMARK    5  A    between atoms: C_16  and  C_17
REMARK                            x       y       z     vdW  Elec       q    Type
REMARK                         _______ _______ _______ _____ _____    ______ ____
ROOT
ATOM      4  N   UNL     1      -2.654   0.032  23.436  0.00  0.00    -0.285 NA
ATOM      8  C   UNL     1      -1.691   0.174  24.548  0.00  0.00    +0.149 C 
ATOM     11  C   UNL     1      -1.791  -1.149  25.328  0.00  0.00    +0.061 C 
ATOM     12  C   UNL     1      -2.867  -1.952  24.607  0.00  0.00    +0.130 C 
ATOM     13  C   UNL     1      -3.689  -0.889  23.901  0.00  0.00    +0.116 C 
ENDROOT
BRANCH   8  15
ATOM      2  O   UNL     1       0.246   1.662  24.435  0.00  0.00    -0.336 OA
ATOM      5  N   UNL     1       0.512  -0.272  23.336  0.00  0.00    -0.194 NA
ATOM      6  N   UNL     1       1.532   1.701  23.883  0.00  0.00    -0.061 NA
ATOM     14  C   UNL     1       1.615   0.527  23.250  0.00  0.00    +0.175 A 
ATOM     15  C   UNL     1      -0.285   0.467  24.067  0.00  0.00    +0.245 A 
BRANCH  14   7
ATOM      7  C   UNL     1       2.869   0.108  22.478  0.00  0.00    +0.060 C 
ATOM      9  C   UNL     1       4.020  -0.482  23.238  0.00  0.00    +0.012 C 
ATOM     10  C   UNL     1       4.129   0.900  22.664  0.00  0.00    +0.012 C 
ENDBRANCH  14   7
ENDBRANCH   8  15
BRANCH  12   3
ATOM      3  O   UNL     1      -3.644  -2.691  25.529  0.00  0.00    -0.390 OA
ATOM     23  H   UNL     1      -3.459  -2.336  26.415  0.00  0.00    +0.210 HD
ENDBRANCH  12   3
BRANCH   4  16
ATOM     16  C   UNL     1      -3.211   1.303  22.992  0.00  0.00    +0.120 C 
BRANCH  16  17
ATOM      1  F   UNL     1      -3.515   5.045  27.193  0.00  0.00    -0.205 F 
ATOM     17  C   UNL     1      -3.292   2.303  24.113  0.00  0.00    -0.033 A 
ATOM     18  C   UNL     1      -4.409   2.324  24.950  0.00  0.00    +0.008 A 
ATOM     19  C   UNL     1      -2.251   3.208  24.318  0.00  0.00    +0.008 A 
ATOM     20  C   UNL     1      -4.484   3.250  25.990  0.00  0.00    +0.038 A 
ATOM     21  C   UNL     1      -2.327   4.135  25.359  0.00  0.00    +0.038 A 
ATOM     22  C   UNL     1      -3.444   4.155  26.194  0.00  0.00    +0.123 A 
ENDBRANCH  16  17
ENDBRANCH   4  16
TORSDOF 5
ENDMDL
MODEL 5
REMARK VINA RESULT:      -5.3      3.158      4.918
REMARK  Name = 26744252
REMARK  5 active torsions:
REMARK  status: ('A' for Active; 'I' for Inactive)
REMARK    1  A    between atoms: O_3  and  C_12
REMARK    2  A    between atoms: N_4  and  C_16
REMARK    3  A    between atoms: C_7  and  C_14
REMARK    4  A    between atoms: C_8  and  C_15
REMARK    5  A    between atoms: C_16  and  C_17
REMARK                            x       y       z     vdW  Elec       q    Type
REMARK                         _______ _______ _______ _____ _____    ______ ____
ROOT
ATOM      4  N   UNL     1      -1.979  -1.035  24.750  0.00  0.00    -0.285 NA
ATOM      8  C   UNL     1      -2.993  -0.644  23.748  0.00  0.00    +0.149 C 
ATOM     11  C   UNL     1      -4.006  -1.803  23.738  0.00  0.00    +0.061 C 
ATOM     12  C   UNL     1      -3.455  -2.818  24.733  0.00  0.00    +0.130 C 
ATOM     13  C   UNL     1      -1.972  -2.496  24.781  0.00  0.00    +0.116 C 
ENDROOT
BRANCH   8  15
ATOM      2  O   UNL     1      -3.522   1.655  23.106  0.00  0.00    -0.336 OA
ATOM      5  N   UNL     1      -4.291   1.068  25.127  0.00  0.00    -0.194 NA
ATOM      6  N   UNL     1      -4.184   2.780  23.613  0.00  0.00    -0.061 NA
ATOM     14  C   UNL     1      -4.609   2.357  24.807  0.00  0.00    +0.175 A 
ATOM     15  C   UNL     1      -3.633   0.693  24.059  0.00  0.00    +0.245 A 
BRANCH  14   7
ATOM      7  C   UNL     1      -5.402   3.261  25.754  0.00  0.00    +0.060 C 
ATOM      9  C   UNL     1      -5.647   4.686  25.354  0.00  0.00    +0.012 C 
ATOM     10  C   UNL     1      -4.684   4.372  26.461  0.00  0.00    +0.012 C 
ENDBRANCH  14   7
ENDBRANCH   8  15
BRANCH  12   3
ATOM      3  O   UNL     1      -3.691  -4.138  24.285  0.00  0.00    -0.390 OA
ATOM     23  H   UNL     1      -4.258  -4.081  23.496  0.00  0.00    +0.210 HD
ENDBRANCH  12   3
BRANCH   4  16
ATOM     16  C   UNL     1      -0.658  -0.486  24.477  0.00  0.00    +0.120 C 
BRANCH  16  17
ATOM      1  F   UNL     1      -0.519   5.102  25.182  0.00  0.00    -0.205 F 
ATOM     17  C   UNL     1      -0.620   1.007  24.665  0.00  0.00    -0.033 A 
ATOM     18  C   UNL     1      -0.277   1.836  23.598  0.00  0.00    +0.008 A 
ATOM     19  C   UNL     1      -0.930   1.561  25.907  0.00  0.00    +0.008 A 
ATOM     20  C   UNL     1      -0.242   3.220  23.772  0.00  0.00    +0.038 A 
ATOM     21  C   UNL     1      -0.895   2.945  26.082  0.00  0.00    +0.038 A 
ATOM     22  C   UNL     1      -0.551   3.774  25.014  0.00  0.00    +0.123 A 
ENDBRANCH  16  17
ENDBRANCH   4  16
TORSDOF 5
ENDMDL
MODEL 6
REMARK VINA RESULT:      -5.0      3.005      5.050
REMARK  Name = 26744252
REMARK  5 active torsions:
REMARK  status: ('A' for Active; 'I' for Inactive)
REMARK    1  A    between atoms: O_3  and  C_12
REMARK    2  A    between atoms: N_4  and  C_16
REMARK    3  A    between atoms: C_7  and  C_14
REMARK    4  A    between atoms: C_8  and  C_15
REMARK    5  A    between atoms: C_16  and  C_17
REMARK                            x       y       z     vdW  Elec       q    Type
REMARK                         _______ _______ _______ _____ _____    ______ ____
ROOT
ATOM      4  N   UNL     1      -3.546  -0.601  24.530  0.00  0.00    -0.285 NA
ATOM      8  C   UNL     1      -2.310  -0.667  25.337  0.00  0.00    +0.149 C 
ATOM     11  C   UNL     1      -1.655  -2.005  24.948  0.00  0.00    +0.061 C 
ATOM     12  C   UNL     1      -2.618  -2.641  23.953  0.00  0.00    +0.130 C 
ATOM     13  C   UNL     1      -3.948  -1.984  24.277  0.00  0.00    +0.116 C 
ENDROOT
BRANCH   8  15
ATOM      2  O   UNL     1      -0.272   0.288  24.382  0.00  0.00    -0.336 OA
ATOM      5  N   UNL     1      -1.536   1.760  25.502  0.00  0.00    -0.194 NA
ATOM      6  N   UNL     1       0.396   1.516  24.300  0.00  0.00    -0.061 NA
ATOM     14  C   UNL     1      -0.410   2.334  24.984  0.00  0.00    +0.175 A 
ATOM     15  C   UNL     1      -1.399   0.521  25.104  0.00  0.00    +0.245 A 
BRANCH  14   7
ATOM      7  C   UNL     1      -0.089   3.819  25.173  0.00  0.00    +0.060 C 
ATOM      9  C   UNL     1      -1.223   4.785  25.348  0.00  0.00    +0.012 C 
ATOM     10  C   UNL     1      -0.435   4.777  24.072  0.00  0.00    +0.012 C 
ENDBRANCH  14   7
ENDBRANCH   8  15
BRANCH  12   3
ATOM      3  O   UNL     1      -2.669  -4.043  24.129  0.00  0.00    -0.390 OA
ATOM     23  H   UNL     1      -2.441  -4.452  23.277  0.00  0.00    +0.210 HD
ENDBRANCH  12   3
BRANCH   4  16
ATOM     16  C   UNL     1      -4.607   0.170  25.165  0.00  0.00    +0.120 C 
BRANCH  16  17
ATOM      1  F   UNL     1      -4.366   5.622  23.765  0.00  0.00    -0.205 F 
ATOM     17  C   UNL     1      -4.543   1.626  24.790  0.00  0.00    -0.033 A 
ATOM     18  C   UNL     1      -5.055   2.592  25.657  0.00  0.00    +0.008 A 
ATOM     19  C   UNL     1      -3.970   2.011  23.578  0.00  0.00    +0.008 A 
ATOM     20  C   UNL     1      -4.996   3.942  25.311  0.00  0.00    +0.038 A 
ATOM     21  C   UNL     1      -3.911   3.361  23.232  0.00  0.00    +0.038 A 
ATOM     22  C   UNL     1      -4.424   4.326  24.098  0.00  0.00    +0.123 A 
ENDBRANCH  16  17
ENDBRANCH   4  16
TORSDOF 5
ENDMDL
MODEL 7
REMARK VINA RESULT:      -4.9      3.317      6.699
REMARK  Name = 26744252
REMARK  5 active torsions:
REMARK  status: ('A' for Active; 'I' for Inactive)
REMARK    1  A    between atoms: O_3  and  C_12
REMARK    2  A    between atoms: N_4  and  C_16
REMARK    3  A    between atoms: C_7  and  C_14
REMARK    4  A    between atoms: C_8  and  C_15
REMARK    5  A    between atoms: C_16  and  C_17
REMARK                            x       y       z     vdW  Elec       q    Type
REMARK                         _______ _______ _______ _____ _____    ______ ____
ROOT
ATOM      4  N   UNL     1      -1.463   0.096  24.976  0.00  0.00    -0.285 NA
ATOM      8  C   UNL     1      -0.560  -1.028  24.653  0.00  0.00    +0.149 C 
ATOM     11  C   UNL     1      -1.491  -2.157  24.175  0.00  0.00    +0.061 C 
ATOM     12  C   UNL     1      -2.899  -1.590  24.306  0.00  0.00    +0.130 C 
ATOM     13  C   UNL     1      -2.745  -0.498  25.349  0.00  0.00    +0.116 C 
ENDROOT
BRANCH   8  15
ATOM      2  O   UNL     1       0.066  -0.558  22.337  0.00  0.00    -0.336 OA
ATOM      5  N   UNL     1       1.763  -0.413  23.791  0.00  0.00    -0.194 NA
ATOM      6  N   UNL     1       1.194  -0.208  21.585  0.00  0.00    -0.061 NA
ATOM     14  C   UNL     1       2.154  -0.141  22.512  0.00  0.00    +0.175 A 
ATOM     15  C   UNL     1       0.488  -0.657  23.624  0.00  0.00    +0.245 A 
BRANCH  14   7
ATOM      7  C   UNL     1       3.600   0.216  22.158  0.00  0.00    +0.060 C 
ATOM      9  C   UNL     1       4.656   0.079  23.215  0.00  0.00    +0.012 C 
ATOM     10  C   UNL     1       4.211   1.441  22.771  0.00  0.00    +0.012 C 
ENDBRANCH  14   7
ENDBRANCH   8  15
BRANCH  12   3
ATOM      3  O   UNL     1      -3.806  -2.591  24.725  0.00  0.00    -0.390 OA
ATOM     23  H   UNL     1      -4.491  -2.669  24.039  0.00  0.00    +0.210 HD
ENDBRANCH  12   3
BRANCH   4  16
ATOM     16  C   UNL     1      -0.941   0.973  26.016  0.00  0.00    +0.120 C 
BRANCH  16  17
ATOM      1  F   UNL     1      -1.710   6.413  24.766  0.00  0.00    -0.205 F 
ATOM     17  C   UNL     1      -1.147   2.426  25.681  0.00  0.00    -0.033 A 
ATOM     18  C   UNL     1      -2.310   3.078  26.091  0.00  0.00    +0.008 A 
ATOM     19  C   UNL     1      -0.174   3.121  24.963  0.00  0.00    +0.008 A 
ATOM     20  C   UNL     1      -2.500   4.425  25.782  0.00  0.00    +0.038 A 
ATOM     21  C   UNL     1      -0.364   4.468  24.653  0.00  0.00    +0.038 A 
ATOM     22  C   UNL     1      -1.528   5.119  25.063  0.00  0.00    +0.123 A 
ENDBRANCH  16  17
ENDBRANCH   4  16
TORSDOF 5
ENDMDL
MODEL 8
REMARK VINA RESULT:      -4.5      2.367      5.598
REMARK  Name = 26744252
REMARK  5 active torsions:
REMARK  status: ('A' for Active; 'I' for Inactive)
REMARK    1  A    between atoms: O_3  and  C_12
REMARK    2  A    between atoms: N_4  and  C_16
REMARK    3  A    between atoms: C_7  and  C_14
REMARK    4  A    between atoms: C_8  and  C_15
REMARK    5  A    between atoms: C_16  and  C_17
REMARK                            x       y       z     vdW  Elec       q    Type
REMARK                         _______ _______ _______ _____ _____    ______ ____
ROOT
ATOM      4  N   UNL     1      -0.558   1.776  25.371  0.00  0.00    -0.285 NA
ATOM      8  C   UNL     1      -0.259   1.990  23.940  0.00  0.00    +0.149 C 
ATOM     11  C   UNL     1      -0.085   3.513  23.796  0.00  0.00    +0.061 C 
ATOM     12  C   UNL     1      -0.349   4.074  25.188  0.00  0.00    +0.130 C 
ATOM     13  C   UNL     1      -1.198   3.002  25.847  0.00  0.00    +0.116 C 
ENDROOT
BRANCH   8  15
ATOM      2  O   UNL     1       0.723   0.000  22.914  0.00  0.00    -0.336 OA
ATOM      5  N   UNL     1       2.222   1.544  23.538  0.00  0.00    -0.194 NA
ATOM      6  N   UNL     1       1.979  -0.515  22.570  0.00  0.00    -0.061 NA
ATOM     14  C   UNL     1       2.811   0.451  22.969  0.00  0.00    +0.175 A 
ATOM     15  C   UNL     1       0.957   1.214  23.477  0.00  0.00    +0.245 A 
BRANCH  14   7
ATOM      7  C   UNL     1       4.328   0.338  22.798  0.00  0.00    +0.060 C 
ATOM      9  C   UNL     1       5.054  -0.763  23.513  0.00  0.00    +0.012 C 
ATOM     10  C   UNL     1       5.211   0.657  23.968  0.00  0.00    +0.012 C 
ENDBRANCH  14   7
ENDBRANCH   8  15
BRANCH  12   3
ATOM      3  O   UNL     1      -1.032   5.309  25.109  0.00  0.00    -0.390 OA
ATOM     23  H   UNL     1      -0.369   6.015  25.201  0.00  0.00    +0.210 HD
ENDBRANCH  12   3
BRANCH   4  16
ATOM     16  C   UNL     1      -1.378   0.598  25.618  0.00  0.00    +0.120 C 
BRANCH  16  17
ATOM      1  F   UNL     1      -6.817   1.552  24.497  0.00  0.00    -0.205 F 
ATOM     17  C   UNL     1      -2.831   0.853  25.320  0.00  0.00    -0.033 A 
ATOM     18  C   UNL     1      -3.343   2.148  25.400  0.00  0.00    +0.008 A 
ATOM     19  C   UNL     1      -3.666  -0.205  24.961  0.00  0.00    +0.008 A 
ATOM     20  C   UNL     1      -4.690   2.385  25.123  0.00  0.00    +0.038 A 
ATOM     21  C   UNL     1      -5.013   0.031  24.683  0.00  0.00    +0.038 A 
ATOM     22  C   UNL     1      -5.524   1.326  24.765  0.00  0.00    +0.123 A 
ENDBRANCH  16  17
ENDBRANCH   4  16
TORSDOF 5
ENDMDL
MODEL 9
REMARK VINA RESULT:      -4.4      2.012      2.445
REMARK  Name = 26744252
REMARK  5 active torsions:
REMARK  status: ('A' for Active; 'I' for Inactive)
REMARK    1  A    between atoms: O_3  and  C_12
REMARK    2  A    between atoms: N_4  and  C_16
REMARK    3  A    between atoms: C_7  and  C_14
REMARK    4  A    between atoms: C_8  and  C_15
REMARK    5  A    between atoms: C_16  and  C_17
REMARK                            x       y       z     vdW  Elec       q    Type
REMARK                         _______ _______ _______ _____ _____    ______ ____
ROOT
ATOM      4  N   UNL     1      -0.138   0.117  23.621  0.00  0.00    -0.285 NA
ATOM      8  C   UNL     1       0.578   1.089  24.473  0.00  0.00    +0.149 C 
ATOM     11  C   UNL     1       1.917   1.333  23.753  0.00  0.00    +0.061 C 
ATOM     12  C   UNL     1       1.881   0.421  22.533  0.00  0.00    +0.130 C 
ATOM     13  C   UNL     1       0.888  -0.658  22.926  0.00  0.00    +0.116 C 
ENDROOT
BRANCH   8  15
ATOM      2  O   UNL     1       0.175   3.447  23.968  0.00  0.00    -0.336 OA
ATOM      5  N   UNL     1      -1.226   2.583  25.488  0.00  0.00    -0.194 NA
ATOM      6  N   UNL     1      -0.689   4.486  24.335  0.00  0.00    -0.061 NA
ATOM     14  C   UNL     1      -1.486   3.899  25.234  0.00  0.00    +0.175 A 
ATOM     15  C   UNL     1      -0.210   2.364  24.692  0.00  0.00    +0.245 A 
BRANCH  14   7
ATOM      7  C   UNL     1      -2.617   4.657  25.933  0.00  0.00    +0.060 C 
ATOM      9  C   UNL     1      -3.599   3.884  26.761  0.00  0.00    +0.012 C 
ATOM     10  C   UNL     1      -4.023   4.466  25.445  0.00  0.00    +0.012 C 
ENDBRANCH  14   7
ENDBRANCH   8  15
BRANCH  12   3
ATOM      3  O   UNL     1       3.162  -0.116  22.270  0.00  0.00    -0.390 OA
ATOM     23  H   UNL     1       3.438  -0.612  23.059  0.00  0.00    +0.210 HD
ENDBRANCH  12   3
BRANCH   4  16
ATOM     16  C   UNL     1      -1.055  -0.734  24.367  0.00  0.00    +0.120 C 
BRANCH  16  17
ATOM      1  F   UNL     1      -6.182   1.565  24.789  0.00  0.00    -0.205 F 
ATOM     17  C   UNL     1      -2.425  -0.121  24.479  0.00  0.00    -0.033 A 
ATOM     18  C   UNL     1      -3.276  -0.498  25.518  0.00  0.00    +0.008 A 
ATOM     19  C   UNL     1      -2.844   0.827  23.545  0.00  0.00    +0.008 A 
ATOM     20  C   UNL     1      -4.545   0.071  25.623  0.00  0.00    +0.038 A 
ATOM     21  C   UNL     1      -4.114   1.396  23.649  0.00  0.00    +0.038 A 
ATOM     22  C   UNL     1      -4.963   1.018  24.688  0.00  0.00    +0.123 A 
ENDBRANCH  16  17
ENDBRANCH   4  16
TORSDOF 5
ENDMDL
MODEL 10
REMARK VINA RESULT:      -4.4     17.667     19.456
REMARK  Name = 26744252
REMARK  5 active torsions:
REMARK  status: ('A' for Active; 'I' for Inactive)
REMARK    1  A    between atoms: O_3  and  C_12
REMARK    2  A    between atoms: N_4  and  C_16
REMARK    3  A    between atoms: C_7  and  C_14
REMARK    4  A    between atoms: C_8  and  C_15
REMARK    5  A    between atoms: C_16  and  C_17
REMARK                            x       y       z     vdW  Elec       q    Type
REMARK                         _______ _______ _______ _____ _____    ______ ____
ROOT
ATOM      4  N   UNL     1      16.535  -4.289  30.019  0.00  0.00    -0.285 NA
ATOM      8  C   UNL     1      15.931  -4.172  31.362  0.00  0.00    +0.149 C 
ATOM     11  C   UNL     1      15.902  -2.660  31.651  0.00  0.00    +0.061 C 
ATOM     12  C   UNL     1      16.551  -2.013  30.433  0.00  0.00    +0.130 C 
ATOM     13  C   UNL     1      17.405  -3.126  29.854  0.00  0.00    +0.116 C 
ENDROOT
BRANCH   8  15
ATOM      2  O   UNL     1      13.640  -4.176  32.215  0.00  0.00    -0.336 OA
ATOM      5  N   UNL     1      14.119  -5.900  30.868  0.00  0.00    -0.194 NA
ATOM      6  N   UNL     1      12.470  -4.941  32.131  0.00  0.00    -0.061 NA
ATOM     14  C   UNL     1      12.831  -5.940  31.320  0.00  0.00    +0.175 A 
ATOM     15  C   UNL     1      14.560  -4.810  31.442  0.00  0.00    +0.245 A 
BRANCH  14   7
ATOM      7  C   UNL     1      11.861  -7.056  30.925  0.00  0.00    +0.060 C 
ATOM      9  C   UNL     1      10.977  -7.650  31.982  0.00  0.00    +0.012 C 
ATOM     10  C   UNL     1      12.120  -8.447  31.426  0.00  0.00    +0.012 C 
ENDBRANCH  14   7
ENDBRANCH   8  15
BRANCH  12   3
ATOM      3  O   UNL     1      17.332  -0.897  30.814  0.00  0.00    -0.390 OA
ATOM     23  H   UNL     1      16.992  -0.582  31.670  0.00  0.00    +0.210 HD
ENDBRANCH  12   3
BRANCH   4  16
ATOM     16  C   UNL     1      17.252  -5.542  29.819  0.00  0.00    +0.120 C 
BRANCH  16  17
ATOM      1  F   UNL     1      15.376  -8.340  25.302  0.00  0.00    -0.205 F 
ATOM     17  C   UNL     1      16.750  -6.289  28.612  0.00  0.00    -0.033 A 
ATOM     18  C   UNL     1      16.884  -5.731  27.341  0.00  0.00    +0.008 A 
ATOM     19  C   UNL     1      16.152  -7.539  28.765  0.00  0.00    +0.008 A 
ATOM     20  C   UNL     1      16.420  -6.424  26.222  0.00  0.00    +0.038 A 
ATOM     21  C   UNL     1      15.687  -8.233  27.646  0.00  0.00    +0.038 A 
ATOM     22  C   UNL     1      15.821  -7.674  26.376  0.00  0.00    +0.123 A 
ENDBRANCH  16  17
ENDBRANCH   4  16
TORSDOF 5
ENDMDL
