MODEL 1
REMARK VINA RESULT:      -3.0      0.000      0.000
REMARK  Name = 75536841
REMARK  7 active torsions:
REMARK  status: ('A' for Active; 'I' for Inactive)
REMARK    1  A    between atoms: O_2  and  C_10
REMARK    2  A    between atoms: N_4  and  C_8
REMARK    3  A    between atoms: N_4  and  C_9
REMARK    4  A    between atoms: N_5  and  C_18
REMARK    5  A    between atoms: N_6  and  C_17
REMARK    6  A    between atoms: N_7  and  C_20
REMARK    7  A    between atoms: C_11  and  C_17
REMARK                            x       y       z     vdW  Elec       q    Type
REMARK                         _______ _______ _______ _____ _____    ______ ____
ROOT
ATOM      1  O   UNL     1      -4.538   3.845  26.940  0.00  0.00    -0.371 OA
ATOM      8  C   UNL     1      -2.856   4.780  25.548  0.00  0.00    +0.111 C 
ATOM     10  C   UNL     1      -3.907   4.117  24.677  0.00  0.00    +0.164 C 
ATOM     11  C   UNL     1      -5.092   4.068  25.632  0.00  0.00    +0.165 C 
ATOM     14  C   UNL     1      -3.130   4.131  26.896  0.00  0.00    +0.181 C 
ENDROOT
BRANCH  10   2
ATOM      2  O   UNL     1      -4.200   4.863  23.511  0.00  0.00    -0.388 OA
ATOM     27  H   UNL     1      -4.332   5.793  23.768  0.00  0.00    +0.210 HD
ENDBRANCH  10   2
BRANCH   8   4
ATOM      4  N   UNL     1      -1.495   4.568  25.084  0.00  0.00    -0.306 NA
ATOM     26  H   UNL     1      -0.830   4.914  25.775  0.00  0.00    +0.123 HD
BRANCH   4   9
ATOM      5  N   UNL     1       0.386   1.061  23.592  0.00  0.00    -0.305 NA
ATOM      9  C   UNL     1      -1.250   3.152  24.823  0.00  0.00    +0.056 C 
ATOM     12  C   UNL     1       0.106   2.733  25.395  0.00  0.00    +0.034 C 
ATOM     13  C   UNL     1      -1.297   2.855  23.321  0.00  0.00    +0.034 C 
ATOM     15  C   UNL     1       0.424   1.277  25.044  0.00  0.00    +0.085 C 
ATOM     16  C   UNL     1      -0.933   1.395  23.038  0.00  0.00    +0.085 C 
ATOM     18  C   UNL     1       0.741  -0.321  23.271  0.00  0.00    +0.104 C 
ENDBRANCH   4   9
ENDBRANCH   8   4
BRANCH  11  17
ATOM     17  C   UNL     1      -6.085   2.969  25.301  0.00  0.00    +0.140 C 
BRANCH  17   6
ATOM      3  O   UNL     1      -4.176   1.373  23.882  0.00  0.00    -0.253 OA
ATOM      6  N   UNL     1      -5.587   1.681  25.689  0.00  0.00    -0.297 N 
ATOM      7  N   UNL     1      -4.349  -0.259  25.561  0.00  0.00    -0.269 N 
ATOM     19  C   UNL     1      -4.647   0.957  24.939  0.00  0.00    +0.304 C 
ATOM     28  H   UNL     1      -5.942   1.269  26.546  0.00  0.00    +0.150 HD
ATOM     29  H   UNL     1      -4.831  -0.451  26.437  0.00  0.00    +0.156 HD
BRANCH   7  20
ATOM     20  C   UNL     1      -3.456  -1.263  25.122  0.00  0.00    +0.035 A 
ATOM     21  C   UNL     1      -2.116  -1.219  25.506  0.00  0.00    +0.023 A 
ATOM     22  C   UNL     1      -3.915  -2.297  24.306  0.00  0.00    +0.023 A 
ATOM     23  C   UNL     1      -1.233  -2.210  25.074  0.00  0.00    +0.002 A 
ATOM     24  C   UNL     1      -3.032  -3.287  23.873  0.00  0.00    +0.002 A 
ATOM     25  C   UNL     1      -1.692  -3.243  24.257  0.00  0.00    +0.000 A 
ENDBRANCH   7  20
ENDBRANCH  17   6
ENDBRANCH  11  17
TORSDOF 6
ENDMDL
MODEL 2
REMARK VINA RESULT:      -2.7      1.685      4.636
REMARK  Name = 75536841
REMARK  7 active torsions:
REMARK  status: ('A' for Active; 'I' for Inactive)
REMARK    1  A    between atoms: O_2  and  C_10
REMARK    2  A    between atoms: N_4  and  C_8
REMARK    3  A    between atoms: N_4  and  C_9
REMARK    4  A    between atoms: N_5  and  C_18
REMARK    5  A    between atoms: N_6  and  C_17
REMARK    6  A    between atoms: N_7  and  C_20
REMARK    7  A    between atoms: C_11  and  C_17
REMARK                            x       y       z     vdW  Elec       q    Type
REMARK                         _______ _______ _______ _____ _____    ______ ____
ROOT
ATOM      1  O   UNL     1      -3.293   4.193  23.703  0.00  0.00    -0.371 OA
ATOM      8  C   UNL     1      -4.884   2.834  24.826  0.00  0.00    +0.111 C 
ATOM     10  C   UNL     1      -3.802   3.244  25.809  0.00  0.00    +0.164 C 
ATOM     11  C   UNL     1      -3.222   4.468  25.113  0.00  0.00    +0.165 C 
ATOM     14  C   UNL     1      -4.196   3.094  23.496  0.00  0.00    +0.181 C 
ENDROOT
BRANCH  10   2
ATOM      2  O   UNL     1      -4.317   3.559  27.087  0.00  0.00    -0.388 OA
ATOM     27  H   UNL     1      -4.755   2.768  27.446  0.00  0.00    +0.210 HD
ENDBRANCH  10   2
BRANCH   8   4
ATOM      4  N   UNL     1      -5.319   1.455  24.979  0.00  0.00    -0.306 NA
ATOM     26  H   UNL     1      -6.199   1.308  24.486  0.00  0.00    +0.123 HD
BRANCH   4   9
ATOM      5  N   UNL     1      -2.737  -1.916  24.807  0.00  0.00    -0.305 NA
ATOM      9  C   UNL     1      -4.305   0.532  24.475  0.00  0.00    +0.056 C 
ATOM     12  C   UNL     1      -4.909  -0.858  24.269  0.00  0.00    +0.034 C 
ATOM     13  C   UNL     1      -3.115   0.448  25.437  0.00  0.00    +0.034 C 
ATOM     15  C   UNL     1      -3.838  -1.863  23.836  0.00  0.00    +0.085 C 
ATOM     16  C   UNL     1      -2.103  -0.600  24.966  0.00  0.00    +0.085 C 
ATOM     18  C   UNL     1      -1.748  -2.916  24.406  0.00  0.00    +0.104 C 
ENDBRANCH   4   9
ENDBRANCH   8   4
BRANCH  11  17
ATOM     17  C   UNL     1      -1.785   4.758  25.507  0.00  0.00    +0.140 C 
BRANCH  17   6
ATOM      3  O   UNL     1      -0.300   3.775  23.264  0.00  0.00    -0.253 OA
ATOM      6  N   UNL     1      -0.982   3.571  25.465  0.00  0.00    -0.297 N 
ATOM      7  N   UNL     1       0.412   1.965  24.578  0.00  0.00    -0.269 N 
ATOM     19  C   UNL     1      -0.280   3.152  24.323  0.00  0.00    +0.304 C 
ATOM     28  H   UNL     1      -0.929   2.998  26.301  0.00  0.00    +0.150 HD
ATOM     29  H   UNL     1       0.322   1.577  25.514  0.00  0.00    +0.156 HD
BRANCH   7  20
ATOM     20  C   UNL     1       1.230   1.229  23.690  0.00  0.00    +0.035 A 
ATOM     21  C   UNL     1       2.575   1.567  23.539  0.00  0.00    +0.023 A 
ATOM     22  C   UNL     1       0.692   0.166  22.964  0.00  0.00    +0.023 A 
ATOM     23  C   UNL     1       3.383   0.841  22.662  0.00  0.00    +0.002 A 
ATOM     24  C   UNL     1       1.500  -0.559  22.087  0.00  0.00    +0.002 A 
ATOM     25  C   UNL     1       2.844  -0.221  21.936  0.00  0.00    +0.000 A 
ENDBRANCH   7  20
ENDBRANCH  17   6
ENDBRANCH  11  17
TORSDOF 6
ENDMDL
MODEL 3
REMARK VINA RESULT:      -1.9      1.945      5.497
REMARK  Name = 75536841
REMARK  7 active torsions:
REMARK  status: ('A' for Active; 'I' for Inactive)
REMARK    1  A    between atoms: O_2  and  C_10
REMARK    2  A    between atoms: N_4  and  C_8
REMARK    3  A    between atoms: N_4  and  C_9
REMARK    4  A    between atoms: N_5  and  C_18
REMARK    5  A    between atoms: N_6  and  C_17
REMARK    6  A    between atoms: N_7  and  C_20
REMARK    7  A    between atoms: C_11  and  C_17
REMARK                            x       y       z     vdW  Elec       q    Type
REMARK                         _______ _______ _______ _____ _____    ______ ____
ROOT
ATOM      1  O   UNL     1      -1.493  -1.856  23.130  0.00  0.00    -0.371 OA
ATOM      8  C   UNL     1       0.405  -0.879  24.171  0.00  0.00    +0.111 C 
ATOM     10  C   UNL     1      -0.489  -1.483  25.239  0.00  0.00    +0.164 C 
ATOM     11  C   UNL     1      -1.302  -2.472  24.415  0.00  0.00    +0.165 C 
ATOM     14  C   UNL     1      -0.557  -0.772  22.999  0.00  0.00    +0.181 C 
ENDROOT
BRANCH  10   2
ATOM      2  O   UNL     1       0.243  -2.127  26.263  0.00  0.00    -0.388 OA
ATOM     27  H   UNL     1       0.656  -1.444  26.821  0.00  0.00    +0.210 HD
ENDBRANCH  10   2
BRANCH   8   4
ATOM      4  N   UNL     1       0.981   0.402  24.549  0.00  0.00    -0.306 NA
ATOM     26  H   UNL     1       1.694   0.679  23.875  0.00  0.00    +0.123 HD
BRANCH   4   9
ATOM      5  N   UNL     1      -0.808   4.205  25.176  0.00  0.00    -0.305 NA
ATOM      9  C   UNL     1      -0.052   1.431  24.633  0.00  0.00    +0.056 C 
ATOM     12  C   UNL     1       0.249   2.566  23.652  0.00  0.00    +0.034 C 
ATOM     13  C   UNL     1      -0.158   1.986  26.057  0.00  0.00    +0.034 C 
ATOM     15  C   UNL     1      -0.769   3.701  23.797  0.00  0.00    +0.085 C 
ATOM     16  C   UNL     1      -1.162   3.139  26.123  0.00  0.00    +0.085 C 
ATOM     18  C   UNL     1      -1.747   5.321  25.286  0.00  0.00    +0.104 C 
ENDBRANCH   4   9
ENDBRANCH   8   4
BRANCH  11  17
ATOM     17  C   UNL     1      -2.650  -2.801  25.031  0.00  0.00    +0.140 C 
BRANCH  17   6
ATOM      3  O   UNL     1      -2.718  -0.076  25.911  0.00  0.00    -0.253 OA
ATOM      6  N   UNL     1      -3.634  -1.815  24.691  0.00  0.00    -0.297 N 
ATOM      7  N   UNL     1      -4.683   0.237  24.666  0.00  0.00    -0.269 N 
ATOM     19  C   UNL     1      -3.599  -0.493  25.162  0.00  0.00    +0.304 C 
ATOM     28  H   UNL     1      -4.400  -2.091  24.085  0.00  0.00    +0.150 HD
ATOM     29  H   UNL     1      -5.326  -0.262  24.054  0.00  0.00    +0.156 HD
BRANCH   7  20
ATOM     20  C   UNL     1      -5.001   1.593  24.908  0.00  0.00    +0.035 A 
ATOM     21  C   UNL     1      -4.310   2.602  24.236  0.00  0.00    +0.023 A 
ATOM     22  C   UNL     1      -6.005   1.923  25.819  0.00  0.00    +0.023 A 
ATOM     23  C   UNL     1      -4.623   3.940  24.474  0.00  0.00    +0.002 A 
ATOM     24  C   UNL     1      -6.316   3.262  26.057  0.00  0.00    +0.002 A 
ATOM     25  C   UNL     1      -5.626   4.270  25.386  0.00  0.00    +0.000 A 
ENDBRANCH   7  20
ENDBRANCH  17   6
ENDBRANCH  11  17
TORSDOF 6
ENDMDL
MODEL 4
REMARK VINA RESULT:      -1.7      2.503      5.529
REMARK  Name = 75536841
REMARK  7 active torsions:
REMARK  status: ('A' for Active; 'I' for Inactive)
REMARK    1  A    between atoms: O_2  and  C_10
REMARK    2  A    between atoms: N_4  and  C_8
REMARK    3  A    between atoms: N_4  and  C_9
REMARK    4  A    between atoms: N_5  and  C_18
REMARK    5  A    between atoms: N_6  and  C_17
REMARK    6  A    between atoms: N_7  and  C_20
REMARK    7  A    between atoms: C_11  and  C_17
REMARK                            x       y       z     vdW  Elec       q    Type
REMARK                         _______ _______ _______ _____ _____    ______ ____
ROOT
ATOM      1  O   UNL     1      -3.591  -1.393  26.326  0.00  0.00    -0.371 OA
ATOM      8  C   UNL     1      -4.668   0.113  24.838  0.00  0.00    +0.111 C 
ATOM     10  C   UNL     1      -3.585  -0.637  24.085  0.00  0.00    +0.164 C 
ATOM     11  C   UNL     1      -3.396  -1.856  24.979  0.00  0.00    +0.165 C 
ATOM     14  C   UNL     1      -4.242  -0.112  26.281  0.00  0.00    +0.181 C 
ENDROOT
BRANCH  10   2
ATOM      2  O   UNL     1      -3.981  -1.000  22.777  0.00  0.00    -0.388 OA
ATOM     27  H   UNL     1      -3.186  -1.046  22.218  0.00  0.00    +0.210 HD
ENDBRANCH  10   2
BRANCH   8   4
ATOM      4  N   UNL     1      -4.755   1.521  24.487  0.00  0.00    -0.306 NA
ATOM     26  H   UNL     1      -5.574   1.942  24.924  0.00  0.00    +0.123 HD
BRANCH   4   9
ATOM      5  N   UNL     1      -1.775   4.547  24.639  0.00  0.00    -0.305 NA
ATOM      9  C   UNL     1      -3.548   2.234  24.898  0.00  0.00    +0.056 C 
ATOM     12  C   UNL     1      -3.911   3.609  25.465  0.00  0.00    +0.034 C 
ATOM     13  C   UNL     1      -2.578   2.392  23.724  0.00  0.00    +0.034 C 
ATOM     15  C   UNL     1      -2.653   4.410  25.809  0.00  0.00    +0.085 C 
ATOM     16  C   UNL     1      -1.364   3.234  24.126  0.00  0.00    +0.085 C 
ATOM     18  C   UNL     1      -0.603   5.358  24.971  0.00  0.00    +0.104 C 
ENDBRANCH   4   9
ENDBRANCH   8   4
BRANCH  11  17
ATOM     17  C   UNL     1      -2.022  -2.489  24.848  0.00  0.00    +0.140 C 
BRANCH  17   6
ATOM      3  O   UNL     1       0.802  -2.180  25.218  0.00  0.00    -0.253 OA
ATOM      6  N   UNL     1      -1.141  -1.667  24.071  0.00  0.00    -0.297 N 
ATOM      7  N   UNL     1       0.839  -0.695  23.400  0.00  0.00    -0.269 N 
ATOM     19  C   UNL     1       0.239  -1.567  24.313  0.00  0.00    +0.304 C 
ATOM     28  H   UNL     1      -1.538  -1.121  23.313  0.00  0.00    +0.150 HD
ATOM     29  H   UNL     1       0.226  -0.267  22.710  0.00  0.00    +0.156 HD
BRANCH   7  20
ATOM     20  C   UNL     1       2.202  -0.331  23.314  0.00  0.00    +0.035 A 
ATOM     21  C   UNL     1       3.191  -1.238  23.696  0.00  0.00    +0.023 A 
ATOM     22  C   UNL     1       2.558   0.934  22.847  0.00  0.00    +0.023 A 
ATOM     23  C   UNL     1       4.537  -0.879  23.611  0.00  0.00    +0.002 A 
ATOM     24  C   UNL     1       3.904   1.292  22.763  0.00  0.00    +0.002 A 
ATOM     25  C   UNL     1       4.893   0.386  23.145  0.00  0.00    +0.000 A 
ENDBRANCH   7  20
ENDBRANCH  17   6
ENDBRANCH  11  17
TORSDOF 6
ENDMDL
MODEL 5
REMARK VINA RESULT:      -0.9     14.834     16.542
REMARK  Name = 75536841
REMARK  7 active torsions:
REMARK  status: ('A' for Active; 'I' for Inactive)
REMARK    1  A    between atoms: O_2  and  C_10
REMARK    2  A    between atoms: N_4  and  C_8
REMARK    3  A    between atoms: N_4  and  C_9
REMARK    4  A    between atoms: N_5  and  C_18
REMARK    5  A    between atoms: N_6  and  C_17
REMARK    6  A    between atoms: N_7  and  C_20
REMARK    7  A    between atoms: C_11  and  C_17
REMARK                            x       y       z     vdW  Elec       q    Type
REMARK                         _______ _______ _______ _____ _____    ______ ____
ROOT
ATOM      1  O   UNL     1      -4.093 -10.734  13.430  0.00  0.00    -0.371 OA
ATOM      8  C   UNL     1      -2.657  -9.577  11.933  0.00  0.00    +0.111 C 
ATOM     10  C   UNL     1      -4.024  -9.729  11.290  0.00  0.00    +0.164 C 
ATOM     11  C   UNL     1      -4.898  -9.972  12.513  0.00  0.00    +0.165 C 
ATOM     14  C   UNL     1      -2.718 -10.637  13.022  0.00  0.00    +0.181 C 
ENDROOT
BRANCH  10   2
ATOM      2  O   UNL     1      -4.423  -8.573  10.579  0.00  0.00    -0.388 OA
ATOM     27  H   UNL     1      -4.986  -8.851   9.836  0.00  0.00    +0.210 HD
ENDBRANCH  10   2
BRANCH   8   4
ATOM      4  N   UNL     1      -1.552  -9.778  11.009  0.00  0.00    -0.306 NA
ATOM     26  H   UNL     1      -1.758  -9.335  10.114  0.00  0.00    +0.123 HD
BRANCH   4   9
ATOM      5  N   UNL     1       1.627  -7.053  11.737  0.00  0.00    -0.305 NA
ATOM      9  C   UNL     1      -0.311  -9.238  11.559  0.00  0.00    +0.056 C 
ATOM     12  C   UNL     1      -0.594  -7.958  12.349  0.00  0.00    +0.034 C 
ATOM     13  C   UNL     1       0.703  -8.953  10.447  0.00  0.00    +0.034 C 
ATOM     15  C   UNL     1       0.707  -7.323  12.849  0.00  0.00    +0.085 C 
ATOM     16  C   UNL     1       1.960  -8.285  11.010  0.00  0.00    +0.085 C 
ATOM     18  C   UNL     1       2.842  -6.401  12.225  0.00  0.00    +0.104 C 
ENDBRANCH   4   9
ENDBRANCH   8   4
BRANCH  11  17
ATOM     17  C   UNL     1      -6.174 -10.732  12.198  0.00  0.00    +0.140 C 
BRANCH  17   6
ATOM      3  O   UNL     1      -6.953 -10.738  14.955  0.00  0.00    -0.253 OA
ATOM      6  N   UNL     1      -7.320 -10.085  12.766  0.00  0.00    -0.297 N 
ATOM      7  N   UNL     1      -8.807  -9.411  14.394  0.00  0.00    -0.269 N 
ATOM     19  C   UNL     1      -7.637 -10.132  14.133  0.00  0.00    +0.304 C 
ATOM     28  H   UNL     1      -7.940  -9.575  12.144  0.00  0.00    +0.150 HD
ATOM     29  H   UNL     1      -9.254  -8.967  13.595  0.00  0.00    +0.156 HD
BRANCH   7  20
ATOM     20  C   UNL     1      -9.450  -9.222  15.638  0.00  0.00    +0.035 A 
ATOM     21  C   UNL     1      -9.654  -7.932  16.128  0.00  0.00    +0.023 A 
ATOM     22  C   UNL     1      -9.881 -10.324  16.376  0.00  0.00    +0.023 A 
ATOM     23  C   UNL     1     -10.289  -7.743  17.356  0.00  0.00    +0.002 A 
ATOM     24  C   UNL     1     -10.515 -10.136  17.604  0.00  0.00    +0.002 A 
ATOM     25  C   UNL     1     -10.719  -8.846  18.094  0.00  0.00    +0.000 A 
ENDBRANCH   7  20
ENDBRANCH  17   6
ENDBRANCH  11  17
TORSDOF 6
ENDMDL
MODEL 6
REMARK VINA RESULT:      -0.2      2.256      6.349
REMARK  Name = 75536841
REMARK  7 active torsions:
REMARK  status: ('A' for Active; 'I' for Inactive)
REMARK    1  A    between atoms: O_2  and  C_10
REMARK    2  A    between atoms: N_4  and  C_8
REMARK    3  A    between atoms: N_4  and  C_9
REMARK    4  A    between atoms: N_5  and  C_18
REMARK    5  A    between atoms: N_6  and  C_17
REMARK    6  A    between atoms: N_7  and  C_20
REMARK    7  A    between atoms: C_11  and  C_17
REMARK                            x       y       z     vdW  Elec       q    Type
REMARK                         _______ _______ _______ _____ _____    ______ ____
ROOT
ATOM      1  O   UNL     1      -1.995  -2.059  26.560  0.00  0.00    -0.371 OA
ATOM      8  C   UNL     1      -3.634  -1.961  24.844  0.00  0.00    +0.111 C 
ATOM     10  C   UNL     1      -2.256  -1.860  24.218  0.00  0.00    +0.164 C 
ATOM     11  C   UNL     1      -1.389  -2.457  25.318  0.00  0.00    +0.165 C 
ATOM     14  C   UNL     1      -3.333  -1.607  26.292  0.00  0.00    +0.181 C 
ENDROOT
BRANCH  10   2
ATOM      2  O   UNL     1      -2.150  -2.590  23.010  0.00  0.00    -0.388 OA
ATOM     27  H   UNL     1      -2.746  -3.357  23.063  0.00  0.00    +0.210 HD
ENDBRANCH  10   2
BRANCH   8   4
ATOM      4  N   UNL     1      -4.617  -1.077  24.238  0.00  0.00    -0.306 NA
ATOM     26  H   UNL     1      -5.557  -1.442  24.387  0.00  0.00    +0.123 HD
BRANCH   4   9
ATOM      5  N   UNL     1      -5.369   3.070  24.788  0.00  0.00    -0.305 NA
ATOM      9  C   UNL     1      -4.512   0.271  24.790  0.00  0.00    +0.056 C 
ATOM     12  C   UNL     1      -5.858   0.714  25.368  0.00  0.00    +0.034 C 
ATOM     13  C   UNL     1      -4.050   1.267  23.720  0.00  0.00    +0.034 C 
ATOM     15  C   UNL     1      -5.794   2.162  25.862  0.00  0.00    +0.085 C 
ATOM     16  C   UNL     1      -4.046   2.696  24.268  0.00  0.00    +0.085 C 
ATOM     18  C   UNL     1      -5.362   4.453  25.260  0.00  0.00    +0.104 C 
ENDBRANCH   4   9
ENDBRANCH   8   4
BRANCH  11  17
ATOM     17  C   UNL     1       0.052  -1.979  25.274  0.00  0.00    +0.140 C 
BRANCH  17   6
ATOM      3  O   UNL     1      -1.033   0.477  26.274  0.00  0.00    -0.253 OA
ATOM      6  N   UNL     1       0.153  -0.685  24.663  0.00  0.00    -0.297 N 
ATOM      7  N   UNL     1      -0.148   1.585  24.402  0.00  0.00    -0.269 N 
ATOM     19  C   UNL     1      -0.407   0.478  25.216  0.00  0.00    +0.304 C 
ATOM     28  H   UNL     1       0.646  -0.611  23.779  0.00  0.00    +0.150 HD
ATOM     29  H   UNL     1       0.388   1.411  23.555  0.00  0.00    +0.156 HD
BRANCH   7  20
ATOM     20  C   UNL     1      -0.542   2.926  24.612  0.00  0.00    +0.035 A 
ATOM     21  C   UNL     1      -1.425   3.241  25.644  0.00  0.00    +0.023 A 
ATOM     22  C   UNL     1      -0.046   3.936  23.786  0.00  0.00    +0.023 A 
ATOM     23  C   UNL     1      -1.814   4.565  25.852  0.00  0.00    +0.002 A 
ATOM     24  C   UNL     1      -0.435   5.259  23.994  0.00  0.00    +0.002 A 
ATOM     25  C   UNL     1      -1.319   5.573  25.026  0.00  0.00    +0.000 A 
ENDBRANCH   7  20
ENDBRANCH  17   6
ENDBRANCH  11  17
TORSDOF 6
ENDMDL
