MODEL 1
REMARK VINA RESULT:       2.0      0.000      0.000
REMARK  Name = 7687250
REMARK  6 active torsions:
REMARK  status: ('A' for Active; 'I' for Inactive)
REMARK    1  A    between atoms: S_2  and  N_6
REMARK    2  A    between atoms: S_2  and  C_17
REMARK    3  A    between atoms: C_15  and  C_20
REMARK    4  A    between atoms: C_17  and  C_21
REMARK    5  A    between atoms: C_21  and  C_22
REMARK    6  A    between atoms: C_23  and  C_24
REMARK                            x       y       z     vdW  Elec       q    Type
REMARK                         _______ _______ _______ _____ _____    ______ ____
ROOT
ATOM      5  O   UNL     1      -4.073   4.706  25.631  0.00  0.00    -0.268 OA
ATOM      6  N   UNL     1      -2.775  -0.026  24.788  0.00  0.00    -0.180 NA
ATOM      7  N   UNL     1      -2.889   3.109  24.393  0.00  0.00    -0.311 N 
ATOM      8  C   UNL     1      -4.099   1.251  23.104  0.00  0.00    +0.025 C 
ATOM      9  C   UNL     1      -1.649   1.370  23.067  0.00  0.00    +0.052 C 
ATOM     10  C   UNL     1      -2.893   1.308  22.185  0.00  0.00    +0.017 C 
ATOM     11  C   UNL     1      -4.044   0.009  24.007  0.00  0.00    +0.114 C 
ATOM     12  C   UNL     1      -1.564   0.091  23.923  0.00  0.00    +0.118 C 
ATOM     13  C   UNL     1      -4.158   2.553  23.903  0.00  0.00    +0.130 C 
ATOM     14  C   UNL     1      -1.640   2.613  23.965  0.00  0.00    +0.033 A 
ATOM     15  C   UNL     1      -0.488   3.221  24.360  0.00  0.00    -0.005 A 
ATOM     16  C   UNL     1      -3.010   4.225  25.238  0.00  0.00    +0.252 A 
ATOM     18  C   UNL     1      -0.585   4.379  25.234  0.00  0.00    +0.015 A 
ATOM     19  C   UNL     1      -1.749   4.864  25.668  0.00  0.00    +0.071 A 
ENDROOT
BRANCH   6   2
ATOM      2  S   UNL     1      -2.694  -1.216  26.015  0.00  0.00    +0.032 S 
ATOM      3  O   UNL     1      -4.019  -1.411  26.564  0.00  0.00    -0.158 OA
ATOM      4  O   UNL     1      -1.555  -0.938  26.861  0.00  0.00    -0.158 OA
BRANCH   2  17
ATOM     17  C   UNL     1      -2.303  -2.629  25.017  0.00  0.00    +0.185 C 
BRANCH  17  21
ATOM     21  C   UNL     1      -3.548  -3.430  24.677  0.00  0.00    +0.021 C 
ATOM     22  C   UNL     1      -4.259  -2.864  23.459  0.00  0.00    +0.005 C 
ENDBRANCH  17  21
ENDBRANCH   2  17
ENDBRANCH   6   2
BRANCH  15  20
ATOM     20  C   UNL     1       0.829   2.744  23.972  0.00  0.00    +0.010 C 
ATOM     23  C   UNL     1       1.121   1.448  23.878  0.00  0.00    +0.008 C 
BRANCH  23  24
ATOM      1 CL   UNL     1       6.471  -0.701  22.347  0.00  0.00    -0.084 Cl
ATOM     24  C   UNL     1       2.442   0.917  23.499  0.00  0.00    -0.025 A 
ATOM     25  C   UNL     1       2.707  -0.431  23.675  0.00  0.00    +0.009 A 
ATOM     26  C   UNL     1       3.394   1.777  22.975  0.00  0.00    +0.009 A 
ATOM     27  C   UNL     1       3.958  -0.934  23.316  0.00  0.00    +0.020 A 
ATOM     28  C   UNL     1       4.645   1.274  22.618  0.00  0.00    +0.020 A 
ATOM     29  C   UNL     1       4.927  -0.081  22.788  0.00  0.00    +0.041 A 
ENDBRANCH  23  24
ENDBRANCH  15  20
TORSDOF 5
ENDMDL
MODEL 2
REMARK VINA RESULT:       4.3      2.130      4.970
REMARK  Name = 7687250
REMARK  6 active torsions:
REMARK  status: ('A' for Active; 'I' for Inactive)
REMARK    1  A    between atoms: S_2  and  N_6
REMARK    2  A    between atoms: S_2  and  C_17
REMARK    3  A    between atoms: C_15  and  C_20
REMARK    4  A    between atoms: C_17  and  C_21
REMARK    5  A    between atoms: C_21  and  C_22
REMARK    6  A    between atoms: C_23  and  C_24
REMARK                            x       y       z     vdW  Elec       q    Type
REMARK                         _______ _______ _______ _____ _____    ______ ____
ROOT
ATOM      5  O   UNL     1      -4.703  -3.253  23.716  0.00  0.00    -0.268 OA
ATOM      6  N   UNL     1      -2.793   1.310  24.290  0.00  0.00    -0.180 NA
ATOM      7  N   UNL     1      -3.114  -1.814  24.659  0.00  0.00    -0.311 N 
ATOM      8  C   UNL     1      -3.803   0.098  26.222  0.00  0.00    +0.025 C 
ATOM      9  C   UNL     1      -1.436  -0.244  25.677  0.00  0.00    +0.052 C 
ATOM     10  C   UNL     1      -2.426  -0.100  26.830  0.00  0.00    +0.017 C 
ATOM     11  C   UNL     1      -3.841   1.362  25.349  0.00  0.00    +0.114 C 
ATOM     12  C   UNL     1      -1.431   1.052  24.843  0.00  0.00    +0.118 C 
ATOM     13  C   UNL     1      -4.173  -1.164  25.443  0.00  0.00    +0.130 C 
ATOM     14  C   UNL     1      -1.757  -1.450  24.787  0.00  0.00    +0.033 A 
ATOM     15  C   UNL     1      -0.794  -2.145  24.123  0.00  0.00    -0.005 A 
ATOM     16  C   UNL     1      -3.536  -2.884  23.852  0.00  0.00    +0.252 A 
ATOM     18  C   UNL     1      -1.205  -3.258  23.281  0.00  0.00    +0.015 A 
ATOM     19  C   UNL     1      -2.478  -3.619  23.128  0.00  0.00    +0.071 A 
ENDROOT
BRANCH   6   2
ATOM      2  S   UNL     1      -2.887   2.530  23.095  0.00  0.00    +0.032 S 
ATOM      3  O   UNL     1      -4.117   3.270  23.280  0.00  0.00    -0.158 OA
ATOM      4  O   UNL     1      -2.530   1.959  21.815  0.00  0.00    -0.158 OA
BRANCH   2  17
ATOM     17  C   UNL     1      -1.544   3.558  23.630  0.00  0.00    +0.185 C 
BRANCH  17  21
ATOM     21  C   UNL     1      -1.903   4.328  24.891  0.00  0.00    +0.021 C 
ATOM     22  C   UNL     1      -1.183   5.664  24.952  0.00  0.00    +0.005 C 
ENDBRANCH  17  21
ENDBRANCH   2  17
ENDBRANCH   6   2
BRANCH  15  20
ATOM     20  C   UNL     1       0.617  -1.803  24.195  0.00  0.00    +0.010 C 
ATOM     23  C   UNL     1       1.202  -0.993  23.314  0.00  0.00    +0.008 C 
BRANCH  23  24
ATOM      1 CL   UNL     1       6.979   0.491  23.421  0.00  0.00    -0.084 Cl
ATOM     24  C   UNL     1       2.629  -0.627  23.340  0.00  0.00    -0.025 A 
ATOM     25  C   UNL     1       3.549  -1.516  23.873  0.00  0.00    +0.009 A 
ATOM     26  C   UNL     1       3.024   0.600  22.831  0.00  0.00    +0.009 A 
ATOM     27  C   UNL     1       4.899  -1.168  23.898  0.00  0.00    +0.020 A 
ATOM     28  C   UNL     1       4.375   0.947  22.856  0.00  0.00    +0.020 A 
ATOM     29  C   UNL     1       5.312   0.063  23.390  0.00  0.00    +0.041 A 
ENDBRANCH  23  24
ENDBRANCH  15  20
TORSDOF 5
ENDMDL
