MODEL 1
REMARK VINA RESULT:       7.2      0.000      0.000
REMARK  Name = 11882578
REMARK  11 active torsions:
REMARK  status: ('A' for Active; 'I' for Inactive)
REMARK    1  A    between atoms: S_1  and  C_30
REMARK    2  A    between atoms: S_1  and  C_32
REMARK    3  A    between atoms: O_2  and  C_12
REMARK    4  A    between atoms: O_3  and  C_16
REMARK    5  A    between atoms: O_4  and  C_17
REMARK    6  A    between atoms: O_8  and  C_26
REMARK    7  A    between atoms: O_8  and  C_31
REMARK    8  A    between atoms: N_9  and  C_13
REMARK    9  A    between atoms: N_10  and  C_19
REMARK   10  A    between atoms: C_12  and  C_18
REMARK   11  A    between atoms: C_21  and  C_25
REMARK                            x       y       z     vdW  Elec       q    Type
REMARK                         _______ _______ _______ _____ _____    ______ ____
ROOT
ATOM     12  C   UNL     1      -3.620  -0.660  25.392  0.00  0.00    +0.146 C 
ATOM     13  C   UNL     1      -1.267  -1.586  25.141  0.00  0.00    +0.107 C 
ATOM     14  C   UNL     1      -2.138  -0.327  25.207  0.00  0.00    +0.069 C 
ATOM     15  C   UNL     1      -4.111  -1.625  24.315  0.00  0.00    +0.078 C 
ATOM     16  C   UNL     1      -1.768  -2.572  24.077  0.00  0.00    +0.163 C 
ATOM     17  C   UNL     1      -3.255  -2.891  24.244  0.00  0.00    +0.148 C 
ENDROOT
BRANCH  12  18
ATOM      5  O   UNL     1      -5.583   0.621  25.851  0.00  0.00    -0.273 OA
ATOM     10  N   UNL     1      -3.795   1.649  24.773  0.00  0.00    -0.302 N 
ATOM     18  C   UNL     1      -4.449   0.591  25.381  0.00  0.00    +0.245 C 
ATOM     35  H   UNL     1      -2.829   1.532  24.483  0.00  0.00    +0.150 HD
BRANCH  10  19
ATOM      7  O   UNL     1      -2.129   3.814  24.675  0.00  0.00    -0.274 OA
ATOM     11  N   UNL     1      -3.777   5.191  25.453  0.00  0.00    -0.314 N 
ATOM     19  C   UNL     1      -4.383   2.953  24.614  0.00  0.00    +0.159 C 
ATOM     20  C   UNL     1      -5.658   3.077  25.436  0.00  0.00    +0.033 C 
ATOM     22  C   UNL     1      -6.159   4.512  25.388  0.00  0.00    +0.021 C 
ATOM     23  C   UNL     1      -3.318   3.993  24.944  0.00  0.00    +0.233 C 
ATOM     24  C   UNL     1      -5.106   5.425  25.986  0.00  0.00    +0.104 C 
ATOM     38  H   UNL     1      -3.081   5.913  25.624  0.00  0.00    +0.149 HD
ENDBRANCH  10  19
ENDBRANCH  12  18
BRANCH  13   9
ATOM      6  O   UNL     1      -0.191  -0.579  22.678  0.00  0.00    -0.270 OA
ATOM      9  N   UNL     1       0.108  -1.216  24.887  0.00  0.00    -0.306 N 
ATOM     21  C   UNL     1       0.532  -0.738  23.658  0.00  0.00    +0.248 C 
ATOM     33  H   UNL     1       0.786  -1.399  25.620  0.00  0.00    +0.149 HD
BRANCH  21  25
ATOM     25  C   UNL     1       1.981  -0.429  23.550  0.00  0.00    +0.078 A 
ATOM     26  C   UNL     1       2.420   0.878  23.336  0.00  0.00    +0.133 A 
ATOM     27  C   UNL     1       2.906  -1.466  23.667  0.00  0.00    +0.018 A 
ATOM     28  C   UNL     1       3.786   1.146  23.238  0.00  0.00    +0.061 A 
ATOM     29  C   UNL     1       4.271  -1.197  23.568  0.00  0.00    +0.015 A 
ATOM     30  C   UNL     1       4.711   0.109  23.354  0.00  0.00    +0.011 A 
BRANCH  30   1
ATOM      1  S   UNL     1       6.455   0.452  23.227  0.00  0.00    -0.128 S 
ATOM     32  C   UNL     1       7.107  -1.144  22.662  0.00  0.00    +0.090 C 
ENDBRANCH  30   1
BRANCH  26   8
ATOM      8  O   UNL     1       1.532   1.905  23.220  0.00  0.00    -0.494 OA
ATOM     31  C   UNL     1       0.705   2.177  24.349  0.00  0.00    +0.277 C 
ENDBRANCH  26   8
ENDBRANCH  21  25
ENDBRANCH  13   9
BRANCH  12   2
ATOM      2  O   UNL     1      -3.844  -1.238  26.672  0.00  0.00    -0.379 OA
ATOM     34  H   UNL     1      -3.055  -1.087  27.221  0.00  0.00    +0.211 HD
ENDBRANCH  12   2
BRANCH  16   3
ATOM      3  O   UNL     1      -1.044  -3.800  24.201  0.00  0.00    -0.387 OA
ATOM     36  H   UNL     1      -0.163  -3.597  24.558  0.00  0.00    +0.210 HD
ENDBRANCH  16   3
BRANCH  17   4
ATOM      4  O   UNL     1      -3.679  -3.672  23.127  0.00  0.00    -0.389 OA
ATOM     37  H   UNL     1      -3.322  -3.255  22.326  0.00  0.00    +0.210 HD
ENDBRANCH  17   4
TORSDOF 9
ENDMDL
MODEL 2
REMARK VINA RESULT:       7.3      2.098      5.035
REMARK  Name = 11882578
REMARK  11 active torsions:
REMARK  status: ('A' for Active; 'I' for Inactive)
REMARK    1  A    between atoms: S_1  and  C_30
REMARK    2  A    between atoms: S_1  and  C_32
REMARK    3  A    between atoms: O_2  and  C_12
REMARK    4  A    between atoms: O_3  and  C_16
REMARK    5  A    between atoms: O_4  and  C_17
REMARK    6  A    between atoms: O_8  and  C_26
REMARK    7  A    between atoms: O_8  and  C_31
REMARK    8  A    between atoms: N_9  and  C_13
REMARK    9  A    between atoms: N_10  and  C_19
REMARK   10  A    between atoms: C_12  and  C_18
REMARK   11  A    between atoms: C_21  and  C_25
REMARK                            x       y       z     vdW  Elec       q    Type
REMARK                         _______ _______ _______ _____ _____    ______ ____
ROOT
ATOM     12  C   UNL     1      -3.460   2.498  24.259  0.00  0.00    +0.146 C 
ATOM     13  C   UNL     1      -1.031   3.160  23.918  0.00  0.00    +0.107 C 
ATOM     14  C   UNL     1      -2.029   2.004  24.039  0.00  0.00    +0.069 C 
ATOM     15  C   UNL     1      -3.544   3.439  25.460  0.00  0.00    +0.078 C 
ATOM     16  C   UNL     1      -1.125   4.123  25.109  0.00  0.00    +0.163 C 
ATOM     17  C   UNL     1      -2.559   4.604  25.348  0.00  0.00    +0.148 C 
ENDROOT
BRANCH  12  18
ATOM      5  O   UNL     1      -5.589   1.505  24.693  0.00  0.00    -0.273 OA
ATOM     10  N   UNL     1      -3.755   0.121  24.323  0.00  0.00    -0.302 N 
ATOM     18  C   UNL     1      -4.398   1.341  24.443  0.00  0.00    +0.245 C 
ATOM     35  H   UNL     1      -2.778   0.101  24.044  0.00  0.00    +0.150 HD
BRANCH  10  19
ATOM      7  O   UNL     1      -3.137  -1.408  26.503  0.00  0.00    -0.274 OA
ATOM     11  N   UNL     1      -3.729  -3.321  25.403  0.00  0.00    -0.314 N 
ATOM     19  C   UNL     1      -4.426  -1.143  24.480  0.00  0.00    +0.159 C 
ATOM     20  C   UNL     1      -4.575  -1.848  23.139  0.00  0.00    +0.033 C 
ATOM     22  C   UNL     1      -5.125  -3.249  23.357  0.00  0.00    +0.021 C 
ATOM     23  C   UNL     1      -3.674  -1.948  25.534  0.00  0.00    +0.233 C 
ATOM     24  C   UNL     1      -4.152  -4.036  24.213  0.00  0.00    +0.104 C 
ATOM     38  H   UNL     1      -3.279  -3.869  26.132  0.00  0.00    +0.149 HD
ENDBRANCH  10  19
ENDBRANCH  12  18
BRANCH  13   9
ATOM      6  O   UNL     1      -0.264   0.699  22.655  0.00  0.00    -0.270 OA
ATOM      9  N   UNL     1       0.312   2.636  23.792  0.00  0.00    -0.306 N 
ATOM     21  C   UNL     1       0.581   1.433  23.162  0.00  0.00    +0.248 C 
ATOM     33  H   UNL     1       1.058   3.141  24.260  0.00  0.00    +0.149 HD
BRANCH  21  25
ATOM     25  C   UNL     1       2.008   1.021  23.139  0.00  0.00    +0.078 A 
ATOM     26  C   UNL     1       2.371  -0.314  23.323  0.00  0.00    +0.133 A 
ATOM     27  C   UNL     1       2.990   1.989  22.930  0.00  0.00    +0.018 A 
ATOM     28  C   UNL     1       3.717  -0.680  23.298  0.00  0.00    +0.061 A 
ATOM     29  C   UNL     1       4.336   1.622  22.906  0.00  0.00    +0.015 A 
ATOM     30  C   UNL     1       4.699   0.289  23.090  0.00  0.00    +0.011 A 
BRANCH  30   1
ATOM      1  S   UNL     1       6.419  -0.179  23.059  0.00  0.00    -0.128 S 
ATOM     32  C   UNL     1       6.507  -1.353  24.441  0.00  0.00    +0.090 C 
ENDBRANCH  30   1
BRANCH  26   8
ATOM      8  O   UNL     1       1.427  -1.274  23.528  0.00  0.00    -0.494 OA
ATOM     31  C   UNL     1       0.466  -1.029  24.553  0.00  0.00    +0.277 C 
ENDBRANCH  26   8
ENDBRANCH  21  25
ENDBRANCH  13   9
BRANCH  12   2
ATOM      2  O   UNL     1      -3.936   3.176  23.103  0.00  0.00    -0.379 OA
ATOM     34  H   UNL     1      -3.222   3.741  22.761  0.00  0.00    +0.211 HD
ENDBRANCH  12   2
BRANCH  16   3
ATOM      3  O   UNL     1      -0.321   5.276  24.842  0.00  0.00    -0.387 OA
ATOM     36  H   UNL     1       0.335   5.036  24.167  0.00  0.00    +0.210 HD
ENDBRANCH  16   3
BRANCH  17   4
ATOM      4  O   UNL     1      -2.589   5.352  26.562  0.00  0.00    -0.389 OA
ATOM     37  H   UNL     1      -2.301   4.762  27.278  0.00  0.00    +0.210 HD
ENDBRANCH  17   4
TORSDOF 9
ENDMDL
