MODEL 1
REMARK VINA RESULT:      -1.0      0.000      0.000
REMARK  Name = 11912138
REMARK  8 active torsions:
REMARK  status: ('A' for Active; 'I' for Inactive)
REMARK    1  A    between atoms: S_1  and  N_8
REMARK    2  A    between atoms: S_1  and  C_32
REMARK    3  A    between atoms: N_9  and  C_21
REMARK    4  A    between atoms: C_12  and  C_15
REMARK    5  A    between atoms: C_15  and  C_21
REMARK    6  A    between atoms: C_16  and  C_26
REMARK    7  A    between atoms: C_21  and  C_31
REMARK    8  A    between atoms: C_22  and  C_25
REMARK                            x       y       z     vdW  Elec       q    Type
REMARK                         _______ _______ _______ _____ _____    ______ ____
ROOT
ATOM      2  O   UNL     1      14.024  -4.220  32.493  0.00  0.00    -0.275 OA
ATOM      7  N   UNL     1      15.355  -4.869  30.699  0.00  0.00    -0.298 N 
ATOM      8  N   UNL     1      16.069  -6.849  28.743  0.00  0.00    -0.162 NA
ATOM     16  C   UNL     1      14.782  -6.970  29.485  0.00  0.00    +0.183 C 
ATOM     20  C   UNL     1      14.291  -5.643  30.058  0.00  0.00    +0.137 C 
ATOM     23  C   UNL     1      16.646  -4.827  30.004  0.00  0.00    +0.125 C 
ATOM     24  C   UNL     1      16.589  -5.462  28.621  0.00  0.00    +0.129 C 
ATOM     25  C   UNL     1      15.102  -4.195  31.895  0.00  0.00    +0.219 C 
ENDROOT
BRANCH  25  22
ATOM     10  N   UNL     1      16.763  -1.038  30.793  0.00  0.00    -0.316 NA
ATOM     22  C   UNL     1      16.246  -3.398  32.457  0.00  0.00    +0.078 C 
ATOM     27  C   UNL     1      17.405  -3.332  31.460  0.00  0.00    +0.028 C 
ATOM     28  C   UNL     1      15.787  -1.993  32.855  0.00  0.00    +0.028 C 
ATOM     29  C   UNL     1      17.124  -2.369  30.306  0.00  0.00    +0.081 C 
ATOM     30  C   UNL     1      15.573  -1.087  31.641  0.00  0.00    +0.081 C 
ATOM     39  H   UNL     1      16.585  -0.424  29.998  0.00  0.00    +0.122 HD
ENDBRANCH  25  22
BRANCH  16  26
ATOM      3  O   UNL     1      16.214  -8.163  30.972  0.00  0.00    -0.274 OA
ATOM      9  N   UNL     1      13.926  -8.589  31.023  0.00  0.00    -0.303 N 
ATOM     26  C   UNL     1      15.071  -7.957  30.572  0.00  0.00    +0.234 C 
ATOM     38  H   UNL     1      13.038  -8.387  30.574  0.00  0.00    +0.149 HD
BRANCH   9  21
ATOM     21  C   UNL     1      13.936  -9.601  32.054  0.00  0.00    +0.159 C 
BRANCH  21  31
ATOM      6  O   UNL     1      15.915 -10.781  32.829  0.00  0.00    -0.274 OA
ATOM     11  N   UNL     1      15.453 -10.778  30.579  0.00  0.00    -0.328 N 
ATOM     31  C   UNL     1      15.193 -10.450  31.893  0.00  0.00    +0.231 C 
ATOM     40  H   UNL     1      14.859 -10.481  29.813  0.00  0.00    +0.145 HD
ATOM     41  H   UNL     1      16.266 -11.334  30.334  0.00  0.00    +0.145 HD
ENDBRANCH  21  31
BRANCH  21  15
ATOM     15  C   UNL     1      12.653 -10.437  32.059  0.00  0.00    +0.035 C 
BRANCH  15  12
ATOM     12  C   UNL     1      11.377  -9.628  31.830  0.00  0.00    -0.009 C 
ATOM     13  C   UNL     1      11.280  -8.477  32.840  0.00  0.00    +0.003 C 
ATOM     14  C   UNL     1      10.140 -10.532  31.911  0.00  0.00    +0.003 C 
ATOM     17  C   UNL     1       9.985  -7.684  32.667  0.00  0.00    +0.000 C 
ATOM     18  C   UNL     1       8.848  -9.736  31.738  0.00  0.00    +0.000 C 
ATOM     19  C   UNL     1       8.758  -8.587  32.737  0.00  0.00    +0.000 C 
ENDBRANCH  15  12
ENDBRANCH  21  15
ENDBRANCH   9  21
ENDBRANCH  16  26
BRANCH   8   1
ATOM      1  S   UNL     1      16.261  -7.848  27.369  0.00  0.00    +0.062 S 
ATOM      4  O   UNL     1      14.973  -8.393  26.996  0.00  0.00    -0.153 OA
ATOM      5  O   UNL     1      17.405  -8.711  27.570  0.00  0.00    -0.153 OA
BRANCH   1  32
ATOM     32  C   UNL     1      16.702  -6.634  26.164  0.00  0.00    +0.106 A 
ATOM     33  C   UNL     1      16.855  -5.301  26.543  0.00  0.00    +0.028 A 
ATOM     34  C   UNL     1      16.896  -7.008  24.835  0.00  0.00    +0.028 A 
ATOM     35  C   UNL     1      17.203  -4.341  25.593  0.00  0.00    +0.002 A 
ATOM     36  C   UNL     1      17.244  -6.049  23.883  0.00  0.00    +0.002 A 
ATOM     37  C   UNL     1      17.397  -4.716  24.262  0.00  0.00    +0.000 A 
ENDBRANCH   1  32
ENDBRANCH   8   1
TORSDOF 8
ENDMDL
