MODEL 1
REMARK VINA RESULT:      -2.6      0.000      0.000
REMARK  Name = 26744586
REMARK  8 active torsions:
REMARK  status: ('A' for Active; 'I' for Inactive)
REMARK    1  A    between atoms: O_3  and  C_11
REMARK    2  A    between atoms: O_5  and  C_16
REMARK    3  A    between atoms: O_5  and  C_26
REMARK    4  A    between atoms: N_6  and  C_13
REMARK    5  A    between atoms: C_9  and  C_14
REMARK    6  A    between atoms: C_13  and  C_15
REMARK    7  A    between atoms: C_17  and  C_19
REMARK    8  A    between atoms: C_19  and  C_23
REMARK                            x       y       z     vdW  Elec       q    Type
REMARK                         _______ _______ _______ _____ _____    ______ ____
ROOT
ATOM      6  N   UNL     1      11.911  -7.280  32.540  0.00  0.00    -0.284 NA
ATOM      9  C   UNL     1      12.237  -7.146  31.106  0.00  0.00    +0.149 C 
ATOM     10  C   UNL     1      12.143  -5.636  30.820  0.00  0.00    +0.061 C 
ATOM     11  C   UNL     1      11.712  -5.011  32.141  0.00  0.00    +0.130 C 
ATOM     12  C   UNL     1      11.039  -6.156  32.873  0.00  0.00    +0.116 C 
ENDROOT
BRANCH   9  14
ATOM      4  O   UNL     1      14.404  -8.037  31.804  0.00  0.00    -0.336 OA
ATOM      7  N   UNL     1      14.114  -7.970  29.584  0.00  0.00    -0.194 NA
ATOM      8  N   UNL     1      15.583  -8.543  31.241  0.00  0.00    -0.061 NA
ATOM     14  C   UNL     1      13.593  -7.724  30.760  0.00  0.00    +0.245 A 
ATOM     17  C   UNL     1      15.335  -8.471  29.930  0.00  0.00    +0.176 A 
BRANCH  17  19
ATOM     19  C   UNL     1      16.315  -8.903  28.929  0.00  0.00    +0.116 C 
BRANCH  19  23
ATOM      1 CL   UNL     1      16.019  -9.934  26.023  0.00  0.00    -0.083 Cl
ATOM      2  F   UNL     1      17.156  -5.170  24.766  0.00  0.00    -0.205 F 
ATOM     23  C   UNL     1      16.536  -7.920  27.784  0.00  0.00    -0.021 A 
ATOM     24  C   UNL     1      16.420  -8.311  26.450  0.00  0.00    +0.047 A 
ATOM     25  C   UNL     1      16.863  -6.600  28.098  0.00  0.00    +0.008 A 
ATOM     27  C   UNL     1      16.630  -7.382  25.431  0.00  0.00    +0.058 A 
ATOM     28  C   UNL     1      17.072  -5.672  27.079  0.00  0.00    +0.039 A 
ATOM     29  C   UNL     1      16.956  -6.063  25.745  0.00  0.00    +0.125 A 
ENDBRANCH  19  23
ENDBRANCH  17  19
ENDBRANCH   9  14
BRANCH  11   3
ATOM      3  O   UNL     1      10.824  -3.932  31.921  0.00  0.00    -0.390 OA
ATOM     30  H   UNL     1      10.973  -3.612  31.016  0.00  0.00    +0.210 HD
ENDBRANCH  11   3
BRANCH   6  13
ATOM     13  C   UNL     1      11.303  -8.563  32.873  0.00  0.00    +0.124 C 
BRANCH  13  15
ATOM     15  C   UNL     1       9.858  -8.622  32.457  0.00  0.00    +0.008 A 
ATOM     16  C   UNL     1       9.360  -9.722  31.759  0.00  0.00    +0.124 A 
ATOM     18  C   UNL     1       9.013  -7.559  32.778  0.00  0.00    +0.008 A 
ATOM     20  C   UNL     1       8.018  -9.759  31.381  0.00  0.00    +0.046 A 
ATOM     21  C   UNL     1       7.670  -7.596  32.400  0.00  0.00    +0.001 A 
ATOM     22  C   UNL     1       7.173  -8.697  31.701  0.00  0.00    +0.004 A 
BRANCH  16   5
ATOM      5  O   UNL     1      10.171 -10.769  31.438  0.00  0.00    -0.495 OA
ATOM     26  C   UNL     1      10.858 -10.697  30.191  0.00  0.00    +0.277 C 
ENDBRANCH  16   5
ENDBRANCH  13  15
ENDBRANCH   6  13
TORSDOF 7
ENDMDL
MODEL 2
REMARK VINA RESULT:      -2.5     15.269     17.404
REMARK  Name = 26744586
REMARK  8 active torsions:
REMARK  status: ('A' for Active; 'I' for Inactive)
REMARK    1  A    between atoms: O_3  and  C_11
REMARK    2  A    between atoms: O_5  and  C_16
REMARK    3  A    between atoms: O_5  and  C_26
REMARK    4  A    between atoms: N_6  and  C_13
REMARK    5  A    between atoms: C_9  and  C_14
REMARK    6  A    between atoms: C_13  and  C_15
REMARK    7  A    between atoms: C_17  and  C_19
REMARK    8  A    between atoms: C_19  and  C_23
REMARK                            x       y       z     vdW  Elec       q    Type
REMARK                         _______ _______ _______ _____ _____    ______ ____
ROOT
ATOM      6  N   UNL     1      -3.085  -0.045  23.561  0.00  0.00    -0.284 NA
ATOM      9  C   UNL     1      -2.061   0.099  24.616  0.00  0.00    +0.149 C 
ATOM     10  C   UNL     1      -2.124  -1.220  25.408  0.00  0.00    +0.061 C 
ATOM     11  C   UNL     1      -3.243  -2.020  24.754  0.00  0.00    +0.130 C 
ATOM     12  C   UNL     1      -4.097  -0.957  24.088  0.00  0.00    +0.116 C 
ENDROOT
BRANCH   9  14
ATOM      4  O   UNL     1      -0.053   1.489  24.525  0.00  0.00    -0.336 OA
ATOM      7  N   UNL     1       0.006  -0.293  23.170  0.00  0.00    -0.194 NA
ATOM      8  N   UNL     1       1.184   1.539  23.869  0.00  0.00    -0.061 NA
ATOM     14  C   UNL     1      -0.683   0.381  24.056  0.00  0.00    +0.245 A 
ATOM     17  C   UNL     1       1.144   0.456  23.088  0.00  0.00    +0.176 A 
BRANCH  17  19
ATOM     19  C   UNL     1       2.253   0.097  22.199  0.00  0.00    +0.116 C 
BRANCH  19  23
ATOM      1 CL   UNL     1       4.312   2.404  22.363  0.00  0.00    -0.083 Cl
ATOM      2  F   UNL     1       7.135  -0.981  24.841  0.00  0.00    -0.205 F 
ATOM     23  C   UNL     1       3.580  -0.163  22.905  0.00  0.00    -0.021 A 
ATOM     24  C   UNL     1       4.555   0.827  23.019  0.00  0.00    +0.047 A 
ATOM     25  C   UNL     1       3.806  -1.430  23.445  0.00  0.00    +0.008 A 
ATOM     27  C   UNL     1       5.756   0.551  23.672  0.00  0.00    +0.058 A 
ATOM     28  C   UNL     1       5.006  -1.706  24.097  0.00  0.00    +0.039 A 
ATOM     29  C   UNL     1       5.982  -0.715  24.212  0.00  0.00    +0.125 A 
ENDBRANCH  19  23
ENDBRANCH  17  19
ENDBRANCH   9  14
BRANCH  11   3
ATOM      3  O   UNL     1      -3.972  -2.750  25.723  0.00  0.00    -0.390 OA
ATOM     30  H   UNL     1      -3.448  -2.752  26.541  0.00  0.00    +0.210 HD
ENDBRANCH  11   3
BRANCH   6  13
ATOM     13  C   UNL     1      -3.660   1.227  23.141  0.00  0.00    +0.124 C 
BRANCH  13  15
ATOM     15  C   UNL     1      -4.284   1.967  24.294  0.00  0.00    +0.008 A 
ATOM     16  C   UNL     1      -3.655   3.079  24.853  0.00  0.00    +0.124 A 
ATOM     18  C   UNL     1      -5.507   1.527  24.803  0.00  0.00    +0.008 A 
ATOM     20  C   UNL     1      -4.249   3.752  25.922  0.00  0.00    +0.046 A 
ATOM     21  C   UNL     1      -6.100   2.200  25.872  0.00  0.00    +0.001 A 
ATOM     22  C   UNL     1      -5.470   3.313  26.431  0.00  0.00    +0.004 A 
BRANCH  16   5
ATOM      5  O   UNL     1      -2.462   3.522  24.369  0.00  0.00    -0.495 OA
ATOM     26  C   UNL     1      -1.740   4.451  25.174  0.00  0.00    +0.277 C 
ENDBRANCH  16   5
ENDBRANCH  13  15
ENDBRANCH   6  13
TORSDOF 7
ENDMDL
MODEL 3
REMARK VINA RESULT:      -2.5     14.939     16.991
REMARK  Name = 26744586
REMARK  8 active torsions:
REMARK  status: ('A' for Active; 'I' for Inactive)
REMARK    1  A    between atoms: O_3  and  C_11
REMARK    2  A    between atoms: O_5  and  C_16
REMARK    3  A    between atoms: O_5  and  C_26
REMARK    4  A    between atoms: N_6  and  C_13
REMARK    5  A    between atoms: C_9  and  C_14
REMARK    6  A    between atoms: C_13  and  C_15
REMARK    7  A    between atoms: C_17  and  C_19
REMARK    8  A    between atoms: C_19  and  C_23
REMARK                            x       y       z     vdW  Elec       q    Type
REMARK                         _______ _______ _______ _____ _____    ______ ____
ROOT
ATOM      6  N   UNL     1      -3.152   1.901  24.860  0.00  0.00    -0.284 NA
ATOM      9  C   UNL     1      -2.165   2.765  24.181  0.00  0.00    +0.149 C 
ATOM     10  C   UNL     1      -2.015   3.991  25.100  0.00  0.00    +0.061 C 
ATOM     11  C   UNL     1      -2.990   3.747  26.244  0.00  0.00    +0.130 C 
ATOM     12  C   UNL     1      -4.004   2.788  25.649  0.00  0.00    +0.116 C 
ENDROOT
BRANCH   9  14
ATOM      4  O   UNL     1       0.165   2.339  24.785  0.00  0.00    -0.336 OA
ATOM      7  N   UNL     1      -0.535   1.205  22.985  0.00  0.00    -0.194 NA
ATOM      8  N   UNL     1       1.261   1.582  24.351  0.00  0.00    -0.061 NA
ATOM     14  C   UNL     1      -0.849   2.059  23.926  0.00  0.00    +0.245 A 
ATOM     17  C   UNL     1       0.769   0.941  23.286  0.00  0.00    +0.176 A 
BRANCH  17  19
ATOM     19  C   UNL     1       1.583   0.014  22.493  0.00  0.00    +0.116 C 
BRANCH  19  23
ATOM      1 CL   UNL     1       3.600   2.350  22.240  0.00  0.00    -0.083 Cl
ATOM      2  F   UNL     1       6.816  -0.868  24.445  0.00  0.00    -0.205 F 
ATOM     23  C   UNL     1       3.003  -0.194  23.011  0.00  0.00    -0.021 A 
ATOM     24  C   UNL     1       3.965   0.812  22.931  0.00  0.00    +0.047 A 
ATOM     25  C   UNL     1       3.329  -1.428  23.574  0.00  0.00    +0.008 A 
ATOM     27  C   UNL     1       5.253   0.584  23.415  0.00  0.00    +0.058 A 
ATOM     28  C   UNL     1       4.616  -1.656  24.057  0.00  0.00    +0.039 A 
ATOM     29  C   UNL     1       5.579  -0.650  23.979  0.00  0.00    +0.125 A 
ENDBRANCH  19  23
ENDBRANCH  17  19
ENDBRANCH   9  14
BRANCH  11   3
ATOM      3  O   UNL     1      -3.592   4.958  26.659  0.00  0.00    -0.390 OA
ATOM     30  H   UNL     1      -3.590   5.561  25.896  0.00  0.00    +0.210 HD
ENDBRANCH  11   3
BRANCH   6  13
ATOM     13  C   UNL     1      -3.923   1.076  23.939  0.00  0.00    +0.124 C 
BRANCH  13  15
ATOM     15  C   UNL     1      -3.748  -0.393  24.222  0.00  0.00    +0.008 A 
ATOM     16  C   UNL     1      -2.802  -0.833  25.148  0.00  0.00    +0.124 A 
ATOM     18  C   UNL     1      -4.544  -1.317  23.544  0.00  0.00    +0.008 A 
ATOM     20  C   UNL     1      -2.652  -2.197  25.396  0.00  0.00    +0.046 A 
ATOM     21  C   UNL     1      -4.394  -2.682  23.793  0.00  0.00    +0.001 A 
ATOM     22  C   UNL     1      -3.448  -3.121  24.720  0.00  0.00    +0.004 A 
BRANCH  16   5
ATOM      5  O   UNL     1      -2.016   0.056  25.818  0.00  0.00    -0.495 OA
ATOM     26  C   UNL     1      -0.859  -0.465  26.467  0.00  0.00    +0.277 C 
ENDBRANCH  16   5
ENDBRANCH  13  15
ENDBRANCH   6  13
TORSDOF 7
ENDMDL
MODEL 4
REMARK VINA RESULT:      -2.0     15.300     17.418
REMARK  Name = 26744586
REMARK  8 active torsions:
REMARK  status: ('A' for Active; 'I' for Inactive)
REMARK    1  A    between atoms: O_3  and  C_11
REMARK    2  A    between atoms: O_5  and  C_16
REMARK    3  A    between atoms: O_5  and  C_26
REMARK    4  A    between atoms: N_6  and  C_13
REMARK    5  A    between atoms: C_9  and  C_14
REMARK    6  A    between atoms: C_13  and  C_15
REMARK    7  A    between atoms: C_17  and  C_19
REMARK    8  A    between atoms: C_19  and  C_23
REMARK                            x       y       z     vdW  Elec       q    Type
REMARK                         _______ _______ _______ _____ _____    ______ ____
ROOT
ATOM      6  N   UNL     1      -3.096   0.182  23.780  0.00  0.00    -0.284 NA
ATOM      9  C   UNL     1      -2.030   0.352  24.789  0.00  0.00    +0.149 C 
ATOM     10  C   UNL     1      -2.113  -0.910  25.666  0.00  0.00    +0.061 C 
ATOM     11  C   UNL     1      -3.283  -1.706  25.103  0.00  0.00    +0.130 C 
ATOM     12  C   UNL     1      -4.121  -0.655  24.399  0.00  0.00    +0.116 C 
ENDROOT
BRANCH   9  14
ATOM      4  O   UNL     1       0.020   1.659  24.535  0.00  0.00    -0.336 OA
ATOM      7  N   UNL     1      -0.028  -0.214  23.308  0.00  0.00    -0.194 NA
ATOM      8  N   UNL     1       1.235   1.619  23.838  0.00  0.00    -0.061 NA
ATOM     14  C   UNL     1      -0.663   0.545  24.166  0.00  0.00    +0.245 A 
ATOM     17  C   UNL     1       1.130   0.486  23.136  0.00  0.00    +0.176 A 
BRANCH  17  19
ATOM     19  C   UNL     1       2.195   0.026  22.239  0.00  0.00    +0.116 C 
BRANCH  19  23
ATOM      1 CL   UNL     1       4.236   2.355  22.317  0.00  0.00    -0.083 Cl
ATOM      2  F   UNL     1       7.153  -0.966  24.770  0.00  0.00    -0.205 F 
ATOM     23  C   UNL     1       3.542  -0.211  22.915  0.00  0.00    -0.021 A 
ATOM     24  C   UNL     1       4.510   0.790  22.989  0.00  0.00    +0.047 A 
ATOM     25  C   UNL     1       3.794  -1.467  23.467  0.00  0.00    +0.008 A 
ATOM     27  C   UNL     1       5.730   0.534  23.615  0.00  0.00    +0.058 A 
ATOM     28  C   UNL     1       5.013  -1.723  24.093  0.00  0.00    +0.039 A 
ATOM     29  C   UNL     1       5.982  -0.721  24.168  0.00  0.00    +0.125 A 
ENDBRANCH  19  23
ENDBRANCH  17  19
ENDBRANCH   9  14
BRANCH  11   3
ATOM      3  O   UNL     1      -4.003  -2.345  26.140  0.00  0.00    -0.390 OA
ATOM     30  H   UNL     1      -3.366  -2.860  26.662  0.00  0.00    +0.210 HD
ENDBRANCH  11   3
BRANCH   6  13
ATOM     13  C   UNL     1      -3.638   1.447  23.298  0.00  0.00    +0.124 C 
BRANCH  13  15
ATOM     15  C   UNL     1      -3.545   2.529  24.341  0.00  0.00    +0.008 A 
ATOM     16  C   UNL     1      -4.629   2.816  25.170  0.00  0.00    +0.124 A 
ATOM     18  C   UNL     1      -2.357   3.248  24.472  0.00  0.00    +0.008 A 
ATOM     20  C   UNL     1      -4.525   3.822  26.131  0.00  0.00    +0.046 A 
ATOM     21  C   UNL     1      -2.252   4.255  25.433  0.00  0.00    +0.001 A 
ATOM     22  C   UNL     1      -3.337   4.541  26.262  0.00  0.00    +0.004 A 
BRANCH  16   5
ATOM      5  O   UNL     1      -5.797   2.123  25.056  0.00  0.00    -0.495 OA
ATOM     26  C   UNL     1      -6.403   1.672  26.265  0.00  0.00    +0.277 C 
ENDBRANCH  16   5
ENDBRANCH  13  15
ENDBRANCH   6  13
TORSDOF 7
ENDMDL
MODEL 5
REMARK VINA RESULT:      -1.8     16.988     19.346
REMARK  Name = 26744586
REMARK  8 active torsions:
REMARK  status: ('A' for Active; 'I' for Inactive)
REMARK    1  A    between atoms: O_3  and  C_11
REMARK    2  A    between atoms: O_5  and  C_16
REMARK    3  A    between atoms: O_5  and  C_26
REMARK    4  A    between atoms: N_6  and  C_13
REMARK    5  A    between atoms: C_9  and  C_14
REMARK    6  A    between atoms: C_13  and  C_15
REMARK    7  A    between atoms: C_17  and  C_19
REMARK    8  A    between atoms: C_19  and  C_23
REMARK                            x       y       z     vdW  Elec       q    Type
REMARK                         _______ _______ _______ _____ _____    ______ ____
ROOT
ATOM      6  N   UNL     1      -3.753  -0.907  24.444  0.00  0.00    -0.284 NA
ATOM      9  C   UNL     1      -2.499  -1.531  24.912  0.00  0.00    +0.149 C 
ATOM     10  C   UNL     1      -2.517  -2.949  24.313  0.00  0.00    +0.061 C 
ATOM     11  C   UNL     1      -3.840  -3.045  23.564  0.00  0.00    +0.130 C 
ATOM     12  C   UNL     1      -4.706  -1.996  24.239  0.00  0.00    +0.116 C 
ENDROOT
BRANCH   9  14
ATOM      4  O   UNL     1      -0.303  -1.422  23.845  0.00  0.00    -0.336 OA
ATOM      7  N   UNL     1      -0.992   0.521  24.719  0.00  0.00    -0.194 NA
ATOM      8  N   UNL     1       0.718  -0.496  23.589  0.00  0.00    -0.061 NA
ATOM     14  C   UNL     1      -1.270  -0.742  24.512  0.00  0.00    +0.245 A 
ATOM     17  C   UNL     1       0.236   0.625  24.135  0.00  0.00    +0.176 A 
BRANCH  17  19
ATOM     19  C   UNL     1       0.985   1.885  24.108  0.00  0.00    +0.116 C 
BRANCH  19  23
ATOM      1 CL   UNL     1      -0.237   2.105  26.945  0.00  0.00    -0.083 Cl
ATOM      2  F   UNL     1      -2.040   6.520  25.266  0.00  0.00    -0.205 F 
ATOM     23  C   UNL     1       0.163   3.124  24.450  0.00  0.00    -0.021 A 
ATOM     24  C   UNL     1      -0.417   3.293  25.707  0.00  0.00    +0.047 A 
ATOM     25  C   UNL     1      -0.001   4.102  23.469  0.00  0.00    +0.008 A 
ATOM     27  C   UNL     1      -1.162   4.440  25.982  0.00  0.00    +0.058 A 
ATOM     28  C   UNL     1      -0.745   5.248  23.744  0.00  0.00    +0.039 A 
ATOM     29  C   UNL     1      -1.326   5.418  25.001  0.00  0.00    +0.125 A 
ENDBRANCH  19  23
ENDBRANCH  17  19
ENDBRANCH   9  14
BRANCH  11   3
ATOM      3  O   UNL     1      -4.394  -4.341  23.685  0.00  0.00    -0.390 OA
ATOM     30  H   UNL     1      -4.825  -4.394  24.554  0.00  0.00    +0.210 HD
ENDBRANCH  11   3
BRANCH   6  13
ATOM     13  C   UNL     1      -4.267   0.105  25.359  0.00  0.00    +0.124 C 
BRANCH  13  15
ATOM     15  C   UNL     1      -4.220   1.482  24.754  0.00  0.00    +0.008 A 
ATOM     16  C   UNL     1      -4.802   2.569  25.406  0.00  0.00    +0.124 A 
ATOM     18  C   UNL     1      -3.585   1.665  23.525  0.00  0.00    +0.008 A 
ATOM     20  C   UNL     1      -4.749   3.838  24.830  0.00  0.00    +0.046 A 
ATOM     21  C   UNL     1      -3.532   2.935  22.948  0.00  0.00    +0.001 A 
ATOM     22  C   UNL     1      -4.115   4.021  23.602  0.00  0.00    +0.004 A 
BRANCH  16   5
ATOM      5  O   UNL     1      -5.426   2.409  26.607  0.00  0.00    -0.495 OA
ATOM     26  C   UNL     1      -6.729   1.829  26.587  0.00  0.00    +0.277 C 
ENDBRANCH  16   5
ENDBRANCH  13  15
ENDBRANCH   6  13
TORSDOF 7
ENDMDL
MODEL 6
REMARK VINA RESULT:      -1.3     14.851     16.856
REMARK  Name = 26744586
REMARK  8 active torsions:
REMARK  status: ('A' for Active; 'I' for Inactive)
REMARK    1  A    between atoms: O_3  and  C_11
REMARK    2  A    between atoms: O_5  and  C_16
REMARK    3  A    between atoms: O_5  and  C_26
REMARK    4  A    between atoms: N_6  and  C_13
REMARK    5  A    between atoms: C_9  and  C_14
REMARK    6  A    between atoms: C_13  and  C_15
REMARK    7  A    between atoms: C_17  and  C_19
REMARK    8  A    between atoms: C_19  and  C_23
REMARK                            x       y       z     vdW  Elec       q    Type
REMARK                         _______ _______ _______ _____ _____    ______ ____
ROOT
ATOM      6  N   UNL     1      -2.899   1.946  25.511  0.00  0.00    -0.284 NA
ATOM      9  C   UNL     1      -2.282   2.551  24.313  0.00  0.00    +0.149 C 
ATOM     10  C   UNL     1      -2.208   4.057  24.625  0.00  0.00    +0.061 C 
ATOM     11  C   UNL     1      -2.849   4.207  25.998  0.00  0.00    +0.130 C 
ATOM     12  C   UNL     1      -3.738   2.982  26.111  0.00  0.00    +0.116 C 
ENDROOT
BRANCH   9  14
ATOM      4  O   UNL     1       0.104   2.318  24.793  0.00  0.00    -0.336 OA
ATOM      7  N   UNL     1      -0.597   1.122  23.033  0.00  0.00    -0.194 NA
ATOM      8  N   UNL     1       1.233   1.649  24.302  0.00  0.00    -0.061 NA
ATOM     14  C   UNL     1      -0.929   1.953  23.989  0.00  0.00    +0.245 A 
ATOM     17  C   UNL     1       0.739   0.966  23.264  0.00  0.00    +0.176 A 
BRANCH  17  19
ATOM     19  C   UNL     1       1.581   0.104  22.430  0.00  0.00    +0.116 C 
BRANCH  19  23
ATOM      1 CL   UNL     1       3.674   2.380  22.247  0.00  0.00    -0.083 Cl
ATOM      2  F   UNL     1       6.733  -0.951  24.509  0.00  0.00    -0.205 F 
ATOM     23  C   UNL     1       2.980  -0.151  22.982  0.00  0.00    -0.021 A 
ATOM     24  C   UNL     1       3.975   0.826  22.935  0.00  0.00    +0.047 A 
ATOM     25  C   UNL     1       3.254  -1.398  23.544  0.00  0.00    +0.008 A 
ATOM     27  C   UNL     1       5.242   0.556  23.451  0.00  0.00    +0.058 A 
ATOM     28  C   UNL     1       4.521  -1.668  24.059  0.00  0.00    +0.039 A 
ATOM     29  C   UNL     1       5.515  -0.691  24.013  0.00  0.00    +0.125 A 
ENDBRANCH  19  23
ENDBRANCH  17  19
ENDBRANCH   9  14
BRANCH  11   3
ATOM      3  O   UNL     1      -3.595   5.406  26.077  0.00  0.00    -0.390 OA
ATOM     30  H   UNL     1      -3.895   5.623  25.178  0.00  0.00    +0.210 HD
ENDBRANCH  11   3
BRANCH   6  13
ATOM     13  C   UNL     1      -3.653   0.733  25.218  0.00  0.00    +0.124 C 
BRANCH  13  15
ATOM     15  C   UNL     1      -2.757  -0.474  25.131  0.00  0.00    +0.008 A 
ATOM     16  C   UNL     1      -3.122  -1.579  24.362  0.00  0.00    +0.124 A 
ATOM     18  C   UNL     1      -1.551  -0.480  25.832  0.00  0.00    +0.008 A 
ATOM     20  C   UNL     1      -2.280  -2.689  24.293  0.00  0.00    +0.046 A 
ATOM     21  C   UNL     1      -0.709  -1.590  25.763  0.00  0.00    +0.001 A 
ATOM     22  C   UNL     1      -1.074  -2.695  24.993  0.00  0.00    +0.004 A 
BRANCH  16   5
ATOM      5  O   UNL     1      -4.296  -1.591  23.671  0.00  0.00    -0.495 OA
ATOM     26  C   UNL     1      -4.884  -2.864  23.415  0.00  0.00    +0.277 C 
ENDBRANCH  16   5
ENDBRANCH  13  15
ENDBRANCH   6  13
TORSDOF 7
ENDMDL
MODEL 7
REMARK VINA RESULT:      -1.3     15.378     17.577
REMARK  Name = 26744586
REMARK  8 active torsions:
REMARK  status: ('A' for Active; 'I' for Inactive)
REMARK    1  A    between atoms: O_3  and  C_11
REMARK    2  A    between atoms: O_5  and  C_16
REMARK    3  A    between atoms: O_5  and  C_26
REMARK    4  A    between atoms: N_6  and  C_13
REMARK    5  A    between atoms: C_9  and  C_14
REMARK    6  A    between atoms: C_13  and  C_15
REMARK    7  A    between atoms: C_17  and  C_19
REMARK    8  A    between atoms: C_19  and  C_23
REMARK                            x       y       z     vdW  Elec       q    Type
REMARK                         _______ _______ _______ _____ _____    ______ ____
ROOT
ATOM      6  N   UNL     1      -3.383  -0.672  24.490  0.00  0.00    -0.284 NA
ATOM      9  C   UNL     1      -2.110  -1.163  25.054  0.00  0.00    +0.149 C 
ATOM     10  C   UNL     1      -2.135  -2.685  24.819  0.00  0.00    +0.061 C 
ATOM     11  C   UNL     1      -3.482  -2.959  24.161  0.00  0.00    +0.130 C 
ATOM     12  C   UNL     1      -4.333  -1.778  24.588  0.00  0.00    +0.116 C 
ENDROOT
BRANCH   9  14
ATOM      4  O   UNL     1      -0.548   0.714  24.942  0.00  0.00    -0.336 OA
ATOM      7  N   UNL     1      -0.131  -0.913  23.460  0.00  0.00    -0.194 NA
ATOM      8  N   UNL     1       0.578   1.126  24.218  0.00  0.00    -0.061 NA
ATOM     14  C   UNL     1      -0.901  -0.495  24.433  0.00  0.00    +0.245 A 
ATOM     17  C   UNL     1       0.761   0.115  23.363  0.00  0.00    +0.176 A 
BRANCH  17  19
ATOM     19  C   UNL     1       1.853   0.113  22.384  0.00  0.00    +0.116 C 
BRANCH  19  23
ATOM      1 CL   UNL     1       3.909   2.428  22.344  0.00  0.00    -0.083 Cl
ATOM      2  F   UNL     1       6.955  -0.924  24.591  0.00  0.00    -0.205 F 
ATOM     23  C   UNL     1       3.238  -0.137  22.972  0.00  0.00    -0.021 A 
ATOM     24  C   UNL     1       4.216   0.858  22.989  0.00  0.00    +0.047 A 
ATOM     25  C   UNL     1       3.517  -1.397  23.501  0.00  0.00    +0.008 A 
ATOM     27  C   UNL     1       5.472   0.591  23.536  0.00  0.00    +0.058 A 
ATOM     28  C   UNL     1       4.771  -1.663  24.047  0.00  0.00    +0.039 A 
ATOM     29  C   UNL     1       5.749  -0.669  24.065  0.00  0.00    +0.125 A 
ENDBRANCH  19  23
ENDBRANCH  17  19
ENDBRANCH   9  14
BRANCH  11   3
ATOM      3  O   UNL     1      -4.021  -4.187  24.611  0.00  0.00    -0.390 OA
ATOM     30  H   UNL     1      -4.988  -4.121  24.549  0.00  0.00    +0.210 HD
ENDBRANCH  11   3
BRANCH   6  13
ATOM     13  C   UNL     1      -3.876   0.532  25.148  0.00  0.00    +0.124 C 
BRANCH  13  15
ATOM     15  C   UNL     1      -3.807   1.733  24.242  0.00  0.00    +0.008 A 
ATOM     16  C   UNL     1      -4.435   2.928  24.592  0.00  0.00    +0.124 A 
ATOM     18  C   UNL     1      -3.104   1.640  23.040  0.00  0.00    +0.008 A 
ATOM     20  C   UNL     1      -4.361   4.030  23.740  0.00  0.00    +0.046 A 
ATOM     21  C   UNL     1      -3.030   2.742  22.188  0.00  0.00    +0.001 A 
ATOM     22  C   UNL     1      -3.659   3.937  22.539  0.00  0.00    +0.004 A 
BRANCH  16   5
ATOM      5  O   UNL     1      -5.126   3.036  25.761  0.00  0.00    -0.495 OA
ATOM     26  C   UNL     1      -5.987   4.163  25.902  0.00  0.00    +0.277 C 
ENDBRANCH  16   5
ENDBRANCH  13  15
ENDBRANCH   6  13
TORSDOF 7
ENDMDL
MODEL 8
REMARK VINA RESULT:      -1.1     15.510     17.723
REMARK  Name = 26744586
REMARK  8 active torsions:
REMARK  status: ('A' for Active; 'I' for Inactive)
REMARK    1  A    between atoms: O_3  and  C_11
REMARK    2  A    between atoms: O_5  and  C_16
REMARK    3  A    between atoms: O_5  and  C_26
REMARK    4  A    between atoms: N_6  and  C_13
REMARK    5  A    between atoms: C_9  and  C_14
REMARK    6  A    between atoms: C_13  and  C_15
REMARK    7  A    between atoms: C_17  and  C_19
REMARK    8  A    between atoms: C_19  and  C_23
REMARK                            x       y       z     vdW  Elec       q    Type
REMARK                         _______ _______ _______ _____ _____    ______ ____
ROOT
ATOM      6  N   UNL     1      -3.765   0.252  24.493  0.00  0.00    -0.284 NA
ATOM      9  C   UNL     1      -2.606  -0.196  25.292  0.00  0.00    +0.149 C 
ATOM     10  C   UNL     1      -2.485  -1.703  25.001  0.00  0.00    +0.061 C 
ATOM     11  C   UNL     1      -3.646  -2.018  24.067  0.00  0.00    +0.130 C 
ATOM     12  C   UNL     1      -4.641  -0.908  24.350  0.00  0.00    +0.116 C 
ENDROOT
BRANCH   9  14
ATOM      4  O   UNL     1      -0.827   1.346  25.950  0.00  0.00    -0.336 OA
ATOM      7  N   UNL     1      -0.654   0.593  23.848  0.00  0.00    -0.194 NA
ATOM      8  N   UNL     1       0.322   1.944  25.415  0.00  0.00    -0.061 NA
ATOM     14  C   UNL     1      -1.340   0.567  24.963  0.00  0.00    +0.245 A 
ATOM     17  C   UNL     1       0.356   1.451  24.174  0.00  0.00    +0.176 A 
BRANCH  17  19
ATOM     19  C   UNL     1       1.413   1.811  23.223  0.00  0.00    +0.116 C 
BRANCH  19  23
ATOM      1 CL   UNL     1       1.037  -1.257  23.412  0.00  0.00    -0.083 Cl
ATOM      2  F   UNL     1       6.092  -1.356  23.450  0.00  0.00    -0.205 F 
ATOM     23  C   UNL     1       2.657   0.930  23.286  0.00  0.00    -0.021 A 
ATOM     24  C   UNL     1       2.566  -0.459  23.372  0.00  0.00    +0.047 A 
ATOM     25  C   UNL     1       3.908   1.547  23.257  0.00  0.00    +0.008 A 
ATOM     27  C   UNL     1       3.727  -1.231  23.428  0.00  0.00    +0.058 A 
ATOM     28  C   UNL     1       5.067   0.775  23.313  0.00  0.00    +0.039 A 
ATOM     29  C   UNL     1       4.977  -0.614  23.398  0.00  0.00    +0.125 A 
ENDBRANCH  19  23
ENDBRANCH  17  19
ENDBRANCH   9  14
BRANCH  11   3
ATOM      3  O   UNL     1      -4.187  -3.295  24.349  0.00  0.00    -0.390 OA
ATOM     30  H   UNL     1      -3.452  -3.930  24.348  0.00  0.00    +0.210 HD
ENDBRANCH  11   3
BRANCH   6  13
ATOM     13  C   UNL     1      -4.458   1.393  25.077  0.00  0.00    +0.124 C 
BRANCH  13  15
ATOM     15  C   UNL     1      -3.605   2.633  25.064  0.00  0.00    +0.008 A 
ATOM     16  C   UNL     1      -3.191   3.202  23.859  0.00  0.00    +0.124 A 
ATOM     18  C   UNL     1      -3.226   3.214  26.275  0.00  0.00    +0.008 A 
ATOM     20  C   UNL     1      -2.400   4.351  23.866  0.00  0.00    +0.046 A 
ATOM     21  C   UNL     1      -2.435   4.363  26.282  0.00  0.00    +0.001 A 
ATOM     22  C   UNL     1      -2.022   4.931  25.076  0.00  0.00    +0.004 A 
BRANCH  16   5
ATOM      5  O   UNL     1      -3.551   2.649  22.667  0.00  0.00    -0.495 OA
ATOM     26  C   UNL     1      -2.498   2.200  21.818  0.00  0.00    +0.277 C 
ENDBRANCH  16   5
ENDBRANCH  13  15
ENDBRANCH   6  13
TORSDOF 7
ENDMDL
MODEL 9
REMARK VINA RESULT:      -1.0     16.913     19.253
REMARK  Name = 26744586
REMARK  8 active torsions:
REMARK  status: ('A' for Active; 'I' for Inactive)
REMARK    1  A    between atoms: O_3  and  C_11
REMARK    2  A    between atoms: O_5  and  C_16
REMARK    3  A    between atoms: O_5  and  C_26
REMARK    4  A    between atoms: N_6  and  C_13
REMARK    5  A    between atoms: C_9  and  C_14
REMARK    6  A    between atoms: C_13  and  C_15
REMARK    7  A    between atoms: C_17  and  C_19
REMARK    8  A    between atoms: C_19  and  C_23
REMARK                            x       y       z     vdW  Elec       q    Type
REMARK                         _______ _______ _______ _____ _____    ______ ____
ROOT
ATOM      6  N   UNL     1      -3.882  -0.774  24.561  0.00  0.00    -0.284 NA
ATOM      9  C   UNL     1      -2.679  -1.568  24.885  0.00  0.00    +0.149 C 
ATOM     10  C   UNL     1      -2.829  -2.863  24.068  0.00  0.00    +0.061 C 
ATOM     11  C   UNL     1      -4.168  -2.727  23.354  0.00  0.00    +0.130 C 
ATOM     12  C   UNL     1      -4.928  -1.733  24.213  0.00  0.00    +0.116 C 
ENDROOT
BRANCH   9  14
ATOM      4  O   UNL     1      -0.383  -1.563  24.045  0.00  0.00    -0.336 OA
ATOM      7  N   UNL     1      -1.101   0.436  24.758  0.00  0.00    -0.194 NA
ATOM      8  N   UNL     1       0.684  -0.675  23.855  0.00  0.00    -0.061 NA
ATOM     14  C   UNL     1      -1.393  -0.828  24.579  0.00  0.00    +0.245 A 
ATOM     17  C   UNL     1       0.184   0.481  24.299  0.00  0.00    +0.176 A 
BRANCH  17  19
ATOM     19  C   UNL     1       0.968   1.721  24.294  0.00  0.00    +0.116 C 
BRANCH  19  23
ATOM      1 CL   UNL     1      -0.234   2.126  27.119  0.00  0.00    -0.083 Cl
ATOM      2  F   UNL     1      -1.995   6.453  25.186  0.00  0.00    -0.205 F 
ATOM     23  C   UNL     1       0.163   2.988  24.565  0.00  0.00    -0.021 A 
ATOM     24  C   UNL     1      -0.408   3.239  25.813  0.00  0.00    +0.047 A 
ATOM     25  C   UNL     1       0.004   3.906  23.527  0.00  0.00    +0.008 A 
ATOM     27  C   UNL     1      -1.137   4.410  26.022  0.00  0.00    +0.058 A 
ATOM     28  C   UNL     1      -0.725   5.076  23.736  0.00  0.00    +0.039 A 
ATOM     29  C   UNL     1      -1.296   5.328  24.984  0.00  0.00    +0.125 A 
ENDBRANCH  19  23
ENDBRANCH  17  19
ENDBRANCH   9  14
BRANCH  11   3
ATOM      3  O   UNL     1      -4.830  -3.975  23.283  0.00  0.00    -0.390 OA
ATOM     30  H   UNL     1      -5.595  -3.866  22.693  0.00  0.00    +0.210 HD
ENDBRANCH  11   3
BRANCH   6  13
ATOM     13  C   UNL     1      -4.291   0.115  25.641  0.00  0.00    +0.124 C 
BRANCH  13  15
ATOM     15  C   UNL     1      -4.411   1.542  25.176  0.00  0.00    +0.008 A 
ATOM     16  C   UNL     1      -3.890   1.937  23.944  0.00  0.00    +0.124 A 
ATOM     18  C   UNL     1      -5.053   2.474  25.993  0.00  0.00    +0.008 A 
ATOM     20  C   UNL     1      -4.010   3.264  23.529  0.00  0.00    +0.046 A 
ATOM     21  C   UNL     1      -5.173   3.800  25.578  0.00  0.00    +0.001 A 
ATOM     22  C   UNL     1      -4.651   4.195  24.346  0.00  0.00    +0.004 A 
BRANCH  16   5
ATOM      5  O   UNL     1      -3.260   1.041  23.134  0.00  0.00    -0.495 OA
ATOM     26  C   UNL     1      -2.516   1.570  22.039  0.00  0.00    +0.277 C 
ENDBRANCH  16   5
ENDBRANCH  13  15
ENDBRANCH   6  13
TORSDOF 7
ENDMDL
MODEL 10
REMARK VINA RESULT:      -0.6     16.298     18.310
REMARK  Name = 26744586
REMARK  8 active torsions:
REMARK  status: ('A' for Active; 'I' for Inactive)
REMARK    1  A    between atoms: O_3  and  C_11
REMARK    2  A    between atoms: O_5  and  C_16
REMARK    3  A    between atoms: O_5  and  C_26
REMARK    4  A    between atoms: N_6  and  C_13
REMARK    5  A    between atoms: C_9  and  C_14
REMARK    6  A    between atoms: C_13  and  C_15
REMARK    7  A    between atoms: C_17  and  C_19
REMARK    8  A    between atoms: C_19  and  C_23
REMARK                            x       y       z     vdW  Elec       q    Type
REMARK                         _______ _______ _______ _____ _____    ______ ____
ROOT
ATOM      6  N   UNL     1      -4.449   1.855  25.224  0.00  0.00    -0.284 NA
ATOM      9  C   UNL     1      -3.691   2.934  24.558  0.00  0.00    +0.149 C 
ATOM     10  C   UNL     1      -4.326   4.238  25.073  0.00  0.00    +0.061 C 
ATOM     11  C   UNL     1      -5.461   3.792  25.985  0.00  0.00    +0.130 C 
ATOM     12  C   UNL     1      -5.782   2.392  25.493  0.00  0.00    +0.116 C 
ENDROOT
BRANCH   9  14
ATOM      4  O   UNL     1      -1.766   3.461  25.970  0.00  0.00    -0.336 OA
ATOM      7  N   UNL     1      -1.258   2.289  24.130  0.00  0.00    -0.194 NA
ATOM      8  N   UNL     1      -0.380   3.261  26.006  0.00  0.00    -0.061 NA
ATOM     14  C   UNL     1      -2.204   2.857  24.834  0.00  0.00    +0.245 A 
ATOM     17  C   UNL     1      -0.157   2.564  24.888  0.00  0.00    +0.176 A 
BRANCH  17  19
ATOM     19  C   UNL     1       1.187   2.123  24.502  0.00  0.00    +0.116 C 
BRANCH  19  23
ATOM      1 CL   UNL     1       3.873   1.559  23.067  0.00  0.00    -0.083 Cl
ATOM      2  F   UNL     1       1.197  -1.895  20.523  0.00  0.00    -0.205 F 
ATOM     23  C   UNL     1       1.222   1.044  23.424  0.00  0.00    -0.021 A 
ATOM     24  C   UNL     1       2.395   0.735  22.735  0.00  0.00    +0.047 A 
ATOM     25  C   UNL     1       0.040   0.362  23.132  0.00  0.00    +0.008 A 
ATOM     27  C   UNL     1       2.385  -0.258  21.755  0.00  0.00    +0.058 A 
ATOM     28  C   UNL     1       0.032  -0.630  22.152  0.00  0.00    +0.039 A 
ATOM     29  C   UNL     1       1.205  -0.940  21.464  0.00  0.00    +0.125 A 
ENDBRANCH  19  23
ENDBRANCH  17  19
ENDBRANCH   9  14
BRANCH  11   3
ATOM      3  O   UNL     1      -6.573   4.658  25.866  0.00  0.00    -0.390 OA
ATOM     30  H   UNL     1      -7.235   4.209  25.315  0.00  0.00    +0.210 HD
ENDBRANCH  11   3
BRANCH   6  13
ATOM     13  C   UNL     1      -4.501   0.624  24.446  0.00  0.00    +0.124 C 
BRANCH  13  15
ATOM     15  C   UNL     1      -3.388  -0.320  24.816  0.00  0.00    +0.008 A 
ATOM     16  C   UNL     1      -3.267  -1.560  24.190  0.00  0.00    +0.124 A 
ATOM     18  C   UNL     1      -2.473   0.059  25.799  0.00  0.00    +0.008 A 
ATOM     20  C   UNL     1      -2.229  -2.422  24.546  0.00  0.00    +0.046 A 
ATOM     21  C   UNL     1      -1.435  -0.803  26.155  0.00  0.00    +0.001 A 
ATOM     22  C   UNL     1      -1.314  -2.044  25.528  0.00  0.00    +0.004 A 
BRANCH  16   5
ATOM      5  O   UNL     1      -4.152  -1.946  23.229  0.00  0.00    -0.495 OA
ATOM     26  C   UNL     1      -4.793  -3.206  23.408  0.00  0.00    +0.277 C 
ENDBRANCH  16   5
ENDBRANCH  13  15
ENDBRANCH   6  13
TORSDOF 7
ENDMDL
