MODEL 1
REMARK VINA RESULT:       3.6      0.000      0.000
REMARK  Name = 11884054
REMARK  8 active torsions:
REMARK  status: ('A' for Active; 'I' for Inactive)
REMARK    1  A    between atoms: O_6  and  C_15
REMARK    2  A    between atoms: O_6  and  C_19
REMARK    3  A    between atoms: O_9  and  C_32
REMARK    4  A    between atoms: O_9  and  C_33
REMARK    5  A    between atoms: N_10  and  C_14
REMARK    6  A    between atoms: N_11  and  C_23
REMARK    7  A    between atoms: C_18  and  C_20
REMARK    8  A    between atoms: C_26  and  C_29
REMARK                            x       y       z     vdW  Elec       q    Type
REMARK                         _______ _______ _______ _____ _____    ______ ____
ROOT
ATOM      4  O   UNL     1      -3.869   3.096  24.203  0.00  0.00    -0.368 OA
ATOM      5  O   UNL     1      -3.355   5.405  26.155  0.00  0.00    -0.368 OA
ATOM     12  C   UNL     1      -2.559   4.254  25.805  0.00  0.00    +0.173 C 
ATOM     13  C   UNL     1      -3.520   3.101  25.597  0.00  0.00    +0.192 C 
ATOM     14  C   UNL     1      -1.931   4.451  24.444  0.00  0.00    +0.130 C 
ATOM     15  C   UNL     1      -4.693   3.493  26.466  0.00  0.00    +0.235 C 
ATOM     16  C   UNL     1      -3.061   4.058  23.508  0.00  0.00    +0.185 C 
ATOM     17  C   UNL     1      -4.724   4.995  26.300  0.00  0.00    +0.207 C 
ENDROOT
BRANCH  14  10
ATOM      7  O   UNL     1      -1.870   1.915  23.100  0.00  0.00    -0.270 OA
ATOM     10  N   UNL     1      -0.783   3.596  24.270  0.00  0.00    -0.304 N 
ATOM     18  C   UNL     1      -0.851   2.381  23.603  0.00  0.00    +0.244 C 
ATOM     34  H   UNL     1       0.070   3.864  24.751  0.00  0.00    +0.149 HD
BRANCH  18  20
ATOM     20  C   UNL     1       0.414   1.606  23.531  0.00  0.00    +0.037 A 
ATOM     21  C   UNL     1       1.636   2.273  23.449  0.00  0.00    +0.013 A 
ATOM     22  C   UNL     1       0.380   0.211  23.544  0.00  0.00    +0.013 A 
ATOM     24  C   UNL     1       2.825   1.545  23.380  0.00  0.00    +0.013 A 
ATOM     25  C   UNL     1       1.568  -0.515  23.475  0.00  0.00    +0.013 A 
ATOM     26  C   UNL     1       2.791   0.151  23.393  0.00  0.00    +0.055 A 
BRANCH  26  29
ATOM      1  F   UNL     1       4.763  -0.424  22.166  0.00  0.00    -0.166 F 
ATOM      2  F   UNL     1       3.882  -1.977  23.397  0.00  0.00    -0.166 F 
ATOM      3  F   UNL     1       4.924  -0.313  24.332  0.00  0.00    -0.166 F 
ATOM     29  C   UNL     1       4.061  -0.625  23.322  0.00  0.00    +0.417 C 
ENDBRANCH  26  29
ENDBRANCH  18  20
ENDBRANCH  14  10
BRANCH  15   6
ATOM      6  O   UNL     1      -5.907   2.891  26.078  0.00  0.00    -0.442 OA
BRANCH   6  19
ATOM      8  O   UNL     1      -6.632   1.403  24.499  0.00  0.00    -0.226 OA
ATOM     11  N   UNL     1      -4.706   1.006  25.771  0.00  0.00    -0.251 N 
ATOM     19  C   UNL     1      -5.818   1.715  25.360  0.00  0.00    +0.405 C 
ATOM     35  H   UNL     1      -4.146   1.434  26.505  0.00  0.00    +0.158 HD
BRANCH  11  23
ATOM     23  C   UNL     1      -4.248  -0.244  25.298  0.00  0.00    +0.037 A 
ATOM     27  C   UNL     1      -4.466  -0.610  23.971  0.00  0.00    +0.027 A 
ATOM     28  C   UNL     1      -3.575  -1.111  26.160  0.00  0.00    +0.027 A 
ATOM     30  C   UNL     1      -4.012  -1.845  23.504  0.00  0.00    +0.047 A 
ATOM     31  C   UNL     1      -3.120  -2.345  25.693  0.00  0.00    +0.047 A 
ATOM     32  C   UNL     1      -3.339  -2.711  24.366  0.00  0.00    +0.120 A 
BRANCH  32   9
ATOM      9  O   UNL     1      -2.894  -3.913  23.909  0.00  0.00    -0.495 OA
ATOM     33  C   UNL     1      -1.696  -3.910  23.133  0.00  0.00    +0.277 C 
ENDBRANCH  32   9
ENDBRANCH  11  23
ENDBRANCH   6  19
ENDBRANCH  15   6
TORSDOF 7
ENDMDL
MODEL 2
REMARK VINA RESULT:       4.9      1.818      5.141
REMARK  Name = 11884054
REMARK  8 active torsions:
REMARK  status: ('A' for Active; 'I' for Inactive)
REMARK    1  A    between atoms: O_6  and  C_15
REMARK    2  A    between atoms: O_6  and  C_19
REMARK    3  A    between atoms: O_9  and  C_32
REMARK    4  A    between atoms: O_9  and  C_33
REMARK    5  A    between atoms: N_10  and  C_14
REMARK    6  A    between atoms: N_11  and  C_23
REMARK    7  A    between atoms: C_18  and  C_20
REMARK    8  A    between atoms: C_26  and  C_29
REMARK                            x       y       z     vdW  Elec       q    Type
REMARK                         _______ _______ _______ _____ _____    ______ ____
ROOT
ATOM      4  O   UNL     1      -3.055  -0.900  25.829  0.00  0.00    -0.368 OA
ATOM      5  O   UNL     1      -3.937  -2.966  23.740  0.00  0.00    -0.368 OA
ATOM     12  C   UNL     1      -2.764  -2.131  23.822  0.00  0.00    +0.173 C 
ATOM     13  C   UNL     1      -3.209  -0.804  24.402  0.00  0.00    +0.192 C 
ATOM     14  C   UNL     1      -1.808  -2.677  24.858  0.00  0.00    +0.130 C 
ATOM     15  C   UNL     1      -4.664  -0.743  24.000  0.00  0.00    +0.235 C 
ATOM     16  C   UNL     1      -2.389  -2.131  26.151  0.00  0.00    +0.185 C 
ATOM     17  C   UNL     1      -5.086  -2.190  24.111  0.00  0.00    +0.207 C 
ENDROOT
BRANCH  14  10
ATOM      7  O   UNL     1      -1.041  -0.413  23.268  0.00  0.00    -0.270 OA
ATOM     10  N   UNL     1      -0.467  -2.193  24.639  0.00  0.00    -0.304 N 
ATOM     18  C   UNL     1      -0.193  -1.085  23.849  0.00  0.00    +0.244 C 
ATOM     34  H   UNL     1       0.293  -2.760  24.999  0.00  0.00    +0.149 HD
BRANCH  18  20
ATOM     20  C   UNL     1       1.242  -0.730  23.701  0.00  0.00    +0.037 A 
ATOM     21  C   UNL     1       1.602   0.542  23.256  0.00  0.00    +0.013 A 
ATOM     22  C   UNL     1       2.228  -1.668  24.008  0.00  0.00    +0.013 A 
ATOM     24  C   UNL     1       2.950   0.876  23.116  0.00  0.00    +0.013 A 
ATOM     25  C   UNL     1       3.575  -1.333  23.867  0.00  0.00    +0.013 A 
ATOM     26  C   UNL     1       3.936  -0.062  23.421  0.00  0.00    +0.055 A 
BRANCH  26  29
ATOM      1  F   UNL     1       5.864   0.093  22.013  0.00  0.00    -0.166 F 
ATOM      2  F   UNL     1       6.204  -0.413  24.095  0.00  0.00    -0.166 F 
ATOM      3  F   UNL     1       5.620   1.610  23.551  0.00  0.00    -0.166 F 
ATOM     29  C   UNL     1       5.375   0.296  23.273  0.00  0.00    +0.417 C 
ENDBRANCH  26  29
ENDBRANCH  18  20
ENDBRANCH  14  10
BRANCH  15   6
ATOM      6  O   UNL     1      -5.440   0.101  24.820  0.00  0.00    -0.442 OA
BRANCH   6  19
ATOM      8  O   UNL     1      -5.852   2.343  25.009  0.00  0.00    -0.226 OA
ATOM     11  N   UNL     1      -3.673   1.504  24.834  0.00  0.00    -0.251 N 
ATOM     19  C   UNL     1      -5.051   1.423  24.898  0.00  0.00    +0.405 C 
ATOM     35  H   UNL     1      -3.175   0.622  24.743  0.00  0.00    +0.158 HD
BRANCH  11  23
ATOM     23  C   UNL     1      -2.866   2.663  24.879  0.00  0.00    +0.037 A 
ATOM     27  C   UNL     1      -3.298   3.786  25.584  0.00  0.00    +0.027 A 
ATOM     28  C   UNL     1      -1.638   2.684  24.218  0.00  0.00    +0.027 A 
ATOM     30  C   UNL     1      -2.500   4.931  25.630  0.00  0.00    +0.047 A 
ATOM     31  C   UNL     1      -0.840   3.827  24.264  0.00  0.00    +0.047 A 
ATOM     32  C   UNL     1      -1.271   4.950  24.970  0.00  0.00    +0.120 A 
BRANCH  32   9
ATOM      9  O   UNL     1      -0.493   6.065  25.016  0.00  0.00    -0.495 OA
ATOM     33  C   UNL     1       0.592   6.139  24.092  0.00  0.00    +0.277 C 
ENDBRANCH  32   9
ENDBRANCH  11  23
ENDBRANCH   6  19
ENDBRANCH  15   6
TORSDOF 7
ENDMDL
