MODEL 1
REMARK VINA RESULT:      -5.3      0.000      0.000
REMARK  Name = 45783365
REMARK  9 active torsions:
REMARK  status: ('A' for Active; 'I' for Inactive)
REMARK    1  A    between atoms: O_2  and  C_23
REMARK    2  A    between atoms: O_2  and  C_25
REMARK    3  A    between atoms: O_3  and  C_26
REMARK    4  A    between atoms: O_3  and  C_27
REMARK    5  A    between atoms: N_4  and  C_14
REMARK    6  A    between atoms: C_10  and  C_15
REMARK    7  A    between atoms: C_14  and  C_16
REMARK    8  A    between atoms: C_17  and  C_19
REMARK    9  A    between atoms: C_25  and  C_26
REMARK                            x       y       z     vdW  Elec       q    Type
REMARK                         _______ _______ _______ _____ _____    ______ ____
ROOT
ATOM      1  O   UNL     1      -2.477 -10.483  14.502  0.00  0.00    -0.336 OA
ATOM      5  N   UNL     1      -4.691 -10.712  14.249  0.00  0.00    -0.190 NA
ATOM      8  N   UNL     1      -3.027 -10.405  15.788  0.00  0.00    -0.056 NA
ATOM     15  C   UNL     1      -3.525 -10.664  13.656  0.00  0.00    +0.245 A 
ATOM     17  C   UNL     1      -4.336 -10.548  15.556  0.00  0.00    +0.202 A 
ENDROOT
BRANCH  17  19
ATOM      9  N   UNL     1      -7.214 -10.500  18.654  0.00  0.00    -0.221 NA
ATOM     19  C   UNL     1      -5.312 -10.532  16.607  0.00  0.00    +0.029 A 
ATOM     21  C   UNL     1      -6.646 -10.267  16.316  0.00  0.00    +0.079 A 
ATOM     22  C   UNL     1      -4.928 -10.781  17.919  0.00  0.00    +0.031 A 
ATOM     23  C   UNL     1      -7.549 -10.262  17.366  0.00  0.00    +0.215 A 
ATOM     24  C   UNL     1      -5.909 -10.753  18.897  0.00  0.00    +0.115 A 
BRANCH  23   2
ATOM      2  O   UNL     1      -8.869 -10.004  17.105  0.00  0.00    -0.474 OA
BRANCH   2  25
ATOM     25  C   UNL     1      -9.715  -9.792  18.230  0.00  0.00    +0.258 C 
BRANCH  25  26
ATOM     26  C   UNL     1     -10.720  -8.707  17.897  0.00  0.00    +0.200 C 
BRANCH  26   3
ATOM      3  O   UNL     1     -10.690  -8.461  16.497  0.00  0.00    -0.380 OA
ATOM     27  C   UNL     1     -10.647  -7.069  16.214  0.00  0.00    +0.194 C 
ENDBRANCH  26   3
ENDBRANCH  25  26
ENDBRANCH   2  25
ENDBRANCH  23   2
ENDBRANCH  17  19
BRANCH  15  10
ATOM      4  N   UNL     1      -4.090  -9.978  11.331  0.00  0.00    -0.284 NA
ATOM     10  C   UNL     1      -3.191 -10.781  12.184  0.00  0.00    +0.146 C 
ATOM     11  C   UNL     1      -1.777 -10.270  11.853  0.00  0.00    +0.030 C 
ATOM     12  C   UNL     1      -1.976  -9.226  10.763  0.00  0.00    +0.017 C 
ATOM     13  C   UNL     1      -3.311  -9.600  10.151  0.00  0.00    +0.085 C 
BRANCH   4  14
ATOM     14  C   UNL     1      -5.320 -10.674  10.977  0.00  0.00    +0.159 C 
BRANCH  14  16
ATOM      6  N   UNL     1      -6.702 -10.364   8.909  0.00  0.00    -0.347 N 
ATOM      7  N   UNL     1      -6.551  -8.597  10.246  0.00  0.00    -0.239 NA
ATOM     16  C   UNL     1      -6.189  -9.848  10.067  0.00  0.00    +0.121 A 
ATOM     18  C   UNL     1      -7.438  -9.380   8.312  0.00  0.00    +0.104 A 
ATOM     20  C   UNL     1      -7.331  -8.299   9.156  0.00  0.00    +0.130 A 
ATOM     28  H   UNL     1      -6.561 -11.301   8.557  0.00  0.00    +0.167 HD
ENDBRANCH  14  16
ENDBRANCH   4  14
ENDBRANCH  15  10
TORSDOF 8
ENDMDL
MODEL 2
REMARK VINA RESULT:      -4.2      2.851      8.190
REMARK  Name = 45783365
REMARK  9 active torsions:
REMARK  status: ('A' for Active; 'I' for Inactive)
REMARK    1  A    between atoms: O_2  and  C_23
REMARK    2  A    between atoms: O_2  and  C_25
REMARK    3  A    between atoms: O_3  and  C_26
REMARK    4  A    between atoms: O_3  and  C_27
REMARK    5  A    between atoms: N_4  and  C_14
REMARK    6  A    between atoms: C_10  and  C_15
REMARK    7  A    between atoms: C_14  and  C_16
REMARK    8  A    between atoms: C_17  and  C_19
REMARK    9  A    between atoms: C_25  and  C_26
REMARK                            x       y       z     vdW  Elec       q    Type
REMARK                         _______ _______ _______ _____ _____    ______ ____
ROOT
ATOM      1  O   UNL     1      -7.743 -10.498  14.966  0.00  0.00    -0.336 OA
ATOM      5  N   UNL     1      -8.652  -9.307  13.302  0.00  0.00    -0.190 NA
ATOM      8  N   UNL     1      -6.888 -10.648  13.866  0.00  0.00    -0.056 NA
ATOM     15  C   UNL     1      -8.755  -9.694  14.548  0.00  0.00    +0.245 A 
ATOM     17  C   UNL     1      -7.492  -9.917  12.925  0.00  0.00    +0.202 A 
ENDROOT
BRANCH  17  19
ATOM      9  N   UNL     1      -5.931  -9.502   9.016  0.00  0.00    -0.221 NA
ATOM     19  C   UNL     1      -6.962  -9.776  11.599  0.00  0.00    +0.029 A 
ATOM     21  C   UNL     1      -7.242  -8.636  10.853  0.00  0.00    +0.079 A 
ATOM     22  C   UNL     1      -6.168 -10.779  11.056  0.00  0.00    +0.031 A 
ATOM     23  C   UNL     1      -6.708  -8.549   9.578  0.00  0.00    +0.215 A 
ATOM     24  C   UNL     1      -5.681 -10.595   9.771  0.00  0.00    +0.115 A 
BRANCH  23   2
ATOM      2  O   UNL     1      -6.969  -7.436   8.823  0.00  0.00    -0.474 OA
BRANCH   2  25
ATOM     25  C   UNL     1      -8.218  -7.404   8.140  0.00  0.00    +0.258 C 
BRANCH  25  26
ATOM     26  C   UNL     1      -8.884  -6.066   8.389  0.00  0.00    +0.200 C 
BRANCH  26   3
ATOM      3  O   UNL     1     -10.124  -6.280   9.051  0.00  0.00    -0.380 OA
ATOM     27  C   UNL     1     -10.569  -7.621   8.901  0.00  0.00    +0.194 C 
ENDBRANCH  26   3
ENDBRANCH  25  26
ENDBRANCH   2  25
ENDBRANCH  23   2
ENDBRANCH  17  19
BRANCH  15  10
ATOM      4  N   UNL     1      -9.278  -9.160  16.921  0.00  0.00    -0.284 NA
ATOM     10  C   UNL     1      -9.827  -9.374  15.568  0.00  0.00    +0.146 C 
ATOM     11  C   UNL     1     -10.586  -8.074  15.244  0.00  0.00    +0.030 C 
ATOM     12  C   UNL     1     -10.459  -7.217  16.495  0.00  0.00    +0.017 C 
ATOM     13  C   UNL     1     -10.182  -8.225  17.592  0.00  0.00    +0.085 C 
BRANCH   4  14
ATOM     14  C   UNL     1      -9.110 -10.396  17.675  0.00  0.00    +0.159 C 
BRANCH  14  16
ATOM      6  N   UNL     1      -6.610 -10.492  17.532  0.00  0.00    -0.347 N 
ATOM      7  N   UNL     1      -7.465 -10.581  19.580  0.00  0.00    -0.239 NA
ATOM     16  C   UNL     1      -7.743 -10.491  18.298  0.00  0.00    +0.121 A 
ATOM     18  C   UNL     1      -5.542 -10.589  18.380  0.00  0.00    +0.104 A 
ATOM     20  C   UNL     1      -6.095 -10.642  19.638  0.00  0.00    +0.130 A 
ATOM     28  H   UNL     1      -6.569 -10.434  16.524  0.00  0.00    +0.167 HD
ENDBRANCH  14  16
ENDBRANCH   4  14
ENDBRANCH  15  10
TORSDOF 8
ENDMDL
MODEL 3
REMARK VINA RESULT:      -3.9      1.938      2.992
REMARK  Name = 45783365
REMARK  9 active torsions:
REMARK  status: ('A' for Active; 'I' for Inactive)
REMARK    1  A    between atoms: O_2  and  C_23
REMARK    2  A    between atoms: O_2  and  C_25
REMARK    3  A    between atoms: O_3  and  C_26
REMARK    4  A    between atoms: O_3  and  C_27
REMARK    5  A    between atoms: N_4  and  C_14
REMARK    6  A    between atoms: C_10  and  C_15
REMARK    7  A    between atoms: C_14  and  C_16
REMARK    8  A    between atoms: C_17  and  C_19
REMARK    9  A    between atoms: C_25  and  C_26
REMARK                            x       y       z     vdW  Elec       q    Type
REMARK                         _______ _______ _______ _____ _____    ______ ____
ROOT
ATOM      1  O   UNL     1      -4.273 -10.502  14.371  0.00  0.00    -0.336 OA
ATOM      5  N   UNL     1      -5.903 -10.507  12.834  0.00  0.00    -0.190 NA
ATOM      8  N   UNL     1      -5.473 -10.338  15.074  0.00  0.00    -0.056 NA
ATOM     15  C   UNL     1      -4.616 -10.594  13.059  0.00  0.00    +0.245 A 
ATOM     17  C   UNL     1      -6.387 -10.350  14.100  0.00  0.00    +0.202 A 
ENDROOT
BRANCH  17  19
ATOM      9  N   UNL     1     -10.527  -9.933  14.859  0.00  0.00    -0.221 NA
ATOM     19  C   UNL     1      -7.791 -10.208  14.357  0.00  0.00    +0.029 A 
ATOM     21  C   UNL     1      -8.303 -10.507  15.615  0.00  0.00    +0.079 A 
ATOM     22  C   UNL     1      -8.644  -9.772  13.350  0.00  0.00    +0.031 A 
ATOM     23  C   UNL     1      -9.666 -10.354  15.813  0.00  0.00    +0.215 A 
ATOM     24  C   UNL     1      -9.992  -9.653  13.649  0.00  0.00    +0.115 A 
BRANCH  23   2
ATOM      2  O   UNL     1     -10.195 -10.642  17.043  0.00  0.00    -0.474 OA
BRANCH   2  25
ATOM     25  C   UNL     1      -9.685  -9.904  18.149  0.00  0.00    +0.258 C 
BRANCH  25  26
ATOM     26  C   UNL     1      -8.727 -10.781  18.930  0.00  0.00    +0.200 C 
BRANCH  26   3
ATOM      3  O   UNL     1      -7.396 -10.344  18.689  0.00  0.00    -0.380 OA
ATOM     27  C   UNL     1      -6.532 -10.688  19.764  0.00  0.00    +0.194 C 
ENDBRANCH  26   3
ENDBRANCH  25  26
ENDBRANCH   2  25
ENDBRANCH  23   2
ENDBRANCH  17  19
BRANCH  15  10
ATOM      4  N   UNL     1      -3.633  -9.950  10.865  0.00  0.00    -0.284 NA
ATOM     10  C   UNL     1      -3.479 -10.781  12.076  0.00  0.00    +0.146 C 
ATOM     11  C   UNL     1      -2.115 -10.371  12.661  0.00  0.00    +0.030 C 
ATOM     12  C   UNL     1      -1.551  -9.353  11.679  0.00  0.00    +0.017 C 
ATOM     13  C   UNL     1      -2.281  -9.660  10.388  0.00  0.00    +0.085 C 
BRANCH   4  14
ATOM     14  C   UNL     1      -4.455 -10.577   9.838  0.00  0.00    +0.159 C 
BRANCH  14  16
ATOM      6  N   UNL     1      -6.433  -9.118  10.327  0.00  0.00    -0.347 N 
ATOM      7  N   UNL     1      -5.918  -9.360   8.181  0.00  0.00    -0.239 NA
ATOM     16  C   UNL     1      -5.593  -9.689   9.412  0.00  0.00    +0.121 A 
ATOM     18  C   UNL     1      -7.352  -8.379   9.636  0.00  0.00    +0.104 A 
ATOM     20  C   UNL     1      -7.013  -8.543   8.314  0.00  0.00    +0.130 A 
ATOM     28  H   UNL     1      -6.386  -9.225  11.332  0.00  0.00    +0.167 HD
ENDBRANCH  14  16
ENDBRANCH   4  14
ENDBRANCH  15  10
TORSDOF 8
ENDMDL
MODEL 4
REMARK VINA RESULT:      -3.7     14.061     17.223
REMARK  Name = 45783365
REMARK  9 active torsions:
REMARK  status: ('A' for Active; 'I' for Inactive)
REMARK    1  A    between atoms: O_2  and  C_23
REMARK    2  A    between atoms: O_2  and  C_25
REMARK    3  A    between atoms: O_3  and  C_26
REMARK    4  A    between atoms: O_3  and  C_27
REMARK    5  A    between atoms: N_4  and  C_14
REMARK    6  A    between atoms: C_10  and  C_15
REMARK    7  A    between atoms: C_14  and  C_16
REMARK    8  A    between atoms: C_17  and  C_19
REMARK    9  A    between atoms: C_25  and  C_26
REMARK                            x       y       z     vdW  Elec       q    Type
REMARK                         _______ _______ _______ _____ _____    ______ ____
ROOT
ATOM      1  O   UNL     1      -2.040   2.085  25.500  0.00  0.00    -0.336 OA
ATOM      5  N   UNL     1      -1.948   1.505  23.338  0.00  0.00    -0.190 NA
ATOM      8  N   UNL     1      -0.726   1.657  25.266  0.00  0.00    -0.056 NA
ATOM     15  C   UNL     1      -2.691   1.963  24.314  0.00  0.00    +0.245 A 
ATOM     17  C   UNL     1      -0.752   1.331  23.970  0.00  0.00    +0.202 A 
ENDROOT
BRANCH  17  19
ATOM      9  N   UNL     1       2.645  -0.147  21.928  0.00  0.00    -0.221 NA
ATOM     19  C   UNL     1       0.400   0.829  23.278  0.00  0.00    +0.029 A 
ATOM     21  C   UNL     1       1.655   1.374  23.526  0.00  0.00    +0.079 A 
ATOM     22  C   UNL     1       0.265  -0.202  22.356  0.00  0.00    +0.031 A 
ATOM     23  C   UNL     1       2.736   0.855  22.832  0.00  0.00    +0.215 A 
ATOM     24  C   UNL     1       1.408  -0.650  21.713  0.00  0.00    +0.115 A 
BRANCH  23   2
ATOM      2  O   UNL     1       3.983   1.374  23.059  0.00  0.00    -0.474 OA
BRANCH   2  25
ATOM     25  C   UNL     1       5.082   0.478  22.940  0.00  0.00    +0.258 C 
BRANCH  25  26
ATOM     26  C   UNL     1       5.757   0.341  24.290  0.00  0.00    +0.200 C 
BRANCH  26   3
ATOM      3  O   UNL     1       5.667  -1.012  24.719  0.00  0.00    -0.380 OA
ATOM     27  C   UNL     1       4.732  -1.745  23.939  0.00  0.00    +0.194 C 
ENDBRANCH  26   3
ENDBRANCH  25  26
ENDBRANCH   2  25
ENDBRANCH  23   2
ENDBRANCH  17  19
BRANCH  15  10
ATOM      4  N   UNL     1      -4.963   1.601  25.263  0.00  0.00    -0.284 NA
ATOM     10  C   UNL     1      -4.150   2.370  24.301  0.00  0.00    +0.146 C 
ATOM     11  C   UNL     1      -4.359   3.843  24.700  0.00  0.00    +0.030 C 
ATOM     12  C   UNL     1      -5.351   3.804  25.855  0.00  0.00    +0.017 C 
ATOM     13  C   UNL     1      -6.061   2.478  25.671  0.00  0.00    +0.085 C 
BRANCH   4  14
ATOM     14  C   UNL     1      -5.444   0.334  24.726  0.00  0.00    +0.159 C 
BRANCH  14  16
ATOM      6  N   UNL     1      -3.316  -0.682  25.574  0.00  0.00    -0.347 N 
ATOM      7  N   UNL     1      -4.264  -1.719  23.855  0.00  0.00    -0.239 NA
ATOM     16  C   UNL     1      -4.358  -0.707  24.689  0.00  0.00    +0.121 A 
ATOM     18  C   UNL     1      -2.507  -1.745  25.286  0.00  0.00    +0.104 A 
ATOM     20  C   UNL     1      -3.112  -2.370  24.222  0.00  0.00    +0.130 A 
ATOM     28  H   UNL     1      -3.169   0.000  26.306  0.00  0.00    +0.167 HD
ENDBRANCH  14  16
ENDBRANCH   4  14
ENDBRANCH  15  10
TORSDOF 8
ENDMDL
MODEL 5
REMARK VINA RESULT:      -2.7     14.844     17.836
REMARK  Name = 45783365
REMARK  9 active torsions:
REMARK  status: ('A' for Active; 'I' for Inactive)
REMARK    1  A    between atoms: O_2  and  C_23
REMARK    2  A    between atoms: O_2  and  C_25
REMARK    3  A    between atoms: O_3  and  C_26
REMARK    4  A    between atoms: O_3  and  C_27
REMARK    5  A    between atoms: N_4  and  C_14
REMARK    6  A    between atoms: C_10  and  C_15
REMARK    7  A    between atoms: C_14  and  C_16
REMARK    8  A    between atoms: C_17  and  C_19
REMARK    9  A    between atoms: C_25  and  C_26
REMARK                            x       y       z     vdW  Elec       q    Type
REMARK                         _______ _______ _______ _____ _____    ______ ____
ROOT
ATOM      1  O   UNL     1      -2.230  -0.450  25.951  0.00  0.00    -0.336 OA
ATOM      5  N   UNL     1      -1.902   0.964  24.245  0.00  0.00    -0.190 NA
ATOM      8  N   UNL     1      -1.037  -0.851  25.336  0.00  0.00    -0.056 NA
ATOM     15  C   UNL     1      -2.673   0.625  25.247  0.00  0.00    +0.245 A 
ATOM     17  C   UNL     1      -0.911   0.031  24.339  0.00  0.00    +0.202 A 
ENDROOT
BRANCH  17  19
ATOM      9  N   UNL     1       2.338  -0.042  21.633  0.00  0.00    -0.221 NA
ATOM     19  C   UNL     1       0.191   0.006  23.421  0.00  0.00    +0.029 A 
ATOM     21  C   UNL     1       1.370   0.677  23.728  0.00  0.00    +0.079 A 
ATOM     22  C   UNL     1       0.084  -0.688  22.222  0.00  0.00    +0.031 A 
ATOM     23  C   UNL     1       2.404   0.623  22.809  0.00  0.00    +0.215 A 
ATOM     24  C   UNL     1       1.176  -0.681  21.369  0.00  0.00    +0.115 A 
BRANCH  23   2
ATOM      2  O   UNL     1       3.576   1.276  23.087  0.00  0.00    -0.474 OA
BRANCH   2  25
ATOM     25  C   UNL     1       4.782   0.587  22.777  0.00  0.00    +0.258 C 
BRANCH  25  26
ATOM     26  C   UNL     1       5.655   0.535  24.015  0.00  0.00    +0.200 C 
BRANCH  26   3
ATOM      3  O   UNL     1       5.411  -0.686  24.704  0.00  0.00    -0.380 OA
ATOM     27  C   UNL     1       4.834  -1.661  23.847  0.00  0.00    +0.194 C 
ENDBRANCH  26   3
ENDBRANCH  25  26
ENDBRANCH   2  25
ENDBRANCH  23   2
ENDBRANCH  17  19
BRANCH  15  10
ATOM      4  N   UNL     1      -4.106   2.659  25.287  0.00  0.00    -0.284 NA
ATOM     10  C   UNL     1      -3.967   1.254  25.719  0.00  0.00    +0.146 C 
ATOM     11  C   UNL     1      -5.213   0.546  25.157  0.00  0.00    +0.030 C 
ATOM     12  C   UNL     1      -6.021   1.642  24.478  0.00  0.00    +0.017 C 
ATOM     13  C   UNL     1      -5.541   2.910  25.155  0.00  0.00    +0.085 C 
BRANCH   4  14
ATOM     14  C   UNL     1      -3.464   3.605  26.190  0.00  0.00    +0.159 C 
BRANCH  14  16
ATOM      6  N   UNL     1      -1.035   3.365  25.624  0.00  0.00    -0.347 N 
ATOM      7  N   UNL     1      -1.963   5.312  25.096  0.00  0.00    -0.239 NA
ATOM     16  C   UNL     1      -2.170   4.128  25.627  0.00  0.00    +0.121 A 
ATOM     18  C   UNL     1      -0.041   4.111  25.054  0.00  0.00    +0.104 A 
ATOM     20  C   UNL     1      -0.638   5.308  24.736  0.00  0.00    +0.130 A 
ATOM     28  H   UNL     1      -0.945   2.423  25.980  0.00  0.00    +0.167 HD
ENDBRANCH  14  16
ENDBRANCH   4  14
ENDBRANCH  15  10
TORSDOF 8
ENDMDL
