MODEL 1
REMARK VINA RESULT:      -5.9      0.000      0.000
REMARK  Name = 26742953
REMARK  10 active torsions:
REMARK  status: ('A' for Active; 'I' for Inactive)
REMARK    1  A    between atoms: N_4  and  C_18
REMARK    2  A    between atoms: C_6  and  C_12
REMARK    3  A    between atoms: C_7  and  C_10
REMARK    4  A    between atoms: C_10  and  C_13
REMARK    5  A    between atoms: C_12  and  C_14
REMARK    6  A    between atoms: C_16  and  C_17
REMARK    7  A    between atoms: C_17  and  C_19
REMARK    8  A    between atoms: C_18  and  C_20
REMARK    9  A    between atoms: C_19  and  C_21
REMARK   10  A    between atoms: C_21  and  C_22
REMARK                            x       y       z     vdW  Elec       q    Type
REMARK                         _______ _______ _______ _____ _____    ______ ____
ROOT
ATOM      3  N   UNL     1      -2.347  -3.033  24.930  0.00  0.00    -0.316 NA
ATOM      6  C   UNL     1      -3.734  -0.724  23.728  0.00  0.00    +0.004 C 
ATOM      7  C   UNL     1      -2.212  -0.734  24.004  0.00  0.00    +0.012 C 
ATOM      8  C   UNL     1      -4.227  -2.173  23.579  0.00  0.00    +0.019 C 
ATOM      9  C   UNL     1      -1.852  -1.676  25.165  0.00  0.00    +0.085 C 
ATOM     11  C   UNL     1      -3.797  -3.058  24.747  0.00  0.00    +0.081 C 
ATOM     28  H   UNL     1      -2.097  -3.625  25.722  0.00  0.00    +0.122 HD
ENDROOT
BRANCH   7  10
ATOM     10  C   UNL     1      -1.638   0.663  24.249  0.00  0.00    +0.064 C 
BRANCH  10  13
ATOM      1  O   UNL     1       1.812   1.538  23.703  0.00  0.00    -0.359 OA
ATOM      5  N   UNL     1       0.548   1.785  24.224  0.00  0.00    -0.083 NA
ATOM     13  C   UNL     1      -0.191   0.736  23.853  0.00  0.00    +0.084 A 
ATOM     15  C   UNL     1       0.546  -0.197  23.104  0.00  0.00    +0.071 A 
ATOM     16  C   UNL     1       1.798   0.354  23.037  0.00  0.00    +0.138 A 
BRANCH  16  17
ATOM     17  C   UNL     1       3.062  -0.065  22.420  0.00  0.00    +0.077 C 
BRANCH  17  19
ATOM     19  C   UNL     1       4.214   0.936  22.662  0.00  0.00    +0.007 C 
BRANCH  19  21
ATOM     21  C   UNL     1       5.361   0.327  23.469  0.00  0.00    -0.003 C 
ATOM     22  C   UNL     1       4.999  -1.051  23.999  0.00  0.00    +0.004 C 
ENDBRANCH  19  21
ENDBRANCH  17  19
ENDBRANCH  16  17
ENDBRANCH  10  13
ENDBRANCH   7  10
BRANCH   6  12
ATOM     12  C   UNL     1      -4.555   0.026  24.784  0.00  0.00    +0.099 C 
BRANCH  12  14
ATOM      2  O   UNL     1      -4.347   2.087  23.534  0.00  0.00    -0.276 OA
ATOM      4  N   UNL     1      -4.523   2.171  25.849  0.00  0.00    -0.311 N 
ATOM     14  C   UNL     1      -4.462   1.529  24.621  0.00  0.00    +0.214 C 
ATOM     29  H   UNL     1      -4.600   1.614  26.697  0.00  0.00    +0.149 HD
BRANCH   4  18
ATOM     18  C   UNL     1      -4.455   3.606  25.993  0.00  0.00    +0.139 C 
BRANCH  18  20
ATOM     20  C   UNL     1      -3.101   4.145  25.630  0.00  0.00    -0.030 A 
ATOM     23  C   UNL     1      -2.996   5.302  24.859  0.00  0.00    +0.005 A 
ATOM     24  C   UNL     1      -1.951   3.487  26.064  0.00  0.00    +0.005 A 
ATOM     25  C   UNL     1      -1.738   5.803  24.521  0.00  0.00    +0.000 A 
ATOM     26  C   UNL     1      -0.693   3.988  25.727  0.00  0.00    +0.000 A 
ATOM     27  C   UNL     1      -0.586   5.146  24.955  0.00  0.00    +0.000 A 
ENDBRANCH  18  20
ENDBRANCH   4  18
ENDBRANCH  12  14
ENDBRANCH   6  12
TORSDOF 9
ENDMDL
MODEL 2
REMARK VINA RESULT:      -5.9      1.466      4.958
REMARK  Name = 26742953
REMARK  10 active torsions:
REMARK  status: ('A' for Active; 'I' for Inactive)
REMARK    1  A    between atoms: N_4  and  C_18
REMARK    2  A    between atoms: C_6  and  C_12
REMARK    3  A    between atoms: C_7  and  C_10
REMARK    4  A    between atoms: C_10  and  C_13
REMARK    5  A    between atoms: C_12  and  C_14
REMARK    6  A    between atoms: C_16  and  C_17
REMARK    7  A    between atoms: C_17  and  C_19
REMARK    8  A    between atoms: C_18  and  C_20
REMARK    9  A    between atoms: C_19  and  C_21
REMARK   10  A    between atoms: C_21  and  C_22
REMARK                            x       y       z     vdW  Elec       q    Type
REMARK                         _______ _______ _______ _____ _____    ______ ____
ROOT
ATOM      3  N   UNL     1       0.046   4.944  24.274  0.00  0.00    -0.316 NA
ATOM      6  C   UNL     1      -2.375   3.951  25.637  0.00  0.00    +0.004 C 
ATOM      7  C   UNL     1      -1.151   3.050  25.344  0.00  0.00    +0.012 C 
ATOM      8  C   UNL     1      -1.916   5.417  25.698  0.00  0.00    +0.019 C 
ATOM      9  C   UNL     1      -0.361   3.546  24.121  0.00  0.00    +0.085 C 
ATOM     11  C   UNL     1      -1.103   5.825  24.471  0.00  0.00    +0.081 C 
ATOM     28  H   UNL     1       0.558   5.238  23.443  0.00  0.00    +0.122 HD
ENDROOT
BRANCH   7  10
ATOM     10  C   UNL     1      -1.519   1.574  25.182  0.00  0.00    +0.064 C 
BRANCH  10  13
ATOM      1  O   UNL     1       0.446  -0.804  23.325  0.00  0.00    -0.359 OA
ATOM      5  N   UNL     1      -0.687  -0.436  24.039  0.00  0.00    -0.083 NA
ATOM     13  C   UNL     1      -0.480   0.837  24.387  0.00  0.00    +0.084 A 
ATOM     15  C   UNL     1       0.756   1.321  23.924  0.00  0.00    +0.071 A 
ATOM     16  C   UNL     1       1.299   0.251  23.264  0.00  0.00    +0.138 A 
BRANCH  16  17
ATOM     17  C   UNL     1       2.557   0.035  22.539  0.00  0.00    +0.077 C 
BRANCH  17  19
ATOM     19  C   UNL     1       3.656   1.055  22.917  0.00  0.00    +0.007 C 
BRANCH  19  21
ATOM     21  C   UNL     1       5.003   0.390  23.197  0.00  0.00    -0.003 C 
ATOM     22  C   UNL     1       4.829  -0.948  23.899  0.00  0.00    +0.004 C 
ENDBRANCH  19  21
ENDBRANCH  17  19
ENDBRANCH  16  17
ENDBRANCH  10  13
ENDBRANCH   7  10
BRANCH   6  12
ATOM     12  C   UNL     1      -3.527   3.781  24.640  0.00  0.00    +0.099 C 
BRANCH  12  14
ATOM      2  O   UNL     1      -5.362   2.956  25.985  0.00  0.00    -0.276 OA
ATOM      4  N   UNL     1      -4.396   1.563  24.396  0.00  0.00    -0.311 N 
ATOM     14  C   UNL     1      -4.536   2.749  25.100  0.00  0.00    +0.214 C 
ATOM     29  H   UNL     1      -3.666   1.486  23.692  0.00  0.00    +0.149 HD
BRANCH   4  18
ATOM     18  C   UNL     1      -5.226   0.404  24.629  0.00  0.00    +0.139 C 
BRANCH  18  20
ATOM     20  C   UNL     1      -4.415  -0.854  24.748  0.00  0.00    -0.030 A 
ATOM     23  C   UNL     1      -4.431  -1.793  23.716  0.00  0.00    +0.005 A 
ATOM     24  C   UNL     1      -3.647  -1.083  25.889  0.00  0.00    +0.005 A 
ATOM     25  C   UNL     1      -3.678  -2.962  23.825  0.00  0.00    +0.000 A 
ATOM     26  C   UNL     1      -2.893  -2.253  25.998  0.00  0.00    +0.000 A 
ATOM     27  C   UNL     1      -2.909  -3.192  24.967  0.00  0.00    +0.000 A 
ENDBRANCH  18  20
ENDBRANCH   4  18
ENDBRANCH  12  14
ENDBRANCH   6  12
TORSDOF 9
ENDMDL
MODEL 3
REMARK VINA RESULT:      -5.1      1.656      6.650
REMARK  Name = 26742953
REMARK  10 active torsions:
REMARK  status: ('A' for Active; 'I' for Inactive)
REMARK    1  A    between atoms: N_4  and  C_18
REMARK    2  A    between atoms: C_6  and  C_12
REMARK    3  A    between atoms: C_7  and  C_10
REMARK    4  A    between atoms: C_10  and  C_13
REMARK    5  A    between atoms: C_12  and  C_14
REMARK    6  A    between atoms: C_16  and  C_17
REMARK    7  A    between atoms: C_17  and  C_19
REMARK    8  A    between atoms: C_18  and  C_20
REMARK    9  A    between atoms: C_19  and  C_21
REMARK   10  A    between atoms: C_21  and  C_22
REMARK                            x       y       z     vdW  Elec       q    Type
REMARK                         _______ _______ _______ _____ _____    ______ ____
ROOT
ATOM      3  N   UNL     1      -1.710   5.718  25.141  0.00  0.00    -0.316 NA
ATOM      6  C   UNL     1      -1.523   2.883  24.349  0.00  0.00    +0.004 C 
ATOM      7  C   UNL     1      -2.845   3.534  24.821  0.00  0.00    +0.012 C 
ATOM      8  C   UNL     1      -0.597   3.976  23.790  0.00  0.00    +0.019 C 
ATOM      9  C   UNL     1      -2.588   4.724  25.760  0.00  0.00    +0.085 C 
ATOM     11  C   UNL     1      -0.422   5.143  24.760  0.00  0.00    +0.081 C 
ATOM     28  H   UNL     1      -1.556   6.486  25.794  0.00  0.00    +0.122 HD
ENDROOT
BRANCH   7  10
ATOM     10  C   UNL     1      -3.806   2.536  25.471  0.00  0.00    +0.064 C 
BRANCH  10  13
ATOM      1  O   UNL     1      -3.659  -0.096  23.019  0.00  0.00    -0.359 OA
ATOM      5  N   UNL     1      -3.496   1.225  23.416  0.00  0.00    -0.083 NA
ATOM     13  C   UNL     1      -3.857   1.248  24.702  0.00  0.00    +0.084 A 
ATOM     15  C   UNL     1      -4.253  -0.018  25.167  0.00  0.00    +0.071 A 
ATOM     16  C   UNL     1      -4.111  -0.827  24.071  0.00  0.00    +0.138 A 
BRANCH  16  17
ATOM     17  C   UNL     1      -4.338  -2.256  23.825  0.00  0.00    +0.077 C 
BRANCH  17  19
ATOM     19  C   UNL     1      -3.585  -3.169  24.819  0.00  0.00    +0.007 C 
BRANCH  19  21
ATOM     21  C   UNL     1      -2.126  -2.753  25.007  0.00  0.00    -0.003 C 
ATOM     22  C   UNL     1      -1.346  -2.851  23.705  0.00  0.00    +0.004 C 
ENDBRANCH  19  21
ENDBRANCH  17  19
ENDBRANCH  16  17
ENDBRANCH  10  13
ENDBRANCH   7  10
BRANCH   6  12
ATOM     12  C   UNL     1      -0.810   2.064  25.431  0.00  0.00    +0.099 C 
BRANCH  12  14
ATOM      2  O   UNL     1      -0.575  -0.345  25.418  0.00  0.00    -0.276 OA
ATOM      4  N   UNL     1       0.496   0.915  23.785  0.00  0.00    -0.311 N 
ATOM     14  C   UNL     1      -0.303   0.737  24.905  0.00  0.00    +0.214 C 
ATOM     29  H   UNL     1       0.675   1.857  23.448  0.00  0.00    +0.149 HD
BRANCH   4  18
ATOM     18  C   UNL     1       1.116  -0.181  23.076  0.00  0.00    +0.139 C 
BRANCH  18  20
ATOM     20  C   UNL     1       2.612  -0.157  23.202  0.00  0.00    -0.030 A 
ATOM     23  C   UNL     1       3.324   0.982  22.827  0.00  0.00    +0.005 A 
ATOM     24  C   UNL     1       3.288  -1.273  23.694  0.00  0.00    +0.005 A 
ATOM     25  C   UNL     1       4.714   1.005  22.944  0.00  0.00    +0.000 A 
ATOM     26  C   UNL     1       4.678  -1.250  23.811  0.00  0.00    +0.000 A 
ATOM     27  C   UNL     1       5.392  -0.111  23.436  0.00  0.00    +0.000 A 
ENDBRANCH  18  20
ENDBRANCH   4  18
ENDBRANCH  12  14
ENDBRANCH   6  12
TORSDOF 9
ENDMDL
MODEL 4
REMARK VINA RESULT:      -4.5      1.201      6.523
REMARK  Name = 26742953
REMARK  10 active torsions:
REMARK  status: ('A' for Active; 'I' for Inactive)
REMARK    1  A    between atoms: N_4  and  C_18
REMARK    2  A    between atoms: C_6  and  C_12
REMARK    3  A    between atoms: C_7  and  C_10
REMARK    4  A    between atoms: C_10  and  C_13
REMARK    5  A    between atoms: C_12  and  C_14
REMARK    6  A    between atoms: C_16  and  C_17
REMARK    7  A    between atoms: C_17  and  C_19
REMARK    8  A    between atoms: C_18  and  C_20
REMARK    9  A    between atoms: C_19  and  C_21
REMARK   10  A    between atoms: C_21  and  C_22
REMARK                            x       y       z     vdW  Elec       q    Type
REMARK                         _______ _______ _______ _____ _____    ______ ____
ROOT
ATOM      3  N   UNL     1      -1.899  -3.257  25.039  0.00  0.00    -0.316 NA
ATOM      6  C   UNL     1      -1.736  -0.313  24.938  0.00  0.00    +0.004 C 
ATOM      7  C   UNL     1      -3.070  -1.082  24.786  0.00  0.00    +0.012 C 
ATOM      8  C   UNL     1      -0.740  -1.185  25.720  0.00  0.00    +0.019 C 
ATOM      9  C   UNL     1      -2.849  -2.497  24.224  0.00  0.00    +0.085 C 
ATOM     11  C   UNL     1      -0.604  -2.587  25.129  0.00  0.00    +0.081 C 
ATOM     28  H   UNL     1      -1.772  -4.183  24.632  0.00  0.00    +0.122 HD
ENDROOT
BRANCH   7  10
ATOM     10  C   UNL     1      -4.105  -0.329  23.948  0.00  0.00    +0.064 C 
BRANCH  10  13
ATOM      1  O   UNL     1      -5.388   2.435  25.865  0.00  0.00    -0.359 OA
ATOM      5  N   UNL     1      -5.327   1.085  25.543  0.00  0.00    -0.083 NA
ATOM     13  C   UNL     1      -4.432   1.005  24.554  0.00  0.00    +0.084 A 
ATOM     15  C   UNL     1      -3.899   2.261  24.215  0.00  0.00    +0.071 A 
ATOM     16  C   UNL     1      -4.533   3.125  25.067  0.00  0.00    +0.138 A 
BRANCH  16  17
ATOM     17  C   UNL     1      -4.471   4.577  25.275  0.00  0.00    +0.077 C 
BRANCH  17  19
ATOM     19  C   UNL     1      -3.221   5.021  26.068  0.00  0.00    +0.007 C 
BRANCH  19  21
ATOM     21  C   UNL     1      -1.971   4.229  25.685  0.00  0.00    -0.003 C 
ATOM     22  C   UNL     1      -0.977   5.090  24.923  0.00  0.00    +0.004 C 
ENDBRANCH  19  21
ENDBRANCH  17  19
ENDBRANCH  16  17
ENDBRANCH  10  13
ENDBRANCH   7  10
BRANCH   6  12
ATOM     12  C   UNL     1      -1.129   0.151  23.608  0.00  0.00    +0.099 C 
BRANCH  12  14
ATOM      2  O   UNL     1       0.208   1.857  24.685  0.00  0.00    -0.276 OA
ATOM      4  N   UNL     1       1.090   0.686  22.883  0.00  0.00    -0.311 N 
ATOM     14  C   UNL     1       0.108   1.002  23.810  0.00  0.00    +0.214 C 
ATOM     29  H   UNL     1       0.902  -0.028  22.184  0.00  0.00    +0.149 HD
BRANCH   4  18
ATOM     18  C   UNL     1       2.375   1.344  22.840  0.00  0.00    +0.139 C 
BRANCH  18  20
ATOM     20  C   UNL     1       3.494   0.417  23.216  0.00  0.00    -0.030 A 
ATOM     23  C   UNL     1       4.804   0.892  23.271  0.00  0.00    +0.005 A 
ATOM     24  C   UNL     1       3.224  -0.919  23.511  0.00  0.00    +0.005 A 
ATOM     25  C   UNL     1       5.845   0.031  23.620  0.00  0.00    +0.000 A 
ATOM     26  C   UNL     1       4.264  -1.780  23.861  0.00  0.00    +0.000 A 
ATOM     27  C   UNL     1       5.575  -1.306  23.915  0.00  0.00    +0.000 A 
ENDBRANCH  18  20
ENDBRANCH   4  18
ENDBRANCH  12  14
ENDBRANCH   6  12
TORSDOF 9
ENDMDL
MODEL 5
REMARK VINA RESULT:      -4.1      1.611      6.549
REMARK  Name = 26742953
REMARK  10 active torsions:
REMARK  status: ('A' for Active; 'I' for Inactive)
REMARK    1  A    between atoms: N_4  and  C_18
REMARK    2  A    between atoms: C_6  and  C_12
REMARK    3  A    between atoms: C_7  and  C_10
REMARK    4  A    between atoms: C_10  and  C_13
REMARK    5  A    between atoms: C_12  and  C_14
REMARK    6  A    between atoms: C_16  and  C_17
REMARK    7  A    between atoms: C_17  and  C_19
REMARK    8  A    between atoms: C_18  and  C_20
REMARK    9  A    between atoms: C_19  and  C_21
REMARK   10  A    between atoms: C_21  and  C_22
REMARK                            x       y       z     vdW  Elec       q    Type
REMARK                         _______ _______ _______ _____ _____    ______ ____
ROOT
ATOM      3  N   UNL     1      -3.134   4.232  26.502  0.00  0.00    -0.316 NA
ATOM      6  C   UNL     1      -1.655   3.181  24.175  0.00  0.00    +0.004 C 
ATOM      7  C   UNL     1      -3.195   3.334  24.188  0.00  0.00    +0.012 C 
ATOM      8  C   UNL     1      -1.045   4.166  25.186  0.00  0.00    +0.019 C 
ATOM      9  C   UNL     1      -3.762   3.251  25.616  0.00  0.00    +0.085 C 
ATOM     11  C   UNL     1      -1.685   4.055  26.568  0.00  0.00    +0.081 C 
ATOM     28  H   UNL     1      -3.528   4.142  27.438  0.00  0.00    +0.122 HD
ENDROOT
BRANCH   7  10
ATOM     10  C   UNL     1      -3.905   2.336  23.272  0.00  0.00    +0.064 C 
BRANCH  10  13
ATOM      1  O   UNL     1      -4.344  -0.482  25.470  0.00  0.00    -0.359 OA
ATOM      5  N   UNL     1      -4.339   0.881  25.204  0.00  0.00    -0.083 NA
ATOM     13  C   UNL     1      -4.007   0.982  23.914  0.00  0.00    +0.084 A 
ATOM     15  C   UNL     1      -3.793  -0.273  23.319  0.00  0.00    +0.071 A 
ATOM     16  C   UNL     1      -4.016  -1.160  24.339  0.00  0.00    +0.138 A 
BRANCH  16  17
ATOM     17  C   UNL     1      -3.975  -2.623  24.442  0.00  0.00    +0.077 C 
BRANCH  17  19
ATOM     19  C   UNL     1      -2.576  -3.164  24.816  0.00  0.00    +0.007 C 
BRANCH  19  21
ATOM     21  C   UNL     1      -1.457  -2.178  24.479  0.00  0.00    -0.003 C 
ATOM     22  C   UNL     1      -0.935  -1.481  25.725  0.00  0.00    +0.004 C 
ENDBRANCH  19  21
ENDBRANCH  17  19
ENDBRANCH  16  17
ENDBRANCH  10  13
ENDBRANCH   7  10
BRANCH   6  12
ATOM     12  C   UNL     1      -1.168   1.752  24.444  0.00  0.00    +0.099 C 
BRANCH  12  14
ATOM      2  O   UNL     1      -1.002   1.167  22.102  0.00  0.00    -0.276 OA
ATOM      4  N   UNL     1       0.693   0.532  23.559  0.00  0.00    -0.311 N 
ATOM     14  C   UNL     1      -0.513   1.132  23.227  0.00  0.00    +0.214 C 
ATOM     29  H   UNL     1       1.003   0.542  24.527  0.00  0.00    +0.149 HD
BRANCH   4  18
ATOM     18  C   UNL     1       1.531  -0.139  22.593  0.00  0.00    +0.139 C 
BRANCH  18  20
ATOM     20  C   UNL     1       2.972  -0.158  23.015  0.00  0.00    -0.030 A 
ATOM     23  C   UNL     1       3.516  -1.308  23.586  0.00  0.00    +0.005 A 
ATOM     24  C   UNL     1       3.765   0.975  22.836  0.00  0.00    +0.005 A 
ATOM     25  C   UNL     1       4.855  -1.326  23.979  0.00  0.00    +0.000 A 
ATOM     26  C   UNL     1       5.104   0.958  23.228  0.00  0.00    +0.000 A 
ATOM     27  C   UNL     1       5.649  -0.192  23.800  0.00  0.00    +0.000 A 
ENDBRANCH  18  20
ENDBRANCH   4  18
ENDBRANCH  12  14
ENDBRANCH   6  12
TORSDOF 9
ENDMDL
MODEL 6
REMARK VINA RESULT:      -2.7      1.488      5.847
REMARK  Name = 26742953
REMARK  10 active torsions:
REMARK  status: ('A' for Active; 'I' for Inactive)
REMARK    1  A    between atoms: N_4  and  C_18
REMARK    2  A    between atoms: C_6  and  C_12
REMARK    3  A    between atoms: C_7  and  C_10
REMARK    4  A    between atoms: C_10  and  C_13
REMARK    5  A    between atoms: C_12  and  C_14
REMARK    6  A    between atoms: C_16  and  C_17
REMARK    7  A    between atoms: C_17  and  C_19
REMARK    8  A    between atoms: C_18  and  C_20
REMARK    9  A    between atoms: C_19  and  C_21
REMARK   10  A    between atoms: C_21  and  C_22
REMARK                            x       y       z     vdW  Elec       q    Type
REMARK                         _______ _______ _______ _____ _____    ______ ____
ROOT
ATOM      3  N   UNL     1      -3.967  -2.691  24.513  0.00  0.00    -0.316 NA
ATOM      6  C   UNL     1      -2.727  -0.130  25.292  0.00  0.00    +0.004 C 
ATOM      7  C   UNL     1      -4.136  -0.218  24.660  0.00  0.00    +0.012 C 
ATOM      8  C   UNL     1      -2.399  -1.467  25.976  0.00  0.00    +0.019 C 
ATOM      9  C   UNL     1      -4.285  -1.467  23.775  0.00  0.00    +0.085 C 
ATOM     11  C   UNL     1      -2.608  -2.663  25.050  0.00  0.00    +0.081 C 
ATOM     28  H   UNL     1      -4.068  -3.494  23.893  0.00  0.00    +0.122 HD
ENDROOT
BRANCH   7  10
ATOM     10  C   UNL     1      -4.525   1.040  23.881  0.00  0.00    +0.064 C 
BRANCH  10  13
ATOM      1  O   UNL     1      -3.752   3.838  26.011  0.00  0.00    -0.359 OA
ATOM      5  N   UNL     1      -4.473   2.693  25.698  0.00  0.00    -0.083 NA
ATOM     13  C   UNL     1      -3.974   2.276  24.531  0.00  0.00    +0.084 A 
ATOM     15  C   UNL     1      -2.944   3.111  24.064  0.00  0.00    +0.071 A 
ATOM     16  C   UNL     1      -2.844   4.077  25.029  0.00  0.00    +0.138 A 
BRANCH  16  17
ATOM     17  C   UNL     1      -1.990   5.258  25.201  0.00  0.00    +0.077 C 
BRANCH  17  19
ATOM     19  C   UNL     1      -0.485   4.944  25.045  0.00  0.00    +0.007 C 
BRANCH  19  21
ATOM     21  C   UNL     1      -0.213   3.451  24.860  0.00  0.00    -0.003 C 
ATOM     22  C   UNL     1       0.146   2.783  26.177  0.00  0.00    +0.004 C 
ENDBRANCH  19  21
ENDBRANCH  17  19
ENDBRANCH  16  17
ENDBRANCH  10  13
ENDBRANCH   7  10
BRANCH   6  12
ATOM     12  C   UNL     1      -1.623   0.261  24.301  0.00  0.00    +0.099 C 
BRANCH  12  14
ATOM      2  O   UNL     1      -0.184  -1.394  25.323  0.00  0.00    -0.276 OA
ATOM      4  N   UNL     1       0.284  -0.647  23.174  0.00  0.00    -0.311 N 
ATOM     14  C   UNL     1      -0.444  -0.689  24.353  0.00  0.00    +0.214 C 
ATOM     29  H   UNL     1      -0.004  -0.013  22.434  0.00  0.00    +0.149 HD
BRANCH   4  18
ATOM     18  C   UNL     1       1.464  -1.450  22.947  0.00  0.00    +0.139 C 
BRANCH  18  20
ATOM     20  C   UNL     1       2.726  -0.650  23.097  0.00  0.00    -0.030 A 
ATOM     23  C   UNL     1       3.845  -1.221  23.703  0.00  0.00    +0.005 A 
ATOM     24  C   UNL     1       2.778   0.662  22.630  0.00  0.00    +0.005 A 
ATOM     25  C   UNL     1       5.017  -0.479  23.842  0.00  0.00    +0.000 A 
ATOM     26  C   UNL     1       3.952   1.405  22.769  0.00  0.00    +0.000 A 
ATOM     27  C   UNL     1       5.071   0.835  23.375  0.00  0.00    +0.000 A 
ENDBRANCH  18  20
ENDBRANCH   4  18
ENDBRANCH  12  14
ENDBRANCH   6  12
TORSDOF 9
ENDMDL
MODEL 7
REMARK VINA RESULT:      -2.5      1.518      4.674
REMARK  Name = 26742953
REMARK  10 active torsions:
REMARK  status: ('A' for Active; 'I' for Inactive)
REMARK    1  A    between atoms: N_4  and  C_18
REMARK    2  A    between atoms: C_6  and  C_12
REMARK    3  A    between atoms: C_7  and  C_10
REMARK    4  A    between atoms: C_10  and  C_13
REMARK    5  A    between atoms: C_12  and  C_14
REMARK    6  A    between atoms: C_16  and  C_17
REMARK    7  A    between atoms: C_17  and  C_19
REMARK    8  A    between atoms: C_18  and  C_20
REMARK    9  A    between atoms: C_19  and  C_21
REMARK   10  A    between atoms: C_21  and  C_22
REMARK                            x       y       z     vdW  Elec       q    Type
REMARK                         _______ _______ _______ _____ _____    ______ ____
ROOT
ATOM      3  N   UNL     1      -3.538   3.492  22.724  0.00  0.00    -0.316 NA
ATOM      6  C   UNL     1      -2.644   4.221  25.439  0.00  0.00    +0.004 C 
ATOM      7  C   UNL     1      -1.862   3.236  24.538  0.00  0.00    +0.012 C 
ATOM      8  C   UNL     1      -3.487   5.152  24.551  0.00  0.00    +0.019 C 
ATOM      9  C   UNL     1      -2.788   2.529  23.533  0.00  0.00    +0.085 C 
ATOM     11  C   UNL     1      -4.348   4.382  23.552  0.00  0.00    +0.081 C 
ATOM     28  H   UNL     1      -4.144   2.988  22.077  0.00  0.00    +0.122 HD
ENDROOT
BRANCH   7  10
ATOM     10  C   UNL     1      -1.052   2.210  25.333  0.00  0.00    +0.064 C 
BRANCH  10  13
ATOM      1  O   UNL     1       2.072   1.639  23.638  0.00  0.00    -0.359 OA
ATOM      5  N   UNL     1       1.227   2.400  24.436  0.00  0.00    -0.083 NA
ATOM     13  C   UNL     1       0.102   1.685  24.530  0.00  0.00    +0.084 A 
ATOM     15  C   UNL     1       0.179   0.476  23.817  0.00  0.00    +0.071 A 
ATOM     16  C   UNL     1       1.436   0.495  23.275  0.00  0.00    +0.138 A 
BRANCH  16  17
ATOM     17  C   UNL     1       2.191  -0.432  22.424  0.00  0.00    +0.077 C 
BRANCH  17  19
ATOM     19  C   UNL     1       3.704  -0.119  22.382  0.00  0.00    +0.007 C 
BRANCH  19  21
ATOM     21  C   UNL     1       4.471  -0.773  23.531  0.00  0.00    -0.003 C 
ATOM     22  C   UNL     1       5.687   0.048  23.928  0.00  0.00    +0.004 C 
ENDBRANCH  19  21
ENDBRANCH  17  19
ENDBRANCH  16  17
ENDBRANCH  10  13
ENDBRANCH   7  10
BRANCH   6  12
ATOM     12  C   UNL     1      -3.518   3.539  26.498  0.00  0.00    +0.099 C 
BRANCH  12  14
ATOM      2  O   UNL     1      -5.737   3.008  25.693  0.00  0.00    -0.276 OA
ATOM      4  N   UNL     1      -4.063   1.401  25.566  0.00  0.00    -0.311 N 
ATOM     14  C   UNL     1      -4.578   2.650  25.881  0.00  0.00    +0.214 C 
ATOM     29  H   UNL     1      -3.090   1.197  25.780  0.00  0.00    +0.149 HD
BRANCH   4  18
ATOM     18  C   UNL     1      -4.853   0.351  24.967  0.00  0.00    +0.139 C 
BRANCH  18  20
ATOM     20  C   UNL     1      -4.047  -0.892  24.727  0.00  0.00    -0.030 A 
ATOM     23  C   UNL     1      -2.795  -1.037  25.324  0.00  0.00    +0.005 A 
ATOM     24  C   UNL     1      -4.550  -1.902  23.908  0.00  0.00    +0.005 A 
ATOM     25  C   UNL     1      -2.045  -2.192  25.102  0.00  0.00    +0.000 A 
ATOM     26  C   UNL     1      -3.800  -3.058  23.686  0.00  0.00    +0.000 A 
ATOM     27  C   UNL     1      -2.548  -3.203  24.282  0.00  0.00    +0.000 A 
ENDBRANCH  18  20
ENDBRANCH   4  18
ENDBRANCH  12  14
ENDBRANCH   6  12
TORSDOF 9
ENDMDL
MODEL 8
REMARK VINA RESULT:      -2.4      2.185      3.407
REMARK  Name = 26742953
REMARK  10 active torsions:
REMARK  status: ('A' for Active; 'I' for Inactive)
REMARK    1  A    between atoms: N_4  and  C_18
REMARK    2  A    between atoms: C_6  and  C_12
REMARK    3  A    between atoms: C_7  and  C_10
REMARK    4  A    between atoms: C_10  and  C_13
REMARK    5  A    between atoms: C_12  and  C_14
REMARK    6  A    between atoms: C_16  and  C_17
REMARK    7  A    between atoms: C_17  and  C_19
REMARK    8  A    between atoms: C_18  and  C_20
REMARK    9  A    between atoms: C_19  and  C_21
REMARK   10  A    between atoms: C_21  and  C_22
REMARK                            x       y       z     vdW  Elec       q    Type
REMARK                         _______ _______ _______ _____ _____    ______ ____
ROOT
ATOM      3  N   UNL     1      -1.477   1.256  25.635  0.00  0.00    -0.316 NA
ATOM      6  C   UNL     1      -0.717  -1.464  24.781  0.00  0.00    +0.004 C 
ATOM      7  C   UNL     1      -0.146  -0.188  24.116  0.00  0.00    +0.012 C 
ATOM      8  C   UNL     1      -1.167  -1.125  26.212  0.00  0.00    +0.019 C 
ATOM      9  C   UNL     1      -1.115   0.999  24.240  0.00  0.00    +0.085 C 
ATOM     11  C   UNL     1      -2.093   0.088  26.260  0.00  0.00    +0.081 C 
ATOM     28  H   UNL     1      -2.125   2.042  25.675  0.00  0.00    +0.122 HD
ENDROOT
BRANCH   7  10
ATOM     10  C   UNL     1       0.257  -0.402  22.656  0.00  0.00    +0.064 C 
BRANCH  10  13
ATOM      1  O   UNL     1       3.556   0.222  21.357  0.00  0.00    -0.359 OA
ATOM      5  N   UNL     1       2.252  -0.239  21.231  0.00  0.00    -0.083 NA
ATOM     13  C   UNL     1       1.690  -0.020  22.423  0.00  0.00    +0.084 A 
ATOM     15  C   UNL     1       2.583   0.572  23.333  0.00  0.00    +0.071 A 
ATOM     16  C   UNL     1       3.742   0.703  22.614  0.00  0.00    +0.138 A 
BRANCH  16  17
ATOM     17  C   UNL     1       5.075   1.235  22.921  0.00  0.00    +0.077 C 
BRANCH  17  19
ATOM     19  C   UNL     1       6.084   0.140  23.332  0.00  0.00    +0.007 C 
BRANCH  19  21
ATOM     21  C   UNL     1       5.572  -0.728  24.482  0.00  0.00    -0.003 C 
ATOM     22  C   UNL     1       4.870  -1.975  23.970  0.00  0.00    +0.004 C 
ENDBRANCH  19  21
ENDBRANCH  17  19
ENDBRANCH  16  17
ENDBRANCH  10  13
ENDBRANCH   7  10
BRANCH   6  12
ATOM     12  C   UNL     1      -1.855  -2.122  23.992  0.00  0.00    +0.099 C 
BRANCH  12  14
ATOM      2  O   UNL     1      -3.761  -2.468  25.443  0.00  0.00    -0.276 OA
ATOM      4  N   UNL     1      -3.749  -0.656  23.988  0.00  0.00    -0.311 N 
ATOM     14  C   UNL     1      -3.216  -1.796  24.572  0.00  0.00    +0.214 C 
ATOM     29  H   UNL     1      -3.225  -0.180  23.259  0.00  0.00    +0.149 HD
BRANCH   4  18
ATOM     18  C   UNL     1      -5.039  -0.115  24.349  0.00  0.00    +0.139 C 
BRANCH  18  20
ATOM     20  C   UNL     1      -4.966   1.351  24.664  0.00  0.00    -0.030 A 
ATOM     23  C   UNL     1      -4.122   2.181  23.927  0.00  0.00    +0.005 A 
ATOM     24  C   UNL     1      -5.744   1.882  25.692  0.00  0.00    +0.005 A 
ATOM     25  C   UNL     1      -4.054   3.543  24.219  0.00  0.00    +0.000 A 
ATOM     26  C   UNL     1      -5.677   3.245  25.984  0.00  0.00    +0.000 A 
ATOM     27  C   UNL     1      -4.831   4.075  25.248  0.00  0.00    +0.000 A 
ENDBRANCH  18  20
ENDBRANCH   4  18
ENDBRANCH  12  14
ENDBRANCH   6  12
TORSDOF 9
ENDMDL
MODEL 9
REMARK VINA RESULT:      -2.3      1.936      5.786
REMARK  Name = 26742953
REMARK  10 active torsions:
REMARK  status: ('A' for Active; 'I' for Inactive)
REMARK    1  A    between atoms: N_4  and  C_18
REMARK    2  A    between atoms: C_6  and  C_12
REMARK    3  A    between atoms: C_7  and  C_10
REMARK    4  A    between atoms: C_10  and  C_13
REMARK    5  A    between atoms: C_12  and  C_14
REMARK    6  A    between atoms: C_16  and  C_17
REMARK    7  A    between atoms: C_17  and  C_19
REMARK    8  A    between atoms: C_18  and  C_20
REMARK    9  A    between atoms: C_19  and  C_21
REMARK   10  A    between atoms: C_21  and  C_22
REMARK                            x       y       z     vdW  Elec       q    Type
REMARK                         _______ _______ _______ _____ _____    ______ ____
ROOT
ATOM      3  N   UNL     1       4.081   0.267  21.594  0.00  0.00    -0.316 NA
ATOM      6  C   UNL     1       2.084   0.806  23.697  0.00  0.00    +0.004 C 
ATOM      7  C   UNL     1       1.905  -0.310  22.640  0.00  0.00    +0.012 C 
ATOM      8  C   UNL     1       3.583   1.105  23.863  0.00  0.00    +0.019 C 
ATOM      9  C   UNL     1       2.662   0.012  21.341  0.00  0.00    +0.085 C 
ATOM     11  C   UNL     1       4.275   1.373  22.529  0.00  0.00    +0.081 C 
ATOM     28  H   UNL     1       4.546   0.484  20.713  0.00  0.00    +0.122 HD
ENDROOT
BRANCH   7  10
ATOM     10  C   UNL     1       0.438  -0.624  22.342  0.00  0.00    +0.064 C 
BRANCH  10  13
ATOM      1  O   UNL     1      -0.805  -1.583  25.582  0.00  0.00    -0.359 OA
ATOM      5  N   UNL     1       0.152  -1.607  24.576  0.00  0.00    -0.083 NA
ATOM     13  C   UNL     1      -0.344  -0.832  23.607  0.00  0.00    +0.084 A 
ATOM     15  C   UNL     1      -1.599  -0.297  23.943  0.00  0.00    +0.071 A 
ATOM     16  C   UNL     1      -1.844  -0.800  25.194  0.00  0.00    +0.138 A 
BRANCH  16  17
ATOM     17  C   UNL     1      -2.952  -0.662  26.146  0.00  0.00    +0.077 C 
BRANCH  17  19
ATOM     19  C   UNL     1      -4.341  -0.718  25.470  0.00  0.00    +0.007 C 
BRANCH  19  21
ATOM     21  C   UNL     1      -4.306  -1.419  24.112  0.00  0.00    -0.003 C 
ATOM     22  C   UNL     1      -3.984  -2.898  24.257  0.00  0.00    +0.004 C 
ENDBRANCH  19  21
ENDBRANCH  17  19
ENDBRANCH  16  17
ENDBRANCH  10  13
ENDBRANCH   7  10
BRANCH   6  12
ATOM     12  C   UNL     1       1.303   2.089  23.387  0.00  0.00    +0.099 C 
BRANCH  12  14
ATOM      2  O   UNL     1       0.517   2.033  25.675  0.00  0.00    -0.276 OA
ATOM      4  N   UNL     1      -0.364   3.602  24.205  0.00  0.00    -0.311 N 
ATOM     14  C   UNL     1       0.462   2.546  24.561  0.00  0.00    +0.214 C 
ATOM     29  H   UNL     1      -0.349   3.943  23.247  0.00  0.00    +0.149 HD
BRANCH   4  18
ATOM     18  C   UNL     1      -1.277   4.235  25.128  0.00  0.00    +0.139 C 
BRANCH  18  20
ATOM     20  C   UNL     1      -2.664   3.669  25.024  0.00  0.00    -0.030 A 
ATOM     23  C   UNL     1      -3.036   2.938  23.896  0.00  0.00    +0.005 A 
ATOM     24  C   UNL     1      -3.579   3.874  26.057  0.00  0.00    +0.005 A 
ATOM     25  C   UNL     1      -4.325   2.412  23.799  0.00  0.00    +0.000 A 
ATOM     26  C   UNL     1      -4.868   3.347  25.960  0.00  0.00    +0.000 A 
ATOM     27  C   UNL     1      -5.241   2.617  24.832  0.00  0.00    +0.000 A 
ENDBRANCH  18  20
ENDBRANCH   4  18
ENDBRANCH  12  14
ENDBRANCH   6  12
TORSDOF 9
ENDMDL
MODEL 10
REMARK VINA RESULT:      -2.2      1.584      6.410
REMARK  Name = 26742953
REMARK  10 active torsions:
REMARK  status: ('A' for Active; 'I' for Inactive)
REMARK    1  A    between atoms: N_4  and  C_18
REMARK    2  A    between atoms: C_6  and  C_12
REMARK    3  A    between atoms: C_7  and  C_10
REMARK    4  A    between atoms: C_10  and  C_13
REMARK    5  A    between atoms: C_12  and  C_14
REMARK    6  A    between atoms: C_16  and  C_17
REMARK    7  A    between atoms: C_17  and  C_19
REMARK    8  A    between atoms: C_18  and  C_20
REMARK    9  A    between atoms: C_19  and  C_21
REMARK   10  A    between atoms: C_21  and  C_22
REMARK                            x       y       z     vdW  Elec       q    Type
REMARK                         _______ _______ _______ _____ _____    ______ ____
ROOT
ATOM      3  N   UNL     1      -4.157  -3.245  24.733  0.00  0.00    -0.316 NA
ATOM      6  C   UNL     1      -2.160  -1.075  24.741  0.00  0.00    +0.004 C 
ATOM      7  C   UNL     1      -3.548  -0.932  24.071  0.00  0.00    +0.012 C 
ATOM      8  C   UNL     1      -2.240  -2.149  25.837  0.00  0.00    +0.019 C 
ATOM      9  C   UNL     1      -4.105  -2.293  23.622  0.00  0.00    +0.085 C 
ATOM     11  C   UNL     1      -2.841  -3.458  25.329  0.00  0.00    +0.081 C 
ATOM     28  H   UNL     1      -4.523  -4.136  24.396  0.00  0.00    +0.122 HD
ENDROOT
BRANCH   7  10
ATOM     10  C   UNL     1      -3.552   0.060  22.906  0.00  0.00    +0.064 C 
BRANCH  10  13
ATOM      1  O   UNL     1      -1.785   3.178  23.243  0.00  0.00    -0.359 OA
ATOM      5  N   UNL     1      -2.057   1.984  22.589  0.00  0.00    -0.083 NA
ATOM     13  C   UNL     1      -3.005   1.394  23.323  0.00  0.00    +0.084 A 
ATOM     15  C   UNL     1      -3.368   2.163  24.442  0.00  0.00    +0.071 A 
ATOM     16  C   UNL     1      -2.572   3.274  24.346  0.00  0.00    +0.138 A 
BRANCH  16  17
ATOM     17  C   UNL     1      -2.413   4.485  25.160  0.00  0.00    +0.077 C 
BRANCH  17  19
ATOM     19  C   UNL     1      -3.229   4.442  26.473  0.00  0.00    +0.007 C 
BRANCH  19  21
ATOM     21  C   UNL     1      -4.556   3.700  26.316  0.00  0.00    -0.003 C 
ATOM     22  C   UNL     1      -5.587   4.550  25.592  0.00  0.00    +0.004 C 
ENDBRANCH  19  21
ENDBRANCH  17  19
ENDBRANCH  16  17
ENDBRANCH  10  13
ENDBRANCH   7  10
BRANCH   6  12
ATOM     12  C   UNL     1      -1.023  -1.381  23.758  0.00  0.00    +0.099 C 
BRANCH  12  14
ATOM      2  O   UNL     1       0.083   0.617  24.558  0.00  0.00    -0.276 OA
ATOM      4  N   UNL     1       0.856  -0.419  22.627  0.00  0.00    -0.311 N 
ATOM     14  C   UNL     1       0.014  -0.278  23.721  0.00  0.00    +0.214 C 
ATOM     29  H   UNL     1       0.704  -1.187  21.979  0.00  0.00    +0.149 HD
BRANCH   4  18
ATOM     18  C   UNL     1       1.937   0.495  22.342  0.00  0.00    +0.139 C 
BRANCH  18  20
ATOM     20  C   UNL     1       3.228   0.054  22.969  0.00  0.00    -0.030 A 
ATOM     23  C   UNL     1       4.277   0.960  23.117  0.00  0.00    +0.005 A 
ATOM     24  C   UNL     1       3.376  -1.263  23.405  0.00  0.00    +0.005 A 
ATOM     25  C   UNL     1       5.476   0.551  23.700  0.00  0.00    +0.000 A 
ATOM     26  C   UNL     1       4.576  -1.672  23.989  0.00  0.00    +0.000 A 
ATOM     27  C   UNL     1       5.626  -0.766  24.136  0.00  0.00    +0.000 A 
ENDBRANCH  18  20
ENDBRANCH   4  18
ENDBRANCH  12  14
ENDBRANCH   6  12
TORSDOF 9
ENDMDL
