MODEL 1
REMARK VINA RESULT:      -2.8      0.000      0.000
REMARK  Name = 26743070
REMARK  7 active torsions:
REMARK  status: ('A' for Active; 'I' for Inactive)
REMARK    1  A    between atoms: N_6  and  C_19
REMARK    2  A    between atoms: C_8  and  C_14
REMARK    3  A    between atoms: C_9  and  C_13
REMARK    4  A    between atoms: C_13  and  C_15
REMARK    5  A    between atoms: C_14  and  C_16
REMARK    6  A    between atoms: C_18  and  C_21
REMARK    7  A    between atoms: C_19  and  C_20
REMARK                            x       y       z     vdW  Elec       q    Type
REMARK                         _______ _______ _______ _____ _____    ______ ____
ROOT
ATOM      5  N   UNL     1       0.386  -7.798  12.083  0.00  0.00    -0.316 NA
ATOM      8  C   UNL     1      -1.426 -10.025  12.660  0.00  0.00    +0.004 C 
ATOM      9  C   UNL     1      -1.211  -9.507  11.218  0.00  0.00    +0.012 C 
ATOM     10  C   UNL     1      -1.124  -8.927  13.691  0.00  0.00    +0.019 C 
ATOM     11  C   UNL     1       0.187  -8.870  11.106  0.00  0.00    +0.085 C 
ATOM     12  C   UNL     1       0.248  -8.297  13.451  0.00  0.00    +0.081 C 
ATOM     33  H   UNL     1      -0.286  -7.049  11.924  0.00  0.00    +0.122 HD
ENDROOT
BRANCH   9  13
ATOM     13  C   UNL     1      -2.293  -8.529  10.743  0.00  0.00    +0.064 C 
BRANCH  13  15
ATOM      2  O   UNL     1      -4.753 -10.781   9.386  0.00  0.00    -0.354 OA
ATOM      7  N   UNL     1      -3.440 -10.382   9.607  0.00  0.00    -0.083 NA
ATOM     15  C   UNL     1      -3.537  -9.254  10.315  0.00  0.00    +0.085 A 
ATOM     17  C   UNL     1      -4.873  -8.895  10.569  0.00  0.00    +0.076 A 
ATOM     18  C   UNL     1      -5.596  -9.888   9.963  0.00  0.00    +0.167 A 
BRANCH  18  21
ATOM     21  C   UNL     1      -6.994 -10.171   9.817  0.00  0.00    +0.020 A 
ATOM     24  C   UNL     1      -7.575 -10.179   8.549  0.00  0.00    +0.011 A 
ATOM     25  C   UNL     1      -7.774 -10.437  10.942  0.00  0.00    +0.011 A 
ATOM     29  C   UNL     1      -8.935 -10.454   8.406  0.00  0.00    +0.001 A 
ATOM     30  C   UNL     1      -9.134 -10.712  10.800  0.00  0.00    +0.001 A 
ATOM     32  C   UNL     1      -9.715 -10.721   9.532  0.00  0.00    +0.000 A 
ENDBRANCH  18  21
ENDBRANCH  13  15
ENDBRANCH   9  13
BRANCH   8  14
ATOM     14  C   UNL     1      -2.814 -10.621  12.891  0.00  0.00    +0.099 C 
BRANCH  14  16
ATOM      1  O   UNL     1      -2.368 -10.755  15.265  0.00  0.00    -0.276 OA
ATOM      6  N   UNL     1      -4.561 -10.540  14.527  0.00  0.00    -0.311 N 
ATOM     16  C   UNL     1      -3.189 -10.648  14.358  0.00  0.00    +0.214 C 
ATOM     34  H   UNL     1      -5.162 -10.464  13.711  0.00  0.00    +0.149 HD
BRANCH   6  19
ATOM     19  C   UNL     1      -5.199 -10.539  15.823  0.00  0.00    +0.139 C 
BRANCH  19  20
ATOM      3  O   UNL     1      -9.206  -8.258  17.615  0.00  0.00    -0.453 OA
ATOM      4  O   UNL     1     -10.513  -8.761  15.655  0.00  0.00    -0.453 OA
ATOM     20  C   UNL     1      -6.627 -10.081  15.745  0.00  0.00    -0.027 A 
ATOM     22  C   UNL     1      -7.184  -9.363  16.806  0.00  0.00    +0.054 A 
ATOM     23  C   UNL     1      -7.390 -10.373  14.602  0.00  0.00    +0.009 A 
ATOM     26  C   UNL     1      -8.499  -8.960  16.687  0.00  0.00    +0.167 A 
ATOM     27  C   UNL     1      -9.245  -9.247  15.568  0.00  0.00    +0.166 A 
ATOM     28  C   UNL     1      -8.720  -9.953  14.506  0.00  0.00    +0.050 A 
ATOM     31  C   UNL     1     -10.480  -8.135  16.953  0.00  0.00    +0.466 C 
ENDBRANCH  19  20
ENDBRANCH   6  19
ENDBRANCH  14  16
ENDBRANCH   8  14
TORSDOF 7
ENDMDL
MODEL 2
REMARK VINA RESULT:      -2.7     14.256     17.387
REMARK  Name = 26743070
REMARK  7 active torsions:
REMARK  status: ('A' for Active; 'I' for Inactive)
REMARK    1  A    between atoms: N_6  and  C_19
REMARK    2  A    between atoms: C_8  and  C_14
REMARK    3  A    between atoms: C_9  and  C_13
REMARK    4  A    between atoms: C_13  and  C_15
REMARK    5  A    between atoms: C_14  and  C_16
REMARK    6  A    between atoms: C_18  and  C_21
REMARK    7  A    between atoms: C_19  and  C_20
REMARK                            x       y       z     vdW  Elec       q    Type
REMARK                         _______ _______ _______ _____ _____    ______ ____
ROOT
ATOM      5  N   UNL     1      -0.169   4.632  24.805  0.00  0.00    -0.316 NA
ATOM      8  C   UNL     1      -3.037   4.274  25.270  0.00  0.00    +0.004 C 
ATOM      9  C   UNL     1      -2.090   3.065  25.079  0.00  0.00    +0.012 C 
ATOM     10  C   UNL     1      -2.467   5.533  24.599  0.00  0.00    +0.019 C 
ATOM     11  C   UNL     1      -0.667   3.456  25.520  0.00  0.00    +0.085 C 
ATOM     12  C   UNL     1      -1.026   5.794  25.035  0.00  0.00    +0.081 C 
ATOM     33  H   UNL     1      -0.117   4.438  23.806  0.00  0.00    +0.122 HD
ENDROOT
BRANCH   9  13
ATOM     13  C   UNL     1      -2.080   2.505  23.650  0.00  0.00    +0.064 C 
BRANCH  13  15
ATOM      2  O   UNL     1       0.235  -0.106  22.765  0.00  0.00    -0.354 OA
ATOM      7  N   UNL     1      -1.043   0.436  22.823  0.00  0.00    -0.083 NA
ATOM     15  C   UNL     1      -0.887   1.623  23.416  0.00  0.00    +0.085 A 
ATOM     17  C   UNL     1       0.453   1.880  23.753  0.00  0.00    +0.076 A 
ATOM     18  C   UNL     1       1.117   0.762  23.322  0.00  0.00    +0.167 A 
BRANCH  18  21
ATOM     21  C   UNL     1       2.485   0.335  23.334  0.00  0.00    +0.020 A 
ATOM     24  C   UNL     1       3.497   1.228  22.982  0.00  0.00    +0.011 A 
ATOM     25  C   UNL     1       2.806  -0.972  23.699  0.00  0.00    +0.011 A 
ATOM     29  C   UNL     1       4.829   0.814  22.995  0.00  0.00    +0.001 A 
ATOM     30  C   UNL     1       4.137  -1.387  23.711  0.00  0.00    +0.001 A 
ATOM     32  C   UNL     1       5.149  -0.494  23.359  0.00  0.00    +0.000 A 
ENDBRANCH  18  21
ENDBRANCH  13  15
ENDBRANCH   9  13
BRANCH   8  14
ATOM     14  C   UNL     1      -4.466   4.006  24.798  0.00  0.00    +0.099 C 
BRANCH  14  16
ATOM      1  O   UNL     1      -5.546   2.644  26.480  0.00  0.00    -0.276 OA
ATOM      6  N   UNL     1      -4.872   1.668  24.481  0.00  0.00    -0.311 N 
ATOM     16  C   UNL     1      -5.027   2.722  25.369  0.00  0.00    +0.214 C 
ATOM     34  H   UNL     1      -4.420   1.830  23.586  0.00  0.00    +0.149 HD
BRANCH   6  19
ATOM     19  C   UNL     1      -5.316   0.323  24.767  0.00  0.00    +0.139 C 
BRANCH  19  20
ATOM      3  O   UNL     1      -0.744  -1.174  25.916  0.00  0.00    -0.453 OA
ATOM      4  O   UNL     1      -1.007  -3.262  24.743  0.00  0.00    -0.453 OA
ATOM     20  C   UNL     1      -4.182  -0.660  24.737  0.00  0.00    -0.027 A 
ATOM     22  C   UNL     1      -2.985  -0.359  25.394  0.00  0.00    +0.054 A 
ATOM     23  C   UNL     1      -4.334  -1.879  24.054  0.00  0.00    +0.009 A 
ATOM     26  C   UNL     1      -1.972  -1.294  25.341  0.00  0.00    +0.167 A 
ATOM     27  C   UNL     1      -2.122  -2.486  24.671  0.00  0.00    +0.166 A 
ATOM     28  C   UNL     1      -3.292  -2.810  24.016  0.00  0.00    +0.050 A 
ATOM     31  C   UNL     1      -0.138  -2.425  25.533  0.00  0.00    +0.466 C 
ENDBRANCH  19  20
ENDBRANCH   6  19
ENDBRANCH  14  16
ENDBRANCH   8  14
TORSDOF 7
ENDMDL
MODEL 3
REMARK VINA RESULT:      -0.7     14.349     17.524
REMARK  Name = 26743070
REMARK  7 active torsions:
REMARK  status: ('A' for Active; 'I' for Inactive)
REMARK    1  A    between atoms: N_6  and  C_19
REMARK    2  A    between atoms: C_8  and  C_14
REMARK    3  A    between atoms: C_9  and  C_13
REMARK    4  A    between atoms: C_13  and  C_15
REMARK    5  A    between atoms: C_14  and  C_16
REMARK    6  A    between atoms: C_18  and  C_21
REMARK    7  A    between atoms: C_19  and  C_20
REMARK                            x       y       z     vdW  Elec       q    Type
REMARK                         _______ _______ _______ _____ _____    ______ ____
ROOT
ATOM      5  N   UNL     1      -1.697   4.231  23.956  0.00  0.00    -0.316 NA
ATOM      8  C   UNL     1      -4.309   4.079  25.270  0.00  0.00    +0.004 C 
ATOM      9  C   UNL     1      -3.001   4.235  26.082  0.00  0.00    +0.012 C 
ATOM     10  C   UNL     1      -4.038   3.422  23.908  0.00  0.00    +0.019 C 
ATOM     11  C   UNL     1      -1.941   4.939  25.214  0.00  0.00    +0.085 C 
ATOM     12  C   UNL     1      -2.917   4.139  23.156  0.00  0.00    +0.081 C 
ATOM     33  H   UNL     1      -1.340   3.296  24.144  0.00  0.00    +0.122 HD
ENDROOT
BRANCH   9  13
ATOM     13  C   UNL     1      -2.456   2.913  26.639  0.00  0.00    +0.064 C 
BRANCH  13  15
ATOM      2  O   UNL     1       0.938   2.366  25.569  0.00  0.00    -0.354 OA
ATOM      7  N   UNL     1      -0.007   2.904  26.434  0.00  0.00    -0.083 NA
ATOM     15  C   UNL     1      -1.186   2.509  25.946  0.00  0.00    +0.085 A 
ATOM     17  C   UNL     1      -1.049   1.727  24.786  0.00  0.00    +0.076 A 
ATOM     18  C   UNL     1       0.306   1.668  24.592  0.00  0.00    +0.167 A 
BRANCH  18  21
ATOM     21  C   UNL     1       1.158   1.050  23.619  0.00  0.00    +0.020 A 
ATOM     24  C   UNL     1       2.494   1.437  23.516  0.00  0.00    +0.011 A 
ATOM     25  C   UNL     1       0.653   0.063  22.775  0.00  0.00    +0.011 A 
ATOM     29  C   UNL     1       3.324   0.836  22.570  0.00  0.00    +0.001 A 
ATOM     30  C   UNL     1       1.481  -0.539  21.828  0.00  0.00    +0.001 A 
ATOM     32  C   UNL     1       2.818  -0.152  21.725  0.00  0.00    +0.000 A 
ENDBRANCH  18  21
ENDBRANCH  13  15
ENDBRANCH   9  13
BRANCH   8  14
ATOM     14  C   UNL     1      -5.407   3.332  26.025  0.00  0.00    +0.099 C 
BRANCH  14  16
ATOM      1  O   UNL     1      -6.999   2.133  24.652  0.00  0.00    -0.276 OA
ATOM      6  N   UNL     1      -5.036   1.076  25.311  0.00  0.00    -0.311 N 
ATOM     16  C   UNL     1      -5.925   2.139  25.250  0.00  0.00    +0.214 C 
ATOM     34  H   UNL     1      -4.174   1.174  25.839  0.00  0.00    +0.149 HD
BRANCH   6  19
ATOM     19  C   UNL     1      -5.275  -0.192  24.661  0.00  0.00    +0.139 C 
BRANCH  19  20
ATOM      3  O   UNL     1      -0.604  -1.239  25.904  0.00  0.00    -0.453 OA
ATOM      4  O   UNL     1      -0.626  -3.323  24.696  0.00  0.00    -0.453 OA
ATOM     20  C   UNL     1      -4.047  -1.055  24.647  0.00  0.00    -0.027 A 
ATOM     22  C   UNL     1      -2.903  -0.645  25.337  0.00  0.00    +0.054 A 
ATOM     23  C   UNL     1      -4.059  -2.271  23.942  0.00  0.00    +0.009 A 
ATOM     26  C   UNL     1      -1.800  -1.473  25.298  0.00  0.00    +0.167 A 
ATOM     27  C   UNL     1      -1.812  -2.663  24.607  0.00  0.00    +0.166 A 
ATOM     28  C   UNL     1      -2.928  -3.091  23.918  0.00  0.00    +0.050 A 
ATOM     31  C   UNL     1       0.134  -2.416  25.519  0.00  0.00    +0.466 C 
ENDBRANCH  19  20
ENDBRANCH   6  19
ENDBRANCH  14  16
ENDBRANCH   8  14
TORSDOF 7
ENDMDL
MODEL 4
REMARK VINA RESULT:       0.5     14.478     17.963
REMARK  Name = 26743070
REMARK  7 active torsions:
REMARK  status: ('A' for Active; 'I' for Inactive)
REMARK    1  A    between atoms: N_6  and  C_19
REMARK    2  A    between atoms: C_8  and  C_14
REMARK    3  A    between atoms: C_9  and  C_13
REMARK    4  A    between atoms: C_13  and  C_15
REMARK    5  A    between atoms: C_14  and  C_16
REMARK    6  A    between atoms: C_18  and  C_21
REMARK    7  A    between atoms: C_19  and  C_20
REMARK                            x       y       z     vdW  Elec       q    Type
REMARK                         _______ _______ _______ _____ _____    ______ ____
ROOT
ATOM      5  N   UNL     1      -3.875   4.249  26.632  0.00  0.00    -0.316 NA
ATOM      8  C   UNL     1      -1.387   4.197  25.087  0.00  0.00    +0.004 C 
ATOM      9  C   UNL     1      -2.609   5.030  24.630  0.00  0.00    +0.012 C 
ATOM     10  C   UNL     1      -1.822   3.024  25.978  0.00  0.00    +0.019 C 
ATOM     11  C   UNL     1      -3.453   5.418  25.859  0.00  0.00    +0.085 C 
ATOM     12  C   UNL     1      -2.721   3.494  27.121  0.00  0.00    +0.081 C 
ATOM     33  H   UNL     1      -4.461   3.643  26.060  0.00  0.00    +0.122 HD
ENDROOT
BRANCH   9  13
ATOM     13  C   UNL     1      -3.477   4.330  23.575  0.00  0.00    +0.064 C 
BRANCH  13  15
ATOM      2  O   UNL     1      -5.021   1.368  24.918  0.00  0.00    -0.354 OA
ATOM      7  N   UNL     1      -4.986   2.737  24.680  0.00  0.00    -0.083 NA
ATOM     15  C   UNL     1      -3.851   2.941  24.007  0.00  0.00    +0.085 A 
ATOM     17  C   UNL     1      -3.134   1.750  23.794  0.00  0.00    +0.076 A 
ATOM     18  C   UNL     1      -3.913   0.792  24.386  0.00  0.00    +0.167 A 
BRANCH  18  21
ATOM     21  C   UNL     1      -3.809  -0.628  24.554  0.00  0.00    +0.020 A 
ATOM     24  C   UNL     1      -4.243  -1.484  23.541  0.00  0.00    +0.011 A 
ATOM     25  C   UNL     1      -3.275  -1.155  25.729  0.00  0.00    +0.011 A 
ATOM     29  C   UNL     1      -4.142  -2.865  23.704  0.00  0.00    +0.001 A 
ATOM     30  C   UNL     1      -3.173  -2.536  25.893  0.00  0.00    +0.001 A 
ATOM     32  C   UNL     1      -3.607  -3.391  24.880  0.00  0.00    +0.000 A 
ENDBRANCH  18  21
ENDBRANCH  13  15
ENDBRANCH   9  13
BRANCH   8  14
ATOM     14  C   UNL     1      -0.519   3.707  23.930  0.00  0.00    +0.099 C 
BRANCH  14  16
ATOM      1  O   UNL     1       0.603   2.062  25.304  0.00  0.00    -0.276 OA
ATOM      6  N   UNL     1       0.066   1.536  23.104  0.00  0.00    -0.311 N 
ATOM     16  C   UNL     1       0.114   2.362  24.218  0.00  0.00    +0.214 C 
ATOM     34  H   UNL     1      -0.353   1.878  22.245  0.00  0.00    +0.149 HD
BRANCH   6  19
ATOM     19  C   UNL     1       0.598   0.193  23.094  0.00  0.00    +0.139 C 
BRANCH  19  20
ATOM      3  O   UNL     1       4.981  -1.871  24.091  0.00  0.00    -0.453 OA
ATOM      4  O   UNL     1       6.199   0.029  23.249  0.00  0.00    -0.453 OA
ATOM     20  C   UNL     1       2.099   0.185  23.122  0.00  0.00    -0.027 A 
ATOM     22  C   UNL     1       2.778  -0.926  23.632  0.00  0.00    +0.054 A 
ATOM     23  C   UNL     1       2.811   1.293  22.631  0.00  0.00    +0.009 A 
ATOM     26  C   UNL     1       4.157  -0.889  23.635  0.00  0.00    +0.167 A 
ATOM     27  C   UNL     1       4.852   0.196  23.155  0.00  0.00    +0.166 A 
ATOM     28  C   UNL     1       4.208   1.305  22.645  0.00  0.00    +0.050 A 
ATOM     31  C   UNL     1       6.273  -1.282  23.843  0.00  0.00    +0.466 C 
ENDBRANCH  19  20
ENDBRANCH   6  19
ENDBRANCH  14  16
ENDBRANCH   8  14
TORSDOF 7
ENDMDL
MODEL 5
REMARK VINA RESULT:       0.7     14.692     17.470
REMARK  Name = 26743070
REMARK  7 active torsions:
REMARK  status: ('A' for Active; 'I' for Inactive)
REMARK    1  A    between atoms: N_6  and  C_19
REMARK    2  A    between atoms: C_8  and  C_14
REMARK    3  A    between atoms: C_9  and  C_13
REMARK    4  A    between atoms: C_13  and  C_15
REMARK    5  A    between atoms: C_14  and  C_16
REMARK    6  A    between atoms: C_18  and  C_21
REMARK    7  A    between atoms: C_19  and  C_20
REMARK                            x       y       z     vdW  Elec       q    Type
REMARK                         _______ _______ _______ _____ _____    ______ ____
ROOT
ATOM      5  N   UNL     1      -0.499  -1.186  26.112  0.00  0.00    -0.316 NA
ATOM      8  C   UNL     1      -3.161  -1.897  25.119  0.00  0.00    +0.004 C 
ATOM      9  C   UNL     1      -1.893  -2.089  24.252  0.00  0.00    +0.012 C 
ATOM     10  C   UNL     1      -2.946  -0.801  26.174  0.00  0.00    +0.019 C 
ATOM     11  C   UNL     1      -0.672  -2.291  25.168  0.00  0.00    +0.085 C 
ATOM     12  C   UNL     1      -1.669  -1.043  26.978  0.00  0.00    +0.081 C 
ATOM     33  H   UNL     1      -0.339  -0.316  25.607  0.00  0.00    +0.122 HD
ENDROOT
BRANCH   9  13
ATOM     13  C   UNL     1      -1.643  -0.946  23.258  0.00  0.00    +0.064 C 
BRANCH  13  15
ATOM      2  O   UNL     1       1.342   1.016  23.707  0.00  0.00    -0.354 OA
ATOM      7  N   UNL     1      -0.040   0.867  23.682  0.00  0.00    -0.083 NA
ATOM     15  C   UNL     1      -0.243  -0.417  23.374  0.00  0.00    +0.085 A 
ATOM     17  C   UNL     1       0.961  -1.120  23.194  0.00  0.00    +0.076 A 
ATOM     18  C   UNL     1       1.926  -0.174  23.414  0.00  0.00    +0.167 A 
BRANCH  18  21
ATOM     21  C   UNL     1       3.360  -0.175  23.402  0.00  0.00    +0.020 A 
ATOM     24  C   UNL     1       4.054   0.952  22.960  0.00  0.00    +0.011 A 
ATOM     25  C   UNL     1       4.061  -1.301  23.832  0.00  0.00    +0.011 A 
ATOM     29  C   UNL     1       5.449   0.951  22.948  0.00  0.00    +0.001 A 
ATOM     30  C   UNL     1       5.455  -1.302  23.820  0.00  0.00    +0.001 A 
ATOM     32  C   UNL     1       6.150  -0.176  23.379  0.00  0.00    +0.000 A 
ENDBRANCH  18  21
ENDBRANCH  13  15
ENDBRANCH   9  13
BRANCH   8  14
ATOM     14  C   UNL     1      -4.422  -1.623  24.301  0.00  0.00    +0.099 C 
BRANCH  14  16
ATOM      1  O   UNL     1      -4.049   0.396  23.021  0.00  0.00    -0.276 OA
ATOM      6  N   UNL     1      -5.414   0.472  24.901  0.00  0.00    -0.311 N 
ATOM     16  C   UNL     1      -4.588  -0.153  23.979  0.00  0.00    +0.214 C 
ATOM     34  H   UNL     1      -5.807  -0.067  25.667  0.00  0.00    +0.149 HD
BRANCH   6  19
ATOM     19  C   UNL     1      -5.746   1.877  24.838  0.00  0.00    +0.139 C 
BRANCH  19  20
ATOM      3  O   UNL     1      -1.184   3.457  23.766  0.00  0.00    -0.453 OA
ATOM      4  O   UNL     1      -1.196   5.071  25.555  0.00  0.00    -0.453 OA
ATOM     20  C   UNL     1      -4.543   2.747  25.061  0.00  0.00    -0.027 A 
ATOM     22  C   UNL     1      -3.429   2.618  24.227  0.00  0.00    +0.054 A 
ATOM     23  C   UNL     1      -4.550   3.689  26.104  0.00  0.00    +0.009 A 
ATOM     26  C   UNL     1      -2.349   3.442  24.469  0.00  0.00    +0.167 A 
ATOM     27  C   UNL     1      -2.356   4.363  25.490  0.00  0.00    +0.166 A 
ATOM     28  C   UNL     1      -3.442   4.512  26.327  0.00  0.00    +0.050 A 
ATOM     31  C   UNL     1      -0.458   4.492  24.459  0.00  0.00    +0.466 C 
ENDBRANCH  19  20
ENDBRANCH   6  19
ENDBRANCH  14  16
ENDBRANCH   8  14
TORSDOF 7
ENDMDL
