MODEL 1
REMARK VINA RESULT:       2.4      0.000      0.000
REMARK  Name = 28960083
REMARK  7 active torsions:
REMARK  status: ('A' for Active; 'I' for Inactive)
REMARK    1  A    between atoms: O_2  and  C_23
REMARK    2  A    between atoms: N_6  and  C_16
REMARK    3  A    between atoms: N_8  and  C_25
REMARK    4  A    between atoms: C_10  and  C_14
REMARK    5  A    between atoms: C_11  and  C_17
REMARK    6  A    between atoms: C_14  and  C_16
REMARK    7  A    between atoms: C_17  and  C_23
REMARK                            x       y       z     vdW  Elec       q    Type
REMARK                         _______ _______ _______ _____ _____    ______ ____
ROOT
ATOM      3  O   UNL     1      -0.301  -1.108  26.008  0.00  0.00    -0.252 OA
ATOM      5  N   UNL     1      -2.213  -0.988  24.716  0.00  0.00    -0.285 N 
ATOM      8  N   UNL     1      -0.099  -1.236  23.701  0.00  0.00    -0.269 N 
ATOM     10  C   UNL     1      -3.735   0.286  23.230  0.00  0.00    +0.011 C 
ATOM     11  C   UNL     1      -4.665   0.528  24.449  0.00  0.00    +0.006 C 
ATOM     12  C   UNL     1      -2.943  -1.015  23.439  0.00  0.00    +0.113 C 
ATOM     13  C   UNL     1      -3.893   0.459  25.779  0.00  0.00    +0.023 C 
ATOM     15  C   UNL     1      -3.076  -0.829  25.888  0.00  0.00    +0.109 C 
ATOM     22  C   UNL     1      -0.820  -1.122  24.889  0.00  0.00    +0.306 C 
ATOM     35  H   UNL     1      -0.554  -1.654  22.898  0.00  0.00    +0.156 HD
ENDROOT
BRANCH   8  25
ATOM      1  F   UNL     1       5.107   0.423  22.749  0.00  0.00    -0.205 F 
ATOM     25  C   UNL     1       1.231  -0.812  23.458  0.00  0.00    +0.035 A 
ATOM     28  C   UNL     1       1.469   0.381  22.774  0.00  0.00    +0.026 A 
ATOM     29  C   UNL     1       2.302  -1.587  23.901  0.00  0.00    +0.026 A 
ATOM     32  C   UNL     1       2.778   0.798  22.535  0.00  0.00    +0.040 A 
ATOM     33  C   UNL     1       3.612  -1.170  23.662  0.00  0.00    +0.040 A 
ATOM     34  C   UNL     1       3.850   0.022  22.979  0.00  0.00    +0.124 A 
ENDBRANCH   8  25
BRANCH  10  14
ATOM     14  C   UNL     1      -2.785   1.450  22.927  0.00  0.00    +0.020 C 
BRANCH  14  16
ATOM     16  C   UNL     1      -3.164   2.684  23.735  0.00  0.00    +0.085 C 
BRANCH  16   6
ATOM      6  N   UNL     1      -2.055   3.064  24.610  0.00  0.00    -0.299 NA
ATOM      7  N   UNL     1      -0.198   2.743  26.756  0.00  0.00    -0.313 N 
ATOM      9  N   UNL     1       2.019   3.067  27.520  0.00  0.00    -0.240 NA
ATOM     18  C   UNL     1      -0.959   2.093  24.506  0.00  0.00    +0.103 C 
ATOM     19  C   UNL     1      -2.507   3.160  26.004  0.00  0.00    +0.103 C 
ATOM     20  C   UNL     1       0.230   2.510  25.374  0.00  0.00    +0.122 C 
ATOM     21  C   UNL     1      -1.369   3.612  26.921  0.00  0.00    +0.122 C 
ATOM     24  C   UNL     1       0.744   2.706  27.790  0.00  0.00    +0.121 A 
ATOM     26  C   UNL     1       0.301   2.297  29.038  0.00  0.00    +0.043 A 
ATOM     27  C   UNL     1       1.226   2.256  30.076  0.00  0.00    +0.005 A 
ATOM     30  C   UNL     1       2.888   3.014  28.554  0.00  0.00    +0.113 A 
ATOM     31  C   UNL     1       2.546   2.620  29.837  0.00  0.00    +0.020 A 
ENDBRANCH  16   6
ENDBRANCH  14  16
ENDBRANCH  10  14
BRANCH  11  17
ATOM     17  C   UNL     1      -5.454   1.832  24.351  0.00  0.00    +0.124 C 
BRANCH  17  23
ATOM      4  O   UNL     1      -6.547   1.452  26.497  0.00  0.00    -0.251 OA
ATOM     23  C   UNL     1      -6.063   2.214  25.673  0.00  0.00    +0.305 C 
BRANCH  23   2
ATOM      2  O   UNL     1      -6.001   3.560  25.834  0.00  0.00    -0.481 OA
ATOM     36  H   UNL     1      -6.665   3.881  26.481  0.00  0.00    +0.295 HD
ENDBRANCH  23   2
ENDBRANCH  17  23
ENDBRANCH  11  17
TORSDOF 7
ENDMDL
MODEL 2
REMARK VINA RESULT:       6.1      3.353      5.881
REMARK  Name = 28960083
REMARK  7 active torsions:
REMARK  status: ('A' for Active; 'I' for Inactive)
REMARK    1  A    between atoms: O_2  and  C_23
REMARK    2  A    between atoms: N_6  and  C_16
REMARK    3  A    between atoms: N_8  and  C_25
REMARK    4  A    between atoms: C_10  and  C_14
REMARK    5  A    between atoms: C_11  and  C_17
REMARK    6  A    between atoms: C_14  and  C_16
REMARK    7  A    between atoms: C_17  and  C_23
REMARK                            x       y       z     vdW  Elec       q    Type
REMARK                         _______ _______ _______ _____ _____    ______ ____
ROOT
ATOM      3  O   UNL     1      -5.430   0.933  26.451  0.00  0.00    -0.252 OA
ATOM      5  N   UNL     1      -4.802   2.623  25.004  0.00  0.00    -0.285 N 
ATOM      8  N   UNL     1      -4.851   0.381  24.273  0.00  0.00    -0.269 N 
ATOM     10  C   UNL     1      -3.043   3.883  23.793  0.00  0.00    +0.011 C 
ATOM     11  C   UNL     1      -3.133   4.985  24.883  0.00  0.00    +0.006 C 
ATOM     12  C   UNL     1      -4.390   3.148  23.693  0.00  0.00    +0.113 C 
ATOM     13  C   UNL     1      -3.655   4.427  26.220  0.00  0.00    +0.023 C 
ATOM     15  C   UNL     1      -4.960   3.653  26.032  0.00  0.00    +0.109 C 
ATOM     22  C   UNL     1      -5.067   1.274  25.322  0.00  0.00    +0.306 C 
ATOM     35  H   UNL     1      -4.973   0.713  23.323  0.00  0.00    +0.156 HD
ENDROOT
BRANCH   8  25
ATOM      1  F   UNL     1      -3.296  -4.929  24.639  0.00  0.00    -0.205 F 
ATOM     25  C   UNL     1      -4.454  -0.975  24.366  0.00  0.00    +0.035 A 
ATOM     28  C   UNL     1      -4.854  -1.888  23.390  0.00  0.00    +0.026 A 
ATOM     29  C   UNL     1      -3.664  -1.398  25.434  0.00  0.00    +0.026 A 
ATOM     32  C   UNL     1      -4.462  -3.224  23.482  0.00  0.00    +0.040 A 
ATOM     33  C   UNL     1      -3.272  -2.734  25.527  0.00  0.00    +0.040 A 
ATOM     34  C   UNL     1      -3.671  -3.647  24.551  0.00  0.00    +0.124 A 
ENDBRANCH   8  25
BRANCH  10  14
ATOM     14  C   UNL     1      -1.901   2.883  24.010  0.00  0.00    +0.020 C 
BRANCH  14  16
ATOM     16  C   UNL     1      -2.272   1.509  23.468  0.00  0.00    +0.085 C 
BRANCH  16   6
ATOM      6  N   UNL     1      -1.065   0.706  23.281  0.00  0.00    -0.299 NA
ATOM      7  N   UNL     1       1.720   0.099  23.472  0.00  0.00    -0.313 N 
ATOM      9  N   UNL     1       3.361  -1.565  23.846  0.00  0.00    -0.240 NA
ATOM     18  C   UNL     1      -0.466   0.365  24.577  0.00  0.00    +0.103 C 
ATOM     19  C   UNL     1      -0.089   1.426  22.453  0.00  0.00    +0.103 C 
ATOM     20  C   UNL     1       0.767  -0.523  24.397  0.00  0.00    +0.122 C 
ATOM     21  C   UNL     1       1.156   0.573  22.203  0.00  0.00    +0.122 C 
ATOM     24  C   UNL     1       3.062  -0.296  23.489  0.00  0.00    +0.121 A 
ATOM     26  C   UNL     1       4.007   0.654  23.133  0.00  0.00    +0.043 A 
ATOM     27  C   UNL     1       5.345   0.275  23.145  0.00  0.00    +0.005 A 
ATOM     30  C   UNL     1       4.673  -1.895  23.845  0.00  0.00    +0.113 A 
ATOM     31  C   UNL     1       5.692  -1.021  23.506  0.00  0.00    +0.020 A 
ENDBRANCH  16   6
ENDBRANCH  14  16
ENDBRANCH  10  14
BRANCH  11  17
ATOM     17  C   UNL     1      -1.817   5.733  25.089  0.00  0.00    +0.124 C 
BRANCH  17  23
ATOM      4  O   UNL     1      -0.330   3.918  25.752  0.00  0.00    -0.251 OA
ATOM     23  C   UNL     1      -0.632   4.813  24.976  0.00  0.00    +0.305 C 
BRANCH  23   2
ATOM      2  O   UNL     1       0.081   5.118  23.862  0.00  0.00    -0.481 OA
ATOM     36  H   UNL     1       0.688   5.875  24.013  0.00  0.00    +0.295 HD
ENDBRANCH  23   2
ENDBRANCH  17  23
ENDBRANCH  11  17
TORSDOF 7
ENDMDL
