MODEL 1
REMARK VINA RESULT:      17.1      0.000      0.000
REMARK  Name = 45360525
REMARK  12 active torsions:
REMARK  status: ('A' for Active; 'I' for Inactive)
REMARK    1  A    between atoms: O_3  and  C_25
REMARK    2  A    between atoms: O_3  and  C_39
REMARK    3  A    between atoms: N_6  and  C_22
REMARK    4  A    between atoms: C_8  and  C_12
REMARK    5  A    between atoms: C_9  and  C_14
REMARK    6  A    between atoms: C_12  and  C_15
REMARK    7  A    between atoms: C_14  and  C_16
REMARK    8  A    between atoms: C_23  and  C_24
REMARK    9  A    between atoms: C_27  and  C_28
REMARK   10  A    between atoms: C_27  and  C_35
REMARK   11  A    between atoms: C_27  and  C_36
REMARK   12  A    between atoms: C_27  and  C_37
REMARK                            x       y       z     vdW  Elec       q    Type
REMARK                         _______ _______ _______ _____ _____    ______ ____
ROOT
ATOM      4  N   UNL     1      -1.351  -0.653  26.639  0.00  0.00    -0.316 NA
ATOM      8  C   UNL     1      -1.520  -2.568  24.400  0.00  0.00    +0.004 C 
ATOM      9  C   UNL     1      -0.474  -1.429  24.449  0.00  0.00    +0.012 C 
ATOM     10  C   UNL     1      -1.958  -2.908  25.835  0.00  0.00    +0.019 C 
ATOM     11  C   UNL     1      -0.969  -0.239  25.288  0.00  0.00    +0.085 C 
ATOM     13  C   UNL     1      -2.398  -1.672  26.619  0.00  0.00    +0.081 C 
ATOM     40  H   UNL     1      -1.680   0.159  27.160  0.00  0.00    +0.122 HD
ENDROOT
BRANCH   8  12
ATOM     12  C   UNL     1      -2.736  -2.261  23.516  0.00  0.00    +0.100 C 
BRANCH  12  15
ATOM      1  O   UNL     1      -4.396  -1.930  25.175  0.00  0.00    -0.276 OA
ATOM      5  N   UNL     1      -3.816  -0.076  23.903  0.00  0.00    -0.298 N 
ATOM      6  N   UNL     1      -3.221   2.674  24.111  0.00  0.00    -0.324 N 
ATOM     15  C   UNL     1      -3.726  -1.416  24.277  0.00  0.00    +0.216 C 
ATOM     17  C   UNL     1      -4.764   0.812  24.568  0.00  0.00    +0.126 C 
ATOM     18  C   UNL     1      -3.038   0.570  22.844  0.00  0.00    +0.126 C 
ATOM     19  C   UNL     1      -4.050   2.033  25.144  0.00  0.00    +0.124 C 
ATOM     20  C   UNL     1      -2.296   1.790  23.387  0.00  0.00    +0.124 C 
BRANCH   6  22
ATOM     22  C   UNL     1      -2.893   4.024  24.285  0.00  0.00    +0.072 A 
ATOM     25  C   UNL     1      -1.927   4.405  25.216  0.00  0.00    +0.141 A 
ATOM     26  C   UNL     1      -3.541   4.991  23.517  0.00  0.00    +0.027 A 
ATOM     31  C   UNL     1      -1.608   5.753  25.378  0.00  0.00    +0.047 A 
ATOM     34  C   UNL     1      -3.223   6.339  23.680  0.00  0.00    +0.002 A 
ATOM     38  C   UNL     1      -2.257   6.720  24.610  0.00  0.00    +0.004 A 
BRANCH  25   3
ATOM      3  O   UNL     1      -1.282   3.475  25.977  0.00  0.00    -0.493 OA
ATOM     39  C   UNL     1       0.043   3.125  25.586  0.00  0.00    +0.277 C 
ENDBRANCH  25   3
ENDBRANCH   6  22
ENDBRANCH  12  15
ENDBRANCH   8  12
BRANCH   9  14
ATOM     14  C   UNL     1      -0.033  -0.961  23.061  0.00  0.00    +0.064 C 
BRANCH  14  16
ATOM      2  O   UNL     1       2.857   1.187  23.077  0.00  0.00    -0.354 OA
ATOM      7  N   UNL     1       1.485   0.971  23.010  0.00  0.00    -0.083 NA
ATOM     16  C   UNL     1       1.340  -0.355  23.100  0.00  0.00    +0.085 A 
ATOM     21  C   UNL     1       2.572  -1.020  23.224  0.00  0.00    +0.076 A 
ATOM     23  C   UNL     1       3.493  -0.005  23.205  0.00  0.00    +0.167 A 
BRANCH  23  24
ATOM     24  C   UNL     1       4.923   0.059  23.288  0.00  0.00    +0.020 A 
ATOM     28  C   UNL     1       7.705   0.182  23.451  0.00  0.00    -0.042 A 
ATOM     29  C   UNL     1       5.531   0.976  24.145  0.00  0.00    +0.012 A 
ATOM     30  C   UNL     1       5.706  -0.797  22.513  0.00  0.00    +0.012 A 
ATOM     32  C   UNL     1       6.923   1.038  24.226  0.00  0.00    +0.005 A 
ATOM     33  C   UNL     1       7.097  -0.734  22.594  0.00  0.00    +0.005 A 
BRANCH  28  27
ATOM     27  C   UNL     1       9.193   0.249  23.538  0.00  0.00    -0.013 C 
ATOM     35  C   UNL     1       9.807  -0.194  24.907  0.00  0.00    +0.015 C 
ATOM     36  C   UNL     1       9.863  -0.666  22.466  0.00  0.00    +0.015 C 
ATOM     37  C   UNL     1       9.707   1.703  23.303  0.00  0.00    +0.015 C 
ENDBRANCH  28  27
ENDBRANCH  23  24
ENDBRANCH  14  16
ENDBRANCH   9  14
TORSDOF 8
ENDMDL
MODEL 2
REMARK VINA RESULT:      17.2      2.498      4.906
REMARK  Name = 45360525
REMARK  12 active torsions:
REMARK  status: ('A' for Active; 'I' for Inactive)
REMARK    1  A    between atoms: O_3  and  C_25
REMARK    2  A    between atoms: O_3  and  C_39
REMARK    3  A    between atoms: N_6  and  C_22
REMARK    4  A    between atoms: C_8  and  C_12
REMARK    5  A    between atoms: C_9  and  C_14
REMARK    6  A    between atoms: C_12  and  C_15
REMARK    7  A    between atoms: C_14  and  C_16
REMARK    8  A    between atoms: C_23  and  C_24
REMARK    9  A    between atoms: C_27  and  C_28
REMARK   10  A    between atoms: C_27  and  C_35
REMARK   11  A    between atoms: C_27  and  C_36
REMARK   12  A    between atoms: C_27  and  C_37
REMARK                            x       y       z     vdW  Elec       q    Type
REMARK                         _______ _______ _______ _____ _____    ______ ____
ROOT
ATOM      4  N   UNL     1      -4.873   1.077  26.341  0.00  0.00    -0.316 NA
ATOM      8  C   UNL     1      -4.378   1.111  23.432  0.00  0.00    +0.004 C 
ATOM      9  C   UNL     1      -4.621  -0.196  24.225  0.00  0.00    +0.012 C 
ATOM     10  C   UNL     1      -5.023   2.284  24.192  0.00  0.00    +0.019 C 
ATOM     11  C   UNL     1      -4.203  -0.053  25.698  0.00  0.00    +0.085 C 
ATOM     13  C   UNL     1      -4.592   2.337  25.657  0.00  0.00    +0.081 C 
ATOM     40  H   UNL     1      -4.565   1.144  27.312  0.00  0.00    +0.122 HD
ENDROOT
BRANCH   8  12
ATOM     12  C   UNL     1      -2.901   1.398  23.138  0.00  0.00    +0.100 C 
BRANCH  12  15
ATOM      1  O   UNL     1      -3.156   3.737  23.422  0.00  0.00    -0.276 OA
ATOM      5  N   UNL     1      -1.413   2.735  24.583  0.00  0.00    -0.298 N 
ATOM      6  N   UNL     1      -0.155   2.680  27.109  0.00  0.00    -0.324 N 
ATOM     15  C   UNL     1      -2.508   2.731  23.722  0.00  0.00    +0.216 C 
ATOM     17  C   UNL     1      -0.946   3.984  25.177  0.00  0.00    +0.126 C 
ATOM     18  C   UNL     1      -0.620   1.564  24.963  0.00  0.00    +0.126 C 
ATOM     19  C   UNL     1      -0.906   3.878  26.700  0.00  0.00    +0.124 C 
ATOM     20  C   UNL     1      -0.569   1.416  26.483  0.00  0.00    +0.124 C 
BRANCH   6  22
ATOM     22  C   UNL     1       0.397   2.666  28.395  0.00  0.00    +0.072 A 
ATOM     25  C   UNL     1       1.779   2.612  28.573  0.00  0.00    +0.141 A 
ATOM     26  C   UNL     1      -0.448   2.710  29.504  0.00  0.00    +0.027 A 
ATOM     31  C   UNL     1       2.316   2.601  29.860  0.00  0.00    +0.047 A 
ATOM     34  C   UNL     1       0.089   2.699  30.791  0.00  0.00    +0.002 A 
ATOM     38  C   UNL     1       1.471   2.644  30.969  0.00  0.00    +0.004 A 
BRANCH  25   3
ATOM      3  O   UNL     1       2.622   2.568  27.503  0.00  0.00    -0.493 OA
ATOM     39  C   UNL     1       4.006   2.364  27.776  0.00  0.00    +0.277 C 
ENDBRANCH  25   3
ENDBRANCH   6  22
ENDBRANCH  12  15
ENDBRANCH   8  12
BRANCH   9  14
ATOM     14  C   UNL     1      -3.947  -1.414  23.591  0.00  0.00    +0.064 C 
BRANCH  14  16
ATOM      2  O   UNL     1      -0.679  -1.961  24.999  0.00  0.00    -0.354 OA
ATOM      7  N   UNL     1      -2.060  -2.118  24.999  0.00  0.00    -0.083 NA
ATOM     16  C   UNL     1      -2.482  -1.459  23.915  0.00  0.00    +0.085 A 
ATOM     21  C   UNL     1      -1.423  -0.872  23.201  0.00  0.00    +0.076 A 
ATOM     23  C   UNL     1      -0.312  -1.218  23.924  0.00  0.00    +0.167 A 
BRANCH  23  24
ATOM     24  C   UNL     1       1.094  -0.971  23.790  0.00  0.00    +0.020 A 
ATOM     28  C   UNL     1       3.829  -0.489  23.532  0.00  0.00    -0.042 A 
ATOM     29  C   UNL     1       1.543   0.142  23.079  0.00  0.00    +0.012 A 
ATOM     30  C   UNL     1       2.014  -1.843  24.373  0.00  0.00    +0.012 A 
ATOM     32  C   UNL     1       2.911   0.382  22.949  0.00  0.00    +0.005 A 
ATOM     33  C   UNL     1       3.382  -1.602  24.244  0.00  0.00    +0.005 A 
BRANCH  28  27
ATOM     27  C   UNL     1       5.293  -0.233  23.393  0.00  0.00    -0.013 C 
ATOM     35  C   UNL     1       5.872  -0.408  21.951  0.00  0.00    +0.015 C 
ATOM     36  C   UNL     1       5.653   1.227  23.810  0.00  0.00    +0.015 C 
ATOM     37  C   UNL     1       6.124  -1.198  24.294  0.00  0.00    +0.015 C 
ENDBRANCH  28  27
ENDBRANCH  23  24
ENDBRANCH  14  16
ENDBRANCH   9  14
TORSDOF 8
ENDMDL
MODEL 3
REMARK VINA RESULT:      17.5      2.049      5.717
REMARK  Name = 45360525
REMARK  12 active torsions:
REMARK  status: ('A' for Active; 'I' for Inactive)
REMARK    1  A    between atoms: O_3  and  C_25
REMARK    2  A    between atoms: O_3  and  C_39
REMARK    3  A    between atoms: N_6  and  C_22
REMARK    4  A    between atoms: C_8  and  C_12
REMARK    5  A    between atoms: C_9  and  C_14
REMARK    6  A    between atoms: C_12  and  C_15
REMARK    7  A    between atoms: C_14  and  C_16
REMARK    8  A    between atoms: C_23  and  C_24
REMARK    9  A    between atoms: C_27  and  C_28
REMARK   10  A    between atoms: C_27  and  C_35
REMARK   11  A    between atoms: C_27  and  C_36
REMARK   12  A    between atoms: C_27  and  C_37
REMARK                            x       y       z     vdW  Elec       q    Type
REMARK                         _______ _______ _______ _____ _____    ______ ____
ROOT
ATOM      4  N   UNL     1      -2.645   6.396  25.403  0.00  0.00    -0.316 NA
ATOM      8  C   UNL     1      -3.910   3.771  25.869  0.00  0.00    +0.004 C 
ATOM      9  C   UNL     1      -2.930   4.032  24.700  0.00  0.00    +0.012 C 
ATOM     10  C   UNL     1      -3.629   4.783  26.993  0.00  0.00    +0.019 C 
ATOM     11  C   UNL     1      -2.934   5.510  24.275  0.00  0.00    +0.085 C 
ATOM     13  C   UNL     1      -3.607   6.225  26.488  0.00  0.00    +0.081 C 
ATOM     40  H   UNL     1      -2.663   7.365  25.084  0.00  0.00    +0.122 HD
ENDROOT
BRANCH   8  12
ATOM     12  C   UNL     1      -5.389   3.804  25.463  0.00  0.00    +0.100 C 
BRANCH  12  15
ATOM      1  O   UNL     1      -6.744   2.385  24.132  0.00  0.00    -0.276 OA
ATOM      5  N   UNL     1      -5.089   1.355  25.394  0.00  0.00    -0.298 N 
ATOM      6  N   UNL     1      -3.079  -0.620  25.250  0.00  0.00    -0.324 N 
ATOM     15  C   UNL     1      -5.808   2.456  24.933  0.00  0.00    +0.216 C 
ATOM     17  C   UNL     1      -5.440   0.008  24.953  0.00  0.00    +0.126 C 
ATOM     18  C   UNL     1      -3.974   1.398  26.342  0.00  0.00    +0.126 C 
ATOM     19  C   UNL     1      -4.230  -0.692  24.337  0.00  0.00    +0.124 C 
ATOM     20  C   UNL     1      -2.738   0.719  25.754  0.00  0.00    +0.124 C 
BRANCH   6  22
ATOM     22  C   UNL     1      -2.071  -1.580  25.102  0.00  0.00    +0.072 A 
ATOM     25  C   UNL     1      -2.248  -2.669  24.251  0.00  0.00    +0.141 A 
ATOM     26  C   UNL     1      -0.880  -1.437  25.814  0.00  0.00    +0.027 A 
ATOM     31  C   UNL     1      -1.235  -3.618  24.111  0.00  0.00    +0.047 A 
ATOM     34  C   UNL     1       0.134  -2.386  25.674  0.00  0.00    +0.002 A 
ATOM     38  C   UNL     1      -0.044  -3.476  24.823  0.00  0.00    +0.004 A 
BRANCH  25   3
ATOM      3  O   UNL     1      -3.405  -2.827  23.546  0.00  0.00    -0.493 OA
ATOM     39  C   UNL     1      -4.331  -3.795  24.030  0.00  0.00    +0.277 C 
ENDBRANCH  25   3
ENDBRANCH   6  22
ENDBRANCH  12  15
ENDBRANCH   8  12
BRANCH   9  14
ATOM     14  C   UNL     1      -3.183   3.125  23.494  0.00  0.00    +0.064 C 
BRANCH  14  16
ATOM      2  O   UNL     1      -0.861   0.624  22.346  0.00  0.00    -0.354 OA
ATOM      7  N   UNL     1      -2.123   1.207  22.383  0.00  0.00    -0.083 NA
ATOM     16  C   UNL     1      -1.998   2.249  23.211  0.00  0.00    +0.085 A 
ATOM     21  C   UNL     1      -0.694   2.372  23.721  0.00  0.00    +0.076 A 
ATOM     23  C   UNL     1      -0.019   1.327  23.147  0.00  0.00    +0.167 A 
BRANCH  23  24
ATOM     24  C   UNL     1       1.328   0.841  23.210  0.00  0.00    +0.020 A 
ATOM     28  C   UNL     1       3.949  -0.105  23.336  0.00  0.00    -0.042 A 
ATOM     29  C   UNL     1       2.396   1.734  23.136  0.00  0.00    +0.012 A 
ATOM     30  C   UNL     1       1.571  -0.526  23.348  0.00  0.00    +0.012 A 
ATOM     32  C   UNL     1       3.707   1.262  23.198  0.00  0.00    +0.005 A 
ATOM     33  C   UNL     1       2.882  -0.999  23.410  0.00  0.00    +0.005 A 
BRANCH  28  27
ATOM     27  C   UNL     1       5.351  -0.611  23.402  0.00  0.00    -0.013 C 
ATOM     35  C   UNL     1       6.144  -0.570  22.054  0.00  0.00    +0.015 C 
ATOM     36  C   UNL     1       6.205   0.219  24.410  0.00  0.00    +0.015 C 
ATOM     37  C   UNL     1       5.393  -2.100  23.864  0.00  0.00    +0.015 C 
ENDBRANCH  28  27
ENDBRANCH  23  24
ENDBRANCH  14  16
ENDBRANCH   9  14
TORSDOF 8
ENDMDL
MODEL 4
REMARK VINA RESULT:      17.6      2.155      5.547
REMARK  Name = 45360525
REMARK  12 active torsions:
REMARK  status: ('A' for Active; 'I' for Inactive)
REMARK    1  A    between atoms: O_3  and  C_25
REMARK    2  A    between atoms: O_3  and  C_39
REMARK    3  A    between atoms: N_6  and  C_22
REMARK    4  A    between atoms: C_8  and  C_12
REMARK    5  A    between atoms: C_9  and  C_14
REMARK    6  A    between atoms: C_12  and  C_15
REMARK    7  A    between atoms: C_14  and  C_16
REMARK    8  A    between atoms: C_23  and  C_24
REMARK    9  A    between atoms: C_27  and  C_28
REMARK   10  A    between atoms: C_27  and  C_35
REMARK   11  A    between atoms: C_27  and  C_36
REMARK   12  A    between atoms: C_27  and  C_37
REMARK                            x       y       z     vdW  Elec       q    Type
REMARK                         _______ _______ _______ _____ _____    ______ ____
ROOT
ATOM      4  N   UNL     1      -2.748   5.954  25.937  0.00  0.00    -0.316 NA
ATOM      8  C   UNL     1      -4.237   3.406  25.955  0.00  0.00    +0.004 C 
ATOM      9  C   UNL     1      -3.124   3.718  24.926  0.00  0.00    +0.012 C 
ATOM     10  C   UNL     1      -4.004   4.256  27.216  0.00  0.00    +0.019 C 
ATOM     11  C   UNL     1      -2.979   5.230  24.687  0.00  0.00    +0.085 C 
ATOM     13  C   UNL     1      -3.829   5.740  26.896  0.00  0.00    +0.081 C 
ATOM     40  H   UNL     1      -2.665   6.952  25.739  0.00  0.00    +0.122 HD
ENDROOT
BRANCH   8  12
ATOM     12  C   UNL     1      -5.659   3.607  25.416  0.00  0.00    +0.100 C 
BRANCH  12  15
ATOM      1  O   UNL     1      -7.154   2.340  24.083  0.00  0.00    -0.276 OA
ATOM      5  N   UNL     1      -5.496   1.154  25.194  0.00  0.00    -0.298 N 
ATOM      6  N   UNL     1      -3.605  -0.909  24.832  0.00  0.00    -0.324 N 
ATOM     15  C   UNL     1      -6.177   2.316  24.835  0.00  0.00    +0.216 C 
ATOM     17  C   UNL     1      -5.941  -0.145  24.698  0.00  0.00    +0.126 C 
ATOM     18  C   UNL     1      -4.333   1.084  26.082  0.00  0.00    +0.126 C 
ATOM     19  C   UNL     1      -4.804  -0.868  23.980  0.00  0.00    +0.124 C 
ATOM     20  C   UNL     1      -3.168   0.379  25.391  0.00  0.00    +0.124 C 
BRANCH   6  22
ATOM     22  C   UNL     1      -2.659  -1.909  24.577  0.00  0.00    +0.072 A 
ATOM     25  C   UNL     1      -1.355  -1.790  25.054  0.00  0.00    +0.141 A 
ATOM     26  C   UNL     1      -3.033  -3.032  23.839  0.00  0.00    +0.027 A 
ATOM     31  C   UNL     1      -0.423  -2.795  24.794  0.00  0.00    +0.047 A 
ATOM     34  C   UNL     1      -2.101  -4.037  23.578  0.00  0.00    +0.002 A 
ATOM     38  C   UNL     1      -0.796  -3.918  24.055  0.00  0.00    +0.004 A 
BRANCH  25   3
ATOM      3  O   UNL     1      -0.970  -0.700  25.777  0.00  0.00    -0.493 OA
ATOM     39  C   UNL     1      -0.825  -0.875  27.184  0.00  0.00    +0.277 C 
ENDBRANCH  25   3
ENDBRANCH   6  22
ENDBRANCH  12  15
ENDBRANCH   8  12
BRANCH   9  14
ATOM     14  C   UNL     1      -3.311   2.980  23.599  0.00  0.00    +0.064 C 
BRANCH  14  16
ATOM      2  O   UNL     1      -0.878   0.734  22.186  0.00  0.00    -0.354 OA
ATOM      7  N   UNL     1      -2.150   1.293  22.242  0.00  0.00    -0.083 NA
ATOM     16  C   UNL     1      -2.095   2.174  23.245  0.00  0.00    +0.085 A 
ATOM     21  C   UNL     1      -0.828   2.215  23.852  0.00  0.00    +0.076 A 
ATOM     23  C   UNL     1      -0.101   1.291  23.149  0.00  0.00    +0.167 A 
BRANCH  23  24
ATOM     24  C   UNL     1       1.249   0.810  23.213  0.00  0.00    +0.020 A 
ATOM     28  C   UNL     1       3.874  -0.125  23.335  0.00  0.00    -0.042 A 
ATOM     29  C   UNL     1       1.497  -0.544  23.433  0.00  0.00    +0.012 A 
ATOM     30  C   UNL     1       2.313   1.698  23.053  0.00  0.00    +0.012 A 
ATOM     32  C   UNL     1       2.810  -1.012  23.495  0.00  0.00    +0.005 A 
ATOM     33  C   UNL     1       3.626   1.230  23.115  0.00  0.00    +0.005 A 
BRANCH  28  27
ATOM     27  C   UNL     1       5.278  -0.625  23.401  0.00  0.00    -0.013 C 
ATOM     35  C   UNL     1       6.095  -0.512  22.072  0.00  0.00    +0.015 C 
ATOM     36  C   UNL     1       6.107   0.158  24.466  0.00  0.00    +0.015 C 
ATOM     37  C   UNL     1       5.322  -2.135  23.789  0.00  0.00    +0.015 C 
ENDBRANCH  28  27
ENDBRANCH  23  24
ENDBRANCH  14  16
ENDBRANCH   9  14
TORSDOF 8
ENDMDL
MODEL 5
REMARK VINA RESULT:      18.5      2.280      7.771
REMARK  Name = 45360525
REMARK  12 active torsions:
REMARK  status: ('A' for Active; 'I' for Inactive)
REMARK    1  A    between atoms: O_3  and  C_25
REMARK    2  A    between atoms: O_3  and  C_39
REMARK    3  A    between atoms: N_6  and  C_22
REMARK    4  A    between atoms: C_8  and  C_12
REMARK    5  A    between atoms: C_9  and  C_14
REMARK    6  A    between atoms: C_12  and  C_15
REMARK    7  A    between atoms: C_14  and  C_16
REMARK    8  A    between atoms: C_23  and  C_24
REMARK    9  A    between atoms: C_27  and  C_28
REMARK   10  A    between atoms: C_27  and  C_35
REMARK   11  A    between atoms: C_27  and  C_36
REMARK   12  A    between atoms: C_27  and  C_37
REMARK                            x       y       z     vdW  Elec       q    Type
REMARK                         _______ _______ _______ _____ _____    ______ ____
ROOT
ATOM      4  N   UNL     1       5.718  -1.077  24.253  0.00  0.00    -0.316 NA
ATOM      8  C   UNL     1       3.046  -0.177  23.383  0.00  0.00    +0.004 C 
ATOM      9  C   UNL     1       3.263  -1.444  24.246  0.00  0.00    +0.012 C 
ATOM     10  C   UNL     1       4.231   0.781  23.593  0.00  0.00    +0.019 C 
ATOM     11  C   UNL     1       4.656  -2.055  24.018  0.00  0.00    +0.085 C 
ATOM     13  C   UNL     1       5.580   0.093  23.389  0.00  0.00    +0.081 C 
ATOM     40  H   UNL     1       6.624  -1.516  24.084  0.00  0.00    +0.122 HD
ENDROOT
BRANCH   8  12
ATOM     12  C   UNL     1       2.836  -0.468  21.892  0.00  0.00    +0.100 C 
BRANCH  12  15
ATOM      1  O   UNL     1       0.816  -0.940  20.745  0.00  0.00    -0.276 OA
ATOM      5  N   UNL     1       0.846   0.984  22.045  0.00  0.00    -0.298 N 
ATOM      6  N   UNL     1      -0.688   2.437  23.915  0.00  0.00    -0.324 N 
ATOM     15  C   UNL     1       1.410  -0.170  21.504  0.00  0.00    +0.216 C 
ATOM     17  C   UNL     1      -0.522   1.365  21.706  0.00  0.00    +0.126 C 
ATOM     18  C   UNL     1       1.518   1.922  22.947  0.00  0.00    +0.126 C 
ATOM     19  C   UNL     1      -1.364   1.537  22.968  0.00  0.00    +0.124 C 
ATOM     20  C   UNL     1       0.710   2.108  24.231  0.00  0.00    +0.124 C 
BRANCH   6  22
ATOM     22  C   UNL     1      -1.477   3.088  24.870  0.00  0.00    +0.072 A 
ATOM     25  C   UNL     1      -1.216   2.934  26.231  0.00  0.00    +0.141 A 
ATOM     26  C   UNL     1      -2.531   3.899  24.449  0.00  0.00    +0.027 A 
ATOM     31  C   UNL     1      -2.009   3.591  27.172  0.00  0.00    +0.047 A 
ATOM     34  C   UNL     1      -3.325   4.555  25.390  0.00  0.00    +0.002 A 
ATOM     38  C   UNL     1      -3.065   4.401  26.751  0.00  0.00    +0.004 A 
BRANCH  25   3
ATOM      3  O   UNL     1      -0.191   2.147  26.663  0.00  0.00    -0.493 OA
ATOM     39  C   UNL     1       0.600   2.645  27.738  0.00  0.00    +0.277 C 
ENDBRANCH  25   3
ENDBRANCH   6  22
ENDBRANCH  12  15
ENDBRANCH   8  12
BRANCH   9  14
ATOM     14  C   UNL     1       2.174  -2.499  24.046  0.00  0.00    +0.064 C 
BRANCH  14  16
ATOM      2  O   UNL     1      -0.746  -1.900  26.066  0.00  0.00    -0.354 OA
ATOM      7  N   UNL     1       0.486  -2.500  25.832  0.00  0.00    -0.083 NA
ATOM     16  C   UNL     1       0.865  -2.052  24.631  0.00  0.00    +0.085 A 
ATOM     21  C   UNL     1      -0.077  -1.177  24.065  0.00  0.00    +0.076 A 
ATOM     23  C   UNL     1      -1.071  -1.115  25.007  0.00  0.00    +0.167 A 
BRANCH  23  24
ATOM     24  C   UNL     1      -2.325  -0.427  25.105  0.00  0.00    +0.020 A 
ATOM     28  C   UNL     1      -4.766   0.909  25.297  0.00  0.00    -0.042 A 
ATOM     29  C   UNL     1      -3.025  -0.085  23.949  0.00  0.00    +0.012 A 
ATOM     30  C   UNL     1      -2.846  -0.102  26.358  0.00  0.00    +0.012 A 
ATOM     32  C   UNL     1      -4.246   0.584  24.044  0.00  0.00    +0.005 A 
ATOM     33  C   UNL     1      -4.066   0.567  26.454  0.00  0.00    +0.005 A 
BRANCH  28  27
ATOM     27  C   UNL     1      -6.071   1.625  25.399  0.00  0.00    -0.013 C 
ATOM     35  C   UNL     1      -5.985   3.186  25.370  0.00  0.00    +0.015 C 
ATOM     36  C   UNL     1      -7.021   1.240  24.223  0.00  0.00    +0.015 C 
ATOM     37  C   UNL     1      -6.804   1.274  26.731  0.00  0.00    +0.015 C 
ENDBRANCH  28  27
ENDBRANCH  23  24
ENDBRANCH  14  16
ENDBRANCH   9  14
TORSDOF 8
ENDMDL
MODEL 6
REMARK VINA RESULT:      19.8      3.970      6.670
REMARK  Name = 45360525
REMARK  12 active torsions:
REMARK  status: ('A' for Active; 'I' for Inactive)
REMARK    1  A    between atoms: O_3  and  C_25
REMARK    2  A    between atoms: O_3  and  C_39
REMARK    3  A    between atoms: N_6  and  C_22
REMARK    4  A    between atoms: C_8  and  C_12
REMARK    5  A    between atoms: C_9  and  C_14
REMARK    6  A    between atoms: C_12  and  C_15
REMARK    7  A    between atoms: C_14  and  C_16
REMARK    8  A    between atoms: C_23  and  C_24
REMARK    9  A    between atoms: C_27  and  C_28
REMARK   10  A    between atoms: C_27  and  C_35
REMARK   11  A    between atoms: C_27  and  C_36
REMARK   12  A    between atoms: C_27  and  C_37
REMARK                            x       y       z     vdW  Elec       q    Type
REMARK                         _______ _______ _______ _____ _____    ______ ____
ROOT
ATOM      4  N   UNL     1       5.798  -1.527  24.409  0.00  0.00    -0.316 NA
ATOM      8  C   UNL     1       4.836   0.866  22.975  0.00  0.00    +0.004 C 
ATOM      9  C   UNL     1       6.073   0.888  23.904  0.00  0.00    +0.012 C 
ATOM     10  C   UNL     1       4.622  -0.568  22.460  0.00  0.00    +0.019 C 
ATOM     11  C   UNL     1       5.988  -0.198  24.990  0.00  0.00    +0.085 C 
ATOM     13  C   UNL     1       4.589  -1.595  23.591  0.00  0.00    +0.081 C 
ATOM     40  H   UNL     1       5.738  -2.217  25.158  0.00  0.00    +0.122 HD
ENDROOT
BRANCH   8  12
ATOM     12  C   UNL     1       3.557   1.409  23.625  0.00  0.00    +0.100 C 
BRANCH  12  15
ATOM      1  O   UNL     1       2.614  -0.728  23.224  0.00  0.00    -0.276 OA
ATOM      5  N   UNL     1       1.143   1.068  23.242  0.00  0.00    -0.298 N 
ATOM      6  N   UNL     1      -1.381   1.875  24.211  0.00  0.00    -0.324 N 
ATOM     15  C   UNL     1       2.403   0.481  23.345  0.00  0.00    +0.216 C 
ATOM     17  C   UNL     1      -0.030   0.250  22.949  0.00  0.00    +0.126 C 
ATOM     18  C   UNL     1       0.852   2.497  23.379  0.00  0.00    +0.126 C 
ATOM     19  C   UNL     1      -1.105   0.443  24.017  0.00  0.00    +0.124 C 
ATOM     20  C   UNL     1      -0.211   2.730  24.452  0.00  0.00    +0.124 C 
BRANCH   6  22
ATOM     22  C   UNL     1      -2.621   2.229  24.755  0.00  0.00    +0.072 A 
ATOM     25  C   UNL     1      -3.759   1.471  24.483  0.00  0.00    +0.141 A 
ATOM     26  C   UNL     1      -2.711   3.352  25.579  0.00  0.00    +0.027 A 
ATOM     31  C   UNL     1      -4.987   1.834  25.034  0.00  0.00    +0.047 A 
ATOM     34  C   UNL     1      -3.940   3.716  26.130  0.00  0.00    +0.002 A 
ATOM     38  C   UNL     1      -5.078   2.957  25.857  0.00  0.00    +0.004 A 
BRANCH  25   3
ATOM      3  O   UNL     1      -3.692   0.371  23.681  0.00  0.00    -0.493 OA
ATOM     39  C   UNL     1      -4.036  -0.881  24.268  0.00  0.00    +0.277 C 
ENDBRANCH  25   3
ENDBRANCH   6  22
ENDBRANCH  12  15
ENDBRANCH   8  12
BRANCH   9  14
ATOM     14  C   UNL     1       6.324   2.259  24.535  0.00  0.00    +0.064 C 
BRANCH  14  16
ATOM      2  O   UNL     1       9.651   3.101  23.446  0.00  0.00    -0.354 OA
ATOM      7  N   UNL     1       8.730   2.242  24.034  0.00  0.00    -0.083 NA
ATOM     16  C   UNL     1       7.565   2.897  23.981  0.00  0.00    +0.085 A 
ATOM     21  C   UNL     1       7.689   4.160  23.378  0.00  0.00    +0.076 A 
ATOM     23  C   UNL     1       9.020   4.239  23.060  0.00  0.00    +0.167 A 
BRANCH  23  24
ATOM     24  C   UNL     1       9.849   5.227  22.432  0.00  0.00    +0.020 A 
ATOM     28  C   UNL     1      11.463   7.148  21.215  0.00  0.00    -0.042 A 
ATOM     29  C   UNL     1       9.554   6.582  22.582  0.00  0.00    +0.012 A 
ATOM     30  C   UNL     1      10.952   4.832  21.675  0.00  0.00    +0.012 A 
ATOM     32  C   UNL     1      10.361   7.543  21.972  0.00  0.00    +0.005 A 
ATOM     33  C   UNL     1      11.759   5.794  21.065  0.00  0.00    +0.005 A 
BRANCH  28  27
ATOM     27  C   UNL     1      12.326   8.176  20.562  0.00  0.00    -0.013 C 
ATOM     35  C   UNL     1      13.491   7.614  19.682  0.00  0.00    +0.015 C 
ATOM     36  C   UNL     1      11.494   9.093  19.614  0.00  0.00    +0.015 C 
ATOM     37  C   UNL     1      13.011   9.093  21.622  0.00  0.00    +0.015 C 
ENDBRANCH  28  27
ENDBRANCH  23  24
ENDBRANCH  14  16
ENDBRANCH   9  14
TORSDOF 8
ENDMDL
