MODEL 1
REMARK VINA RESULT:      -3.9      0.000      0.000
REMARK  Name = 40777099
REMARK  6 active torsions:
REMARK  status: ('A' for Active; 'I' for Inactive)
REMARK    1  A    between atoms: N_5  and  C_15
REMARK    2  A    between atoms: C_9  and  C_16
REMARK    3  A    between atoms: C_10  and  C_15
REMARK    4  A    between atoms: C_18  and  C_21
REMARK    5  A    between atoms: C_19  and  C_22
REMARK    6  A    between atoms: C_20  and  C_23
REMARK                            x       y       z     vdW  Elec       q    Type
REMARK                         _______ _______ _______ _____ _____    ______ ____
ROOT
ATOM      4  N   UNL     1      11.728  -6.274  31.664  0.00  0.00    -0.297 NA
ATOM      8  C   UNL     1      14.215  -5.531  31.883  0.00  0.00    +0.002 C 
ATOM      9  C   UNL     1      13.890  -5.918  30.413  0.00  0.00    +0.055 C 
ATOM     10  C   UNL     1      12.376  -6.995  32.790  0.00  0.00    +0.074 C 
ATOM     11  C   UNL     1      13.897  -6.726  32.807  0.00  0.00    +0.024 C 
ATOM     12  C   UNL     1      13.247  -4.391  32.268  0.00  0.00    +0.019 C 
ATOM     13  C   UNL     1      12.463  -6.536  30.401  0.00  0.00    +0.094 C 
ATOM     14  C   UNL     1      11.805  -4.822  31.951  0.00  0.00    +0.085 C 
ENDROOT
BRANCH   9  16
ATOM      6  N   UNL     1      15.418  -7.825  30.317  0.00  0.00    -0.237 NA
ATOM      7  N   UNL     1      16.709  -8.339  28.348  0.00  0.00    -0.232 NA
ATOM     16  C   UNL     1      14.897  -6.771  29.656  0.00  0.00    +0.050 A 
ATOM     17  C   UNL     1      15.227  -6.441  28.357  0.00  0.00    +0.052 A 
ATOM     18  C   UNL     1      16.148  -7.269  27.747  0.00  0.00    +0.076 A 
ATOM     19  C   UNL     1      16.305  -8.555  29.614  0.00  0.00    +0.127 A 
ATOM     22  C   UNL     1      16.905  -9.728  30.313  0.00  0.00    +0.088 C 
BRANCH  18  21
ATOM      1 BR   UNL     1      16.787  -9.900  26.044  0.00  0.00    -0.050 Br
ATOM     21  C   UNL     1      16.578  -7.032  26.390  0.00  0.00    +0.014 A 
ATOM     24  C   UNL     1      16.895  -8.075  25.520  0.00  0.00    +0.027 A 
ATOM     25  C   UNL     1      16.674  -5.709  25.956  0.00  0.00    +0.011 A 
ATOM     27  C   UNL     1      17.308  -7.797  24.217  0.00  0.00    +0.016 A 
ATOM     28  C   UNL     1      17.086  -5.431  24.653  0.00  0.00    +0.001 A 
ATOM     31  C   UNL     1      17.404  -6.475  23.783  0.00  0.00    +0.001 A 
ENDBRANCH  18  21
ENDBRANCH   9  16
BRANCH  10  15
ATOM     15  C   UNL     1      12.064  -8.493  32.780  0.00  0.00    +0.123 C 
BRANCH  15   5
ATOM      3  O   UNL     1      10.723 -10.742  31.602  0.00  0.00    -0.270 OA
ATOM      5  N   UNL     1      10.652  -8.720  32.738  0.00  0.00    -0.309 N 
ATOM     20  C   UNL     1      10.083  -9.844  32.143  0.00  0.00    +0.251 C 
ATOM     32  H   UNL     1      10.043  -8.022  33.155  0.00  0.00    +0.149 HD
BRANCH  20  23
ATOM      2  S   UNL     1       7.699  -8.821  31.202  0.00  0.00    -0.092 S 
ATOM     23  C   UNL     1       8.599  -9.920  32.159  0.00  0.00    +0.074 A 
ATOM     26  C   UNL     1       7.785 -10.781  32.861  0.00  0.00    +0.021 A 
ATOM     29  C   UNL     1       6.404 -10.537  32.610  0.00  0.00    +0.008 A 
ATOM     30  C   UNL     1       6.215  -9.497  31.726  0.00  0.00    +0.046 A 
ENDBRANCH  20  23
ENDBRANCH  15   5
ENDBRANCH  10  15
TORSDOF 5
ENDMDL
MODEL 2
REMARK VINA RESULT:      -1.2     15.900     19.451
REMARK  Name = 40777099
REMARK  6 active torsions:
REMARK  status: ('A' for Active; 'I' for Inactive)
REMARK    1  A    between atoms: N_5  and  C_15
REMARK    2  A    between atoms: C_9  and  C_16
REMARK    3  A    between atoms: C_10  and  C_15
REMARK    4  A    between atoms: C_18  and  C_21
REMARK    5  A    between atoms: C_19  and  C_22
REMARK    6  A    between atoms: C_20  and  C_23
REMARK                            x       y       z     vdW  Elec       q    Type
REMARK                         _______ _______ _______ _____ _____    ______ ____
ROOT
ATOM      4  N   UNL     1      -2.602  -2.230  23.586  0.00  0.00    -0.297 NA
ATOM      8  C   UNL     1      -2.855  -1.411  26.045  0.00  0.00    +0.002 C 
ATOM      9  C   UNL     1      -3.922  -0.741  25.137  0.00  0.00    +0.055 C 
ATOM     10  C   UNL     1      -1.285  -1.787  24.111  0.00  0.00    +0.074 C 
ATOM     11  C   UNL     1      -1.448  -1.107  25.488  0.00  0.00    +0.024 C 
ATOM     12  C   UNL     1      -3.067  -2.936  25.932  0.00  0.00    +0.019 C 
ATOM     13  C   UNL     1      -3.583  -1.119  23.666  0.00  0.00    +0.094 C 
ATOM     14  C   UNL     1      -3.085  -3.337  24.447  0.00  0.00    +0.085 C 
ENDROOT
BRANCH   9  16
ATOM      6  N   UNL     1      -5.424   1.114  25.669  0.00  0.00    -0.237 NA
ATOM      7  N   UNL     1      -4.694   3.410  25.626  0.00  0.00    -0.232 NA
ATOM     16  C   UNL     1      -4.177   0.749  25.307  0.00  0.00    +0.050 A 
ATOM     17  C   UNL     1      -3.148   1.644  25.090  0.00  0.00    +0.052 A 
ATOM     18  C   UNL     1      -3.469   2.975  25.266  0.00  0.00    +0.076 A 
ATOM     19  C   UNL     1      -5.611   2.441  25.808  0.00  0.00    +0.127 A 
ATOM     22  C   UNL     1      -6.978   2.883  26.204  0.00  0.00    +0.088 C 
BRANCH  18  21
ATOM      1 BR   UNL     1      -0.433   2.061  25.691  0.00  0.00    -0.050 Br
ATOM     21  C   UNL     1      -2.483   4.011  25.069  0.00  0.00    +0.014 A 
ATOM     24  C   UNL     1      -1.117   3.771  25.217  0.00  0.00    +0.027 A 
ATOM     25  C   UNL     1      -2.933   5.284  24.720  0.00  0.00    +0.011 A 
ATOM     27  C   UNL     1      -0.201   4.804  25.017  0.00  0.00    +0.016 A 
ATOM     28  C   UNL     1      -2.018   6.317  24.519  0.00  0.00    +0.001 A 
ATOM     31  C   UNL     1      -0.651   6.077  24.667  0.00  0.00    +0.001 A 
ENDBRANCH  18  21
ENDBRANCH   9  16
BRANCH  10  15
ATOM     15  C   UNL     1      -0.533  -0.894  23.121  0.00  0.00    +0.123 C 
BRANCH  15   5
ATOM      3  O   UNL     1       1.642  -0.219  21.373  0.00  0.00    -0.270 OA
ATOM      5  N   UNL     1       0.847  -0.784  23.479  0.00  0.00    -0.309 N 
ATOM     20  C   UNL     1       1.843  -0.450  22.563  0.00  0.00    +0.251 C 
ATOM     32  H   UNL     1       1.107  -0.967  24.444  0.00  0.00    +0.149 HD
BRANCH  20  23
ATOM      2  S   UNL     1       4.184   0.992  22.796  0.00  0.00    -0.092 S 
ATOM     23  C   UNL     1       3.232  -0.402  23.086  0.00  0.00    +0.074 A 
ATOM     26  C   UNL     1       3.918  -1.355  23.808  0.00  0.00    +0.021 A 
ATOM     29  C   UNL     1       5.241  -0.935  24.127  0.00  0.00    +0.008 A 
ATOM     30  C   UNL     1       5.517   0.322  23.638  0.00  0.00    +0.046 A 
ENDBRANCH  20  23
ENDBRANCH  15   5
ENDBRANCH  10  15
TORSDOF 5
ENDMDL
