MODEL 1
REMARK VINA RESULT:       3.8      0.000      0.000
REMARK  Name = 11867448
REMARK  12 active torsions:
REMARK  status: ('A' for Active; 'I' for Inactive)
REMARK    1  A    between atoms: O_3  and  C_11
REMARK    2  A    between atoms: O_3  and  C_16
REMARK    3  A    between atoms: N_5  and  C_10
REMARK    4  A    between atoms: N_5  and  C_14
REMARK    5  A    between atoms: N_6  and  C_21
REMARK    6  A    between atoms: N_7  and  C_22
REMARK    7  A    between atoms: N_7  and  C_29
REMARK    8  A    between atoms: N_7  and  C_30
REMARK    9  A    between atoms: C_14  and  C_15
REMARK   10  A    between atoms: C_25  and  C_26
REMARK   11  A    between atoms: C_26  and  C_31
REMARK   12  A    between atoms: C_26  and  C_32
REMARK                            x       y       z     vdW  Elec       q    Type
REMARK                         _______ _______ _______ _____ _____    ______ ____
ROOT
ATOM      1  O   UNL     1      -3.364   3.653  26.184  0.00  0.00    -0.369 OA
ATOM      2  O   UNL     1      -4.503   3.835  23.355  0.00  0.00    -0.369 OA
ATOM      8  C   UNL     1      -4.560   2.777  24.337  0.00  0.00    +0.170 C 
ATOM      9  C   UNL     1      -3.225   2.776  25.053  0.00  0.00    +0.191 C 
ATOM     10  C   UNL     1      -5.559   3.127  25.418  0.00  0.00    +0.111 C 
ATOM     11  C   UNL     1      -2.295   3.351  24.013  0.00  0.00    +0.235 C 
ATOM     12  C   UNL     1      -4.739   4.049  26.311  0.00  0.00    +0.181 C 
ATOM     13  C   UNL     1      -3.174   4.376  23.331  0.00  0.00    +0.207 C 
ENDROOT
BRANCH  10   5
ATOM      5  N   UNL     1      -5.973   1.945  26.171  0.00  0.00    -0.305 NA
ATOM     33  H   UNL     1      -6.845   2.144  26.660  0.00  0.00    +0.123 HD
BRANCH   5  14
ATOM     14  C   UNL     1      -6.193   0.817  25.279  0.00  0.00    +0.116 C 
BRANCH  14  15
ATOM     15  C   UNL     1      -4.950  -0.016  25.110  0.00  0.00    -0.033 A 
ATOM     17  C   UNL     1      -4.724  -0.699  23.915  0.00  0.00    +0.007 A 
ATOM     18  C   UNL     1      -4.023  -0.104  26.150  0.00  0.00    +0.007 A 
ATOM     19  C   UNL     1      -3.572  -1.469  23.759  0.00  0.00    +0.023 A 
ATOM     20  C   UNL     1      -2.871  -0.874  25.993  0.00  0.00    +0.023 A 
ATOM     22  C   UNL     1      -2.646  -1.557  24.798  0.00  0.00    +0.029 A 
BRANCH  22   7
ATOM      7  N   UNL     1      -1.480  -2.336  24.640  0.00  0.00    -0.336 N 
ATOM     29  C   UNL     1      -1.401  -3.333  23.592  0.00  0.00    +0.129 C 
ATOM     30  C   UNL     1      -0.353  -2.160  25.534  0.00  0.00    +0.129 C 
ENDBRANCH  22   7
ENDBRANCH  14  15
ENDBRANCH   5  14
ENDBRANCH  10   5
BRANCH  11   3
ATOM      3  O   UNL     1      -1.130   3.930  24.557  0.00  0.00    -0.442 OA
BRANCH   3  16
ATOM      4  O   UNL     1       0.306   2.847  25.969  0.00  0.00    -0.226 OA
ATOM      6  N   UNL     1       0.422   2.570  23.647  0.00  0.00    -0.251 N 
ATOM     16  C   UNL     1      -0.079   3.079  24.829  0.00  0.00    +0.405 C 
ATOM     34  H   UNL     1      -0.035   2.882  22.794  0.00  0.00    +0.158 HD
BRANCH   6  21
ATOM     21  C   UNL     1       1.495   1.666  23.475  0.00  0.00    +0.036 A 
ATOM     23  C   UNL     1       2.766   2.146  23.158  0.00  0.00    +0.024 A 
ATOM     24  C   UNL     1       1.283   0.296  23.620  0.00  0.00    +0.024 A 
ATOM     25  C   UNL     1       3.614  -0.117  23.132  0.00  0.00    -0.045 A 
ATOM     27  C   UNL     1       3.825   1.254  22.988  0.00  0.00    +0.006 A 
ATOM     28  C   UNL     1       2.342  -0.597  23.448  0.00  0.00    +0.006 A 
BRANCH  25  26
ATOM     26  C   UNL     1       4.746  -1.069  22.950  0.00  0.00    +0.013 C 
ATOM     31  C   UNL     1       4.641  -2.295  23.876  0.00  0.00    +0.012 C 
ATOM     32  C   UNL     1       6.120  -0.394  23.130  0.00  0.00    +0.012 C 
ENDBRANCH  25  26
ENDBRANCH   6  21
ENDBRANCH   3  16
ENDBRANCH  11   3
TORSDOF 8
ENDMDL
MODEL 2
REMARK VINA RESULT:       4.0      2.642      4.524
REMARK  Name = 11867448
REMARK  12 active torsions:
REMARK  status: ('A' for Active; 'I' for Inactive)
REMARK    1  A    between atoms: O_3  and  C_11
REMARK    2  A    between atoms: O_3  and  C_16
REMARK    3  A    between atoms: N_5  and  C_10
REMARK    4  A    between atoms: N_5  and  C_14
REMARK    5  A    between atoms: N_6  and  C_21
REMARK    6  A    between atoms: N_7  and  C_22
REMARK    7  A    between atoms: N_7  and  C_29
REMARK    8  A    between atoms: N_7  and  C_30
REMARK    9  A    between atoms: C_14  and  C_15
REMARK   10  A    between atoms: C_25  and  C_26
REMARK   11  A    between atoms: C_26  and  C_31
REMARK   12  A    between atoms: C_26  and  C_32
REMARK                            x       y       z     vdW  Elec       q    Type
REMARK                         _______ _______ _______ _____ _____    ______ ____
ROOT
ATOM      1  O   UNL     1      -2.341   0.808  23.494  0.00  0.00    -0.369 OA
ATOM      2  O   UNL     1      -5.092  -0.079  24.482  0.00  0.00    -0.369 OA
ATOM      8  C   UNL     1      -4.174   0.914  24.990  0.00  0.00    +0.170 C 
ATOM      9  C   UNL     1      -2.779   0.360  24.789  0.00  0.00    +0.191 C 
ATOM     10  C   UNL     1      -4.212   2.148  24.116  0.00  0.00    +0.111 C 
ATOM     11  C   UNL     1      -3.012  -1.131  24.812  0.00  0.00    +0.235 C 
ATOM     12  C   UNL     1      -3.296   1.744  22.968  0.00  0.00    +0.181 C 
ATOM     13  C   UNL     1      -4.352  -1.255  24.122  0.00  0.00    +0.207 C 
ENDROOT
BRANCH  10   5
ATOM      5  N   UNL     1      -3.659   3.312  24.805  0.00  0.00    -0.305 NA
ATOM     33  H   UNL     1      -3.665   3.144  25.811  0.00  0.00    +0.123 HD
BRANCH   5  14
ATOM     14  C   UNL     1      -2.286   3.554  24.388  0.00  0.00    +0.116 C 
BRANCH  14  15
ATOM     15  C   UNL     1      -1.308   3.299  25.505  0.00  0.00    -0.033 A 
ATOM     17  C   UNL     1      -1.722   3.401  26.833  0.00  0.00    +0.007 A 
ATOM     18  C   UNL     1       0.014   2.961  25.210  0.00  0.00    +0.007 A 
ATOM     19  C   UNL     1      -0.816   3.163  27.866  0.00  0.00    +0.023 A 
ATOM     20  C   UNL     1       0.919   2.725  26.244  0.00  0.00    +0.023 A 
ATOM     22  C   UNL     1       0.504   2.826  27.572  0.00  0.00    +0.029 A 
BRANCH  22   7
ATOM      7  N   UNL     1       1.421   2.586  28.617  0.00  0.00    -0.336 N 
ATOM     29  C   UNL     1       0.949   2.222  29.937  0.00  0.00    +0.129 C 
ATOM     30  C   UNL     1       2.846   2.715  28.386  0.00  0.00    +0.129 C 
ENDBRANCH  22   7
ENDBRANCH  14  15
ENDBRANCH   5  14
ENDBRANCH  10   5
BRANCH  11   3
ATOM      3  O   UNL     1      -2.007  -1.869  24.154  0.00  0.00    -0.442 OA
BRANCH   3  16
ATOM      4  O   UNL     1      -0.275  -1.834  25.648  0.00  0.00    -0.226 OA
ATOM      6  N   UNL     1      -0.013  -1.088  23.444  0.00  0.00    -0.251 N 
ATOM     16  C   UNL     1      -0.702  -1.611  24.521  0.00  0.00    +0.405 C 
ATOM     34  H   UNL     1      -0.543  -0.976  22.583  0.00  0.00    +0.158 HD
BRANCH   6  21
ATOM     21  C   UNL     1       1.341  -0.688  23.389  0.00  0.00    +0.036 A 
ATOM     23  C   UNL     1       2.347  -1.576  23.769  0.00  0.00    +0.024 A 
ATOM     24  C   UNL     1       1.672   0.595  22.954  0.00  0.00    +0.024 A 
ATOM     25  C   UNL     1       4.015   0.101  23.280  0.00  0.00    -0.045 A 
ATOM     27  C   UNL     1       3.684  -1.181  23.714  0.00  0.00    +0.006 A 
ATOM     28  C   UNL     1       3.010   0.991  22.900  0.00  0.00    +0.006 A 
BRANCH  25  26
ATOM     26  C   UNL     1       5.444   0.523  23.222  0.00  0.00    +0.013 C 
ATOM     31  C   UNL     1       6.367  -0.591  22.696  0.00  0.00    +0.012 C 
ATOM     32  C   UNL     1       5.964   1.034  24.580  0.00  0.00    +0.012 C 
ENDBRANCH  25  26
ENDBRANCH   6  21
ENDBRANCH   3  16
ENDBRANCH  11   3
TORSDOF 8
ENDMDL
MODEL 3
REMARK VINA RESULT:       4.8      1.572      2.510
REMARK  Name = 11867448
REMARK  12 active torsions:
REMARK  status: ('A' for Active; 'I' for Inactive)
REMARK    1  A    between atoms: O_3  and  C_11
REMARK    2  A    between atoms: O_3  and  C_16
REMARK    3  A    between atoms: N_5  and  C_10
REMARK    4  A    between atoms: N_5  and  C_14
REMARK    5  A    between atoms: N_6  and  C_21
REMARK    6  A    between atoms: N_7  and  C_22
REMARK    7  A    between atoms: N_7  and  C_29
REMARK    8  A    between atoms: N_7  and  C_30
REMARK    9  A    between atoms: C_14  and  C_15
REMARK   10  A    between atoms: C_25  and  C_26
REMARK   11  A    between atoms: C_26  and  C_31
REMARK   12  A    between atoms: C_26  and  C_32
REMARK                            x       y       z     vdW  Elec       q    Type
REMARK                         _______ _______ _______ _____ _____    ______ ____
ROOT
ATOM      1  O   UNL     1      -4.274   3.094  26.881  0.00  0.00    -0.369 OA
ATOM      2  O   UNL     1      -6.544   4.626  25.527  0.00  0.00    -0.369 OA
ATOM      8  C   UNL     1      -6.045   3.286  25.321  0.00  0.00    +0.170 C 
ATOM      9  C   UNL     1      -4.541   3.350  25.491  0.00  0.00    +0.191 C 
ATOM     10  C   UNL     1      -6.506   2.384  26.444  0.00  0.00    +0.111 C 
ATOM     11  C   UNL     1      -4.230   4.778  25.118  0.00  0.00    +0.235 C 
ATOM     12  C   UNL     1      -5.491   2.701  27.534  0.00  0.00    +0.181 C 
ATOM     13  C   UNL     1      -5.429   5.520  25.666  0.00  0.00    +0.207 C 
ENDROOT
BRANCH  10   5
ATOM      5  N   UNL     1      -6.413   0.973  26.074  0.00  0.00    -0.305 NA
ATOM     33  H   UNL     1      -7.342   0.554  26.101  0.00  0.00    +0.123 HD
BRANCH   5  14
ATOM     14  C   UNL     1      -5.882   0.828  24.727  0.00  0.00    +0.116 C 
BRANCH  14  15
ATOM     15  C   UNL     1      -4.657  -0.047  24.698  0.00  0.00    -0.033 A 
ATOM     17  C   UNL     1      -4.542  -1.056  23.742  0.00  0.00    +0.007 A 
ATOM     18  C   UNL     1      -3.635   0.152  25.628  0.00  0.00    +0.007 A 
ATOM     19  C   UNL     1      -3.407  -1.865  23.714  0.00  0.00    +0.023 A 
ATOM     20  C   UNL     1      -2.501  -0.657  25.600  0.00  0.00    +0.023 A 
ATOM     22  C   UNL     1      -2.386  -1.666  24.643  0.00  0.00    +0.029 A 
BRANCH  22   7
ATOM      7  N   UNL     1      -1.237  -2.484  24.616  0.00  0.00    -0.336 N 
ATOM     29  C   UNL     1      -0.116  -2.203  25.489  0.00  0.00    +0.129 C 
ATOM     30  C   UNL     1      -1.159  -3.608  23.704  0.00  0.00    +0.129 C 
ENDBRANCH  22   7
ENDBRANCH  14  15
ENDBRANCH   5  14
ENDBRANCH  10   5
BRANCH  11   3
ATOM      3  O   UNL     1      -3.019   5.252  25.664  0.00  0.00    -0.442 OA
BRANCH   3  16
ATOM      4  O   UNL     1      -0.845   5.407  24.970  0.00  0.00    -0.226 OA
ATOM      6  N   UNL     1      -2.028   3.389  24.868  0.00  0.00    -0.251 N 
ATOM     16  C   UNL     1      -1.854   4.731  25.141  0.00  0.00    +0.405 C 
ATOM     34  H   UNL     1      -2.944   3.002  25.081  0.00  0.00    +0.158 HD
BRANCH   6  21
ATOM     21  C   UNL     1      -1.089   2.481  24.326  0.00  0.00    +0.036 A 
ATOM     23  C   UNL     1      -1.453   1.656  23.263  0.00  0.00    +0.024 A 
ATOM     24  C   UNL     1       0.198   2.411  24.856  0.00  0.00    +0.024 A 
ATOM     25  C   UNL     1       0.762   0.689  23.256  0.00  0.00    -0.045 A 
ATOM     27  C   UNL     1      -0.526   0.760  22.728  0.00  0.00    +0.006 A 
ATOM     28  C   UNL     1       1.125   1.515  24.321  0.00  0.00    +0.006 A 
BRANCH  25  26
ATOM     26  C   UNL     1       1.751  -0.268  22.685  0.00  0.00    +0.013 C 
ATOM     31  C   UNL     1       3.182   0.301  22.668  0.00  0.00    +0.012 C 
ATOM     32  C   UNL     1       1.363  -0.744  21.271  0.00  0.00    +0.012 C 
ENDBRANCH  25  26
ENDBRANCH   6  21
ENDBRANCH   3  16
ENDBRANCH  11   3
TORSDOF 8
ENDMDL
MODEL 4
REMARK VINA RESULT:       5.0      2.698      4.585
REMARK  Name = 11867448
REMARK  12 active torsions:
REMARK  status: ('A' for Active; 'I' for Inactive)
REMARK    1  A    between atoms: O_3  and  C_11
REMARK    2  A    between atoms: O_3  and  C_16
REMARK    3  A    between atoms: N_5  and  C_10
REMARK    4  A    between atoms: N_5  and  C_14
REMARK    5  A    between atoms: N_6  and  C_21
REMARK    6  A    between atoms: N_7  and  C_22
REMARK    7  A    between atoms: N_7  and  C_29
REMARK    8  A    between atoms: N_7  and  C_30
REMARK    9  A    between atoms: C_14  and  C_15
REMARK   10  A    between atoms: C_25  and  C_26
REMARK   11  A    between atoms: C_26  and  C_31
REMARK   12  A    between atoms: C_26  and  C_32
REMARK                            x       y       z     vdW  Elec       q    Type
REMARK                         _______ _______ _______ _____ _____    ______ ____
ROOT
ATOM      1  O   UNL     1      -3.868   1.663  23.513  0.00  0.00    -0.369 OA
ATOM      2  O   UNL     1      -5.842   2.387  25.730  0.00  0.00    -0.369 OA
ATOM      8  C   UNL     1      -4.442   2.702  25.562  0.00  0.00    +0.170 C 
ATOM      9  C   UNL     1      -3.793   1.484  24.938  0.00  0.00    +0.191 C 
ATOM     10  C   UNL     1      -4.276   3.785  24.518  0.00  0.00    +0.111 C 
ATOM     11  C   UNL     1      -4.686   0.362  25.406  0.00  0.00    +0.235 C 
ATOM     12  C   UNL     1      -4.354   2.984  23.226  0.00  0.00    +0.181 C 
ATOM     13  C   UNL     1      -6.052   1.010  25.384  0.00  0.00    +0.207 C 
ENDROOT
BRANCH  10   5
ATOM      5  N   UNL     1      -2.972   4.437  24.622  0.00  0.00    -0.305 NA
ATOM     33  H   UNL     1      -2.830   4.760  25.579  0.00  0.00    +0.123 HD
BRANCH   5  14
ATOM     14  C   UNL     1      -1.904   3.508  24.287  0.00  0.00    +0.116 C 
BRANCH  14  15
ATOM     15  C   UNL     1      -0.990   3.258  25.458  0.00  0.00    -0.033 A 
ATOM     17  C   UNL     1       0.358   2.973  25.244  0.00  0.00    +0.007 A 
ATOM     18  C   UNL     1      -1.493   3.314  26.759  0.00  0.00    +0.007 A 
ATOM     19  C   UNL     1       1.204   2.743  26.328  0.00  0.00    +0.023 A 
ATOM     20  C   UNL     1      -0.647   3.083  27.843  0.00  0.00    +0.023 A 
ATOM     22  C   UNL     1       0.702   2.798  27.628  0.00  0.00    +0.029 A 
BRANCH  22   7
ATOM      7  N   UNL     1       1.557   2.566  28.725  0.00  0.00    -0.336 N 
ATOM     29  C   UNL     1       2.995   2.638  28.562  0.00  0.00    +0.129 C 
ATOM     30  C   UNL     1       1.009   2.238  30.026  0.00  0.00    +0.129 C 
ENDBRANCH  22   7
ENDBRANCH  14  15
ENDBRANCH   5  14
ENDBRANCH  10   5
BRANCH  11   3
ATOM      3  O   UNL     1      -4.630  -0.783  24.585  0.00  0.00    -0.442 OA
BRANCH   3  16
ATOM      4  O   UNL     1      -3.145  -2.470  24.159  0.00  0.00    -0.226 OA
ATOM      6  N   UNL     1      -2.488  -0.223  24.151  0.00  0.00    -0.251 N 
ATOM     16  C   UNL     1      -3.376  -1.272  24.282  0.00  0.00    +0.405 C 
ATOM     34  H   UNL     1      -2.871   0.709  24.290  0.00  0.00    +0.158 HD
BRANCH   6  21
ATOM     21  C   UNL     1      -1.109  -0.281  23.847  0.00  0.00    +0.036 A 
ATOM     23  C   UNL     1      -0.587   0.510  22.823  0.00  0.00    +0.024 A 
ATOM     24  C   UNL     1      -0.271  -1.130  24.569  0.00  0.00    +0.024 A 
ATOM     25  C   UNL     1       1.612  -0.396  23.244  0.00  0.00    -0.045 A 
ATOM     27  C   UNL     1       0.774   0.452  22.523  0.00  0.00    +0.006 A 
ATOM     28  C   UNL     1       1.091  -1.188  24.267  0.00  0.00    +0.006 A 
BRANCH  25  26
ATOM     26  C   UNL     1       3.067  -0.457  22.923  0.00  0.00    +0.013 C 
ATOM     31  C   UNL     1       3.846  -1.375  23.884  0.00  0.00    +0.012 C 
ATOM     32  C   UNL     1       3.722   0.937  22.886  0.00  0.00    +0.012 C 
ENDBRANCH  25  26
ENDBRANCH   6  21
ENDBRANCH   3  16
ENDBRANCH  11   3
TORSDOF 8
ENDMDL
MODEL 5
REMARK VINA RESULT:       5.7      2.127      4.326
REMARK  Name = 11867448
REMARK  12 active torsions:
REMARK  status: ('A' for Active; 'I' for Inactive)
REMARK    1  A    between atoms: O_3  and  C_11
REMARK    2  A    between atoms: O_3  and  C_16
REMARK    3  A    between atoms: N_5  and  C_10
REMARK    4  A    between atoms: N_5  and  C_14
REMARK    5  A    between atoms: N_6  and  C_21
REMARK    6  A    between atoms: N_7  and  C_22
REMARK    7  A    between atoms: N_7  and  C_29
REMARK    8  A    between atoms: N_7  and  C_30
REMARK    9  A    between atoms: C_14  and  C_15
REMARK   10  A    between atoms: C_25  and  C_26
REMARK   11  A    between atoms: C_26  and  C_31
REMARK   12  A    between atoms: C_26  and  C_32
REMARK                            x       y       z     vdW  Elec       q    Type
REMARK                         _______ _______ _______ _____ _____    ______ ____
ROOT
ATOM      1  O   UNL     1      -4.180  -0.808  23.488  0.00  0.00    -0.369 OA
ATOM      2  O   UNL     1      -4.145  -0.672  26.540  0.00  0.00    -0.369 OA
ATOM      8  C   UNL     1      -4.438   0.334  25.547  0.00  0.00    +0.170 C 
ATOM      9  C   UNL     1      -3.498   0.087  24.385  0.00  0.00    +0.191 C 
ATOM     10  C   UNL     1      -5.815   0.101  24.965  0.00  0.00    +0.111 C 
ATOM     11  C   UNL     1      -2.322  -0.582  25.052  0.00  0.00    +0.235 C 
ATOM     12  C   UNL     1      -5.535  -0.981  23.930  0.00  0.00    +0.181 C 
ATOM     13  C   UNL     1      -2.994  -1.419  26.118  0.00  0.00    +0.207 C 
ENDROOT
BRANCH  10   5
ATOM      5  N   UNL     1      -6.330   1.299  24.303  0.00  0.00    -0.305 NA
ATOM     33  H   UNL     1      -7.320   1.172  24.096  0.00  0.00    +0.123 HD
BRANCH   5  14
ATOM     14  C   UNL     1      -6.186   2.463  25.163  0.00  0.00    +0.116 C 
BRANCH  14  15
ATOM     15  C   UNL     1      -4.787   3.020  25.125  0.00  0.00    -0.033 A 
ATOM     17  C   UNL     1      -4.101   3.103  23.913  0.00  0.00    +0.007 A 
ATOM     18  C   UNL     1      -4.176   3.452  26.302  0.00  0.00    +0.007 A 
ATOM     19  C   UNL     1      -2.806   3.619  23.878  0.00  0.00    +0.023 A 
ATOM     20  C   UNL     1      -2.880   3.967  26.267  0.00  0.00    +0.023 A 
ATOM     22  C   UNL     1      -2.196   4.051  25.054  0.00  0.00    +0.029 A 
BRANCH  22   7
ATOM      7  N   UNL     1      -0.886   4.573  25.019  0.00  0.00    -0.336 N 
ATOM     29  C   UNL     1       0.248   3.731  25.347  0.00  0.00    +0.129 C 
ATOM     30  C   UNL     1      -0.658   5.960  24.668  0.00  0.00    +0.129 C 
ENDBRANCH  22   7
ENDBRANCH  14  15
ENDBRANCH   5  14
ENDBRANCH  10   5
BRANCH  11   3
ATOM      3  O   UNL     1      -1.547  -1.366  24.174  0.00  0.00    -0.442 OA
BRANCH   3  16
ATOM      4  O   UNL     1       0.300  -2.076  25.321  0.00  0.00    -0.226 OA
ATOM      6  N   UNL     1       0.471  -0.624  23.493  0.00  0.00    -0.251 N 
ATOM     16  C   UNL     1      -0.189  -1.414  24.413  0.00  0.00    +0.405 C 
ATOM     34  H   UNL     1      -0.112  -0.148  22.809  0.00  0.00    +0.158 HD
BRANCH   6  21
ATOM     21  C   UNL     1       1.861  -0.394  23.382  0.00  0.00    +0.036 A 
ATOM     23  C   UNL     1       2.765  -1.390  23.751  0.00  0.00    +0.024 A 
ATOM     24  C   UNL     1       2.329   0.830  22.904  0.00  0.00    +0.024 A 
ATOM     25  C   UNL     1       4.606   0.060  23.164  0.00  0.00    -0.045 A 
ATOM     27  C   UNL     1       4.137  -1.163  23.641  0.00  0.00    +0.006 A 
ATOM     28  C   UNL     1       3.702   1.058  22.796  0.00  0.00    +0.006 A 
BRANCH  25  26
ATOM     26  C   UNL     1       6.072   0.303  23.047  0.00  0.00    +0.013 C 
ATOM     31  C   UNL     1       6.868  -0.995  22.817  0.00  0.00    +0.012 C 
ATOM     32  C   UNL     1       6.644   1.057  24.264  0.00  0.00    +0.012 C 
ENDBRANCH  25  26
ENDBRANCH   6  21
ENDBRANCH   3  16
ENDBRANCH  11   3
TORSDOF 8
ENDMDL
MODEL 6
REMARK VINA RESULT:       5.9      1.931      5.294
REMARK  Name = 11867448
REMARK  12 active torsions:
REMARK  status: ('A' for Active; 'I' for Inactive)
REMARK    1  A    between atoms: O_3  and  C_11
REMARK    2  A    between atoms: O_3  and  C_16
REMARK    3  A    between atoms: N_5  and  C_10
REMARK    4  A    between atoms: N_5  and  C_14
REMARK    5  A    between atoms: N_6  and  C_21
REMARK    6  A    between atoms: N_7  and  C_22
REMARK    7  A    between atoms: N_7  and  C_29
REMARK    8  A    between atoms: N_7  and  C_30
REMARK    9  A    between atoms: C_14  and  C_15
REMARK   10  A    between atoms: C_25  and  C_26
REMARK   11  A    between atoms: C_26  and  C_31
REMARK   12  A    between atoms: C_26  and  C_32
REMARK                            x       y       z     vdW  Elec       q    Type
REMARK                         _______ _______ _______ _____ _____    ______ ____
ROOT
ATOM      1  O   UNL     1      -4.400   3.147  24.252  0.00  0.00    -0.369 OA
ATOM      2  O   UNL     1      -5.193   5.426  26.125  0.00  0.00    -0.369 OA
ATOM      8  C   UNL     1      -4.055   4.537  26.138  0.00  0.00    +0.170 C 
ATOM      9  C   UNL     1      -4.555   3.182  25.681  0.00  0.00    +0.191 C 
ATOM     10  C   UNL     1      -3.067   4.946  25.067  0.00  0.00    +0.111 C 
ATOM     11  C   UNL     1      -6.010   3.218  26.083  0.00  0.00    +0.235 C 
ATOM     12  C   UNL     1      -3.676   4.311  23.825  0.00  0.00    +0.181 C 
ATOM     13  C   UNL     1      -6.374   4.664  25.833  0.00  0.00    +0.207 C 
ENDROOT
BRANCH  10   5
ATOM      5  N   UNL     1      -1.741   4.382  25.315  0.00  0.00    -0.305 NA
ATOM     33  H   UNL     1      -1.321   4.848  26.119  0.00  0.00    +0.123 HD
BRANCH   5  14
ATOM     14  C   UNL     1      -1.833   2.959  25.604  0.00  0.00    +0.116 C 
BRANCH  14  15
ATOM     15  C   UNL     1      -0.883   2.153  24.759  0.00  0.00    -0.033 A 
ATOM     17  C   UNL     1       0.494   2.324  24.900  0.00  0.00    +0.007 A 
ATOM     18  C   UNL     1      -1.380   1.234  23.834  0.00  0.00    +0.007 A 
ATOM     19  C   UNL     1       1.374   1.576  24.119  0.00  0.00    +0.023 A 
ATOM     20  C   UNL     1      -0.500   0.487  23.052  0.00  0.00    +0.023 A 
ATOM     22  C   UNL     1       0.877   0.658  23.194  0.00  0.00    +0.029 A 
BRANCH  22   7
ATOM      7  N   UNL     1       1.767  -0.099  22.403  0.00  0.00    -0.336 N 
ATOM     29  C   UNL     1       1.286  -0.810  21.236  0.00  0.00    +0.129 C 
ATOM     30  C   UNL     1       3.170  -0.186  22.755  0.00  0.00    +0.129 C 
ENDBRANCH  22   7
ENDBRANCH  14  15
ENDBRANCH   5  14
ENDBRANCH  10   5
BRANCH  11   3
ATOM      3  O   UNL     1      -6.820   2.332  25.344  0.00  0.00    -0.442 OA
BRANCH   3  16
ATOM      4  O   UNL     1      -6.629   0.651  23.804  0.00  0.00    -0.226 OA
ATOM      6  N   UNL     1      -5.073   0.918  25.532  0.00  0.00    -0.251 N 
ATOM     16  C   UNL     1      -6.199   1.228  24.797  0.00  0.00    +0.405 C 
ATOM     34  H   UNL     1      -4.877   1.518  26.329  0.00  0.00    +0.158 HD
BRANCH   6  21
ATOM     21  C   UNL     1      -4.154  -0.135  25.316  0.00  0.00    +0.036 A 
ATOM     23  C   UNL     1      -4.264  -0.932  24.177  0.00  0.00    +0.024 A 
ATOM     24  C   UNL     1      -3.140  -0.377  26.242  0.00  0.00    +0.024 A 
ATOM     25  C   UNL     1      -2.343  -2.213  24.888  0.00  0.00    -0.045 A 
ATOM     27  C   UNL     1      -3.357  -1.971  23.963  0.00  0.00    +0.006 A 
ATOM     28  C   UNL     1      -2.234  -1.417  26.029  0.00  0.00    +0.006 A 
BRANCH  25  26
ATOM     26  C   UNL     1      -1.375  -3.324  24.660  0.00  0.00    +0.013 C 
ATOM     31  C   UNL     1       0.051  -2.968  25.121  0.00  0.00    +0.012 C 
ATOM     32  C   UNL     1      -1.347  -3.789  23.191  0.00  0.00    +0.012 C 
ENDBRANCH  25  26
ENDBRANCH   6  21
ENDBRANCH   3  16
ENDBRANCH  11   3
TORSDOF 8
ENDMDL
MODEL 7
REMARK VINA RESULT:       6.5      2.504      4.558
REMARK  Name = 11867448
REMARK  12 active torsions:
REMARK  status: ('A' for Active; 'I' for Inactive)
REMARK    1  A    between atoms: O_3  and  C_11
REMARK    2  A    between atoms: O_3  and  C_16
REMARK    3  A    between atoms: N_5  and  C_10
REMARK    4  A    between atoms: N_5  and  C_14
REMARK    5  A    between atoms: N_6  and  C_21
REMARK    6  A    between atoms: N_7  and  C_22
REMARK    7  A    between atoms: N_7  and  C_29
REMARK    8  A    between atoms: N_7  and  C_30
REMARK    9  A    between atoms: C_14  and  C_15
REMARK   10  A    between atoms: C_25  and  C_26
REMARK   11  A    between atoms: C_26  and  C_31
REMARK   12  A    between atoms: C_26  and  C_32
REMARK                            x       y       z     vdW  Elec       q    Type
REMARK                         _______ _______ _______ _____ _____    ______ ____
ROOT
ATOM      1  O   UNL     1      -3.139   1.463  24.826  0.00  0.00    -0.369 OA
ATOM      2  O   UNL     1      -6.117   1.557  25.499  0.00  0.00    -0.369 OA
ATOM      8  C   UNL     1      -5.389   0.800  24.507  0.00  0.00    +0.170 C 
ATOM      9  C   UNL     1      -4.286   1.702  23.993  0.00  0.00    +0.191 C 
ATOM     10  C   UNL     1      -4.654  -0.345  25.168  0.00  0.00    +0.111 C 
ATOM     11  C   UNL     1      -4.859   3.080  24.217  0.00  0.00    +0.235 C 
ATOM     12  C   UNL     1      -3.407   0.351  25.696  0.00  0.00    +0.181 C 
ATOM     13  C   UNL     1      -5.619   2.903  25.513  0.00  0.00    +0.207 C 
ENDROOT
BRANCH  10   5
ATOM      5  N   UNL     1      -4.276  -1.372  24.199  0.00  0.00    -0.305 NA
ATOM     33  H   UNL     1      -3.979  -0.925  23.331  0.00  0.00    +0.123 HD
BRANCH   5  14
ATOM     14  C   UNL     1      -3.174  -2.176  24.703  0.00  0.00    +0.116 C 
BRANCH  14  15
ATOM     15  C   UNL     1      -1.837  -1.593  24.327  0.00  0.00    -0.033 A 
ATOM     17  C   UNL     1      -0.697  -1.932  25.057  0.00  0.00    +0.007 A 
ATOM     18  C   UNL     1      -1.738  -0.714  23.248  0.00  0.00    +0.007 A 
ATOM     19  C   UNL     1       0.540  -1.394  24.708  0.00  0.00    +0.023 A 
ATOM     20  C   UNL     1      -0.500  -0.175  22.900  0.00  0.00    +0.023 A 
ATOM     22  C   UNL     1       0.639  -0.515  23.629  0.00  0.00    +0.029 A 
BRANCH  22   7
ATOM      7  N   UNL     1       1.892   0.030  23.276  0.00  0.00    -0.336 N 
ATOM     29  C   UNL     1       3.027  -0.837  23.034  0.00  0.00    +0.129 C 
ATOM     30  C   UNL     1       2.062   1.465  23.165  0.00  0.00    +0.129 C 
ENDBRANCH  22   7
ENDBRANCH  14  15
ENDBRANCH   5  14
ENDBRANCH  10   5
BRANCH  11   3
ATOM      3  O   UNL     1      -3.880   4.089  24.310  0.00  0.00    -0.442 OA
BRANCH   3  16
ATOM      4  O   UNL     1      -3.434   4.766  26.449  0.00  0.00    -0.226 OA
ATOM      6  N   UNL     1      -2.003   3.316  25.295  0.00  0.00    -0.251 N 
ATOM     16  C   UNL     1      -3.118   4.115  25.460  0.00  0.00    +0.405 C 
ATOM     34  H   UNL     1      -1.913   2.851  24.396  0.00  0.00    +0.158 HD
BRANCH   6  21
ATOM     21  C   UNL     1      -0.968   3.064  26.224  0.00  0.00    +0.036 A 
ATOM     23  C   UNL     1       0.337   2.861  25.774  0.00  0.00    +0.024 A 
ATOM     24  C   UNL     1      -1.250   3.018  27.588  0.00  0.00    +0.024 A 
ATOM     25  C   UNL     1       1.078   2.566  28.054  0.00  0.00    -0.045 A 
ATOM     27  C   UNL     1       1.359   2.613  26.690  0.00  0.00    +0.006 A 
ATOM     28  C   UNL     1      -0.227   2.768  28.505  0.00  0.00    +0.006 A 
BRANCH  25  26
ATOM     26  C   UNL     1       2.171   2.300  29.033  0.00  0.00    +0.013 C 
ATOM     31  C   UNL     1       1.641   2.069  30.461  0.00  0.00    +0.012 C 
ATOM     32  C   UNL     1       3.236   3.414  29.044  0.00  0.00    +0.012 C 
ENDBRANCH  25  26
ENDBRANCH   6  21
ENDBRANCH   3  16
ENDBRANCH  11   3
TORSDOF 8
ENDMDL
