MODEL 1
REMARK VINA RESULT:      -3.5      0.000      0.000
REMARK  Name = 71693195
REMARK  14 active torsions:
REMARK  status: ('A' for Active; 'I' for Inactive)
REMARK    1  A    between atoms: O_2  and  C_28
REMARK    2  A    between atoms: O_2  and  C_31
REMARK    3  A    between atoms: O_3  and  C_30
REMARK    4  A    between atoms: N_5  and  C_15
REMARK    5  A    between atoms: C_8  and  C_12
REMARK    6  A    between atoms: C_9  and  C_15
REMARK    7  A    between atoms: C_11  and  C_16
REMARK    8  A    between atoms: C_12  and  C_17
REMARK    9  A    between atoms: C_12  and  C_18
REMARK   10  A    between atoms: C_13  and  C_19
REMARK   11  A    between atoms: C_16  and  C_20
REMARK   12  A    between atoms: C_21  and  C_24
REMARK   13  A    between atoms: C_24  and  C_27
REMARK   14  A    between atoms: C_27  and  C_30
REMARK                            x       y       z     vdW  Elec       q    Type
REMARK                         _______ _______ _______ _____ _____    ______ ____
ROOT
ATOM      8  C   UNL     1      -2.545   2.470  23.693  0.00  0.00    +0.000 C 
ATOM      9  C   UNL     1      -1.379   2.998  24.566  0.00  0.00    +0.032 C 
ATOM     10  C   UNL     1      -3.683   3.499  23.639  0.00  0.00    +0.012 C 
ATOM     11  C   UNL     1      -4.233   3.834  25.038  0.00  0.00    +0.022 C 
ATOM     13  C   UNL     1      -3.122   4.106  26.030  0.00  0.00    -0.073 C 
ATOM     14  C   UNL     1      -1.850   3.737  25.797  0.00  0.00    -0.022 C 
ATOM     19  C   UNL     1      -3.497   4.854  27.279  0.00  0.00    +0.039 C 
ENDROOT
BRANCH   8  12
ATOM     12  C   UNL     1      -2.083   2.132  22.272  0.00  0.00    -0.013 C 
ATOM     17  C   UNL     1      -2.068   0.621  22.062  0.00  0.00    +0.007 C 
ATOM     18  C   UNL     1      -2.981   2.812  21.244  0.00  0.00    +0.007 C 
ENDBRANCH   8  12
BRANCH   9  15
ATOM     15  C   UNL     1      -0.440   1.860  24.982  0.00  0.00    +0.112 C 
BRANCH  15   5
ATOM      1  O   UNL     1       0.816  -0.182  23.362  0.00  0.00    -0.276 OA
ATOM      5  N   UNL     1       0.807   1.950  24.290  0.00  0.00    -0.315 N 
ATOM     21  C   UNL     1       1.345   0.913  23.526  0.00  0.00    +0.214 C 
ATOM     32  H   UNL     1       1.302   2.838  24.312  0.00  0.00    +0.149 HD
BRANCH  21  24
ATOM     24  C   UNL     1       2.680   1.292  22.910  0.00  0.00    +0.107 C 
BRANCH  24  27
ATOM     27  C   UNL     1       3.547   0.074  22.607  0.00  0.00    +0.129 C 
BRANCH  27  30
ATOM      4  O   UNL     1       5.403   0.784  24.011  0.00  0.00    -0.251 OA
ATOM     30  C   UNL     1       4.652  -0.099  23.623  0.00  0.00    +0.305 C 
BRANCH  30   3
ATOM      3  O   UNL     1       4.718  -1.380  24.071  0.00  0.00    -0.481 OA
ATOM     34  H   UNL     1       3.875  -1.667  24.483  0.00  0.00    +0.295 HD
ENDBRANCH  30   3
ENDBRANCH  27  30
ENDBRANCH  24  27
ENDBRANCH  21  24
ENDBRANCH  15   5
ENDBRANCH   9  15
BRANCH  11  16
ATOM     16  C   UNL     1      -5.163   2.725  25.545  0.00  0.00    +0.082 C 
BRANCH  16  20
ATOM      6  N   UNL     1      -3.412   0.951  25.767  0.00  0.00    -0.342 N 
ATOM      7  N   UNL     1      -5.153   0.441  24.482  0.00  0.00    -0.232 NA
ATOM     20  C   UNL     1      -4.606   1.363  25.243  0.00  0.00    +0.109 A 
ATOM     22  C   UNL     1      -3.174  -0.322  25.315  0.00  0.00    +0.070 A 
ATOM     23  C   UNL     1      -4.274  -0.617  24.514  0.00  0.00    +0.089 A 
ATOM     25  C   UNL     1      -2.121  -1.213  25.530  0.00  0.00    +0.073 A 
ATOM     26  C   UNL     1      -4.346  -1.870  23.884  0.00  0.00    +0.033 A 
ATOM     28  C   UNL     1      -2.210  -2.455  24.895  0.00  0.00    +0.122 A 
ATOM     29  C   UNL     1      -3.301  -2.781  24.085  0.00  0.00    +0.048 A 
ATOM     33  H   UNL     1      -2.813   1.486  26.380  0.00  0.00    +0.167 HD
BRANCH  28   2
ATOM      2  O   UNL     1      -1.209  -3.366  25.069  0.00  0.00    -0.495 OA
ATOM     31  C   UNL     1       0.066  -2.859  25.453  0.00  0.00    +0.277 C 
ENDBRANCH  28   2
ENDBRANCH  16  20
ENDBRANCH  11  16
TORSDOF 10
ENDMDL
MODEL 2
REMARK VINA RESULT:      -2.6      1.641      5.069
REMARK  Name = 71693195
REMARK  14 active torsions:
REMARK  status: ('A' for Active; 'I' for Inactive)
REMARK    1  A    between atoms: O_2  and  C_28
REMARK    2  A    between atoms: O_2  and  C_31
REMARK    3  A    between atoms: O_3  and  C_30
REMARK    4  A    between atoms: N_5  and  C_15
REMARK    5  A    between atoms: C_8  and  C_12
REMARK    6  A    between atoms: C_9  and  C_15
REMARK    7  A    between atoms: C_11  and  C_16
REMARK    8  A    between atoms: C_12  and  C_17
REMARK    9  A    between atoms: C_12  and  C_18
REMARK   10  A    between atoms: C_13  and  C_19
REMARK   11  A    between atoms: C_16  and  C_20
REMARK   12  A    between atoms: C_21  and  C_24
REMARK   13  A    between atoms: C_24  and  C_27
REMARK   14  A    between atoms: C_27  and  C_30
REMARK                            x       y       z     vdW  Elec       q    Type
REMARK                         _______ _______ _______ _____ _____    ______ ____
ROOT
ATOM      8  C   UNL     1      -4.149   2.009  25.325  0.00  0.00    +0.000 C 
ATOM      9  C   UNL     1      -4.108   2.244  23.794  0.00  0.00    +0.032 C 
ATOM     10  C   UNL     1      -3.837   3.311  26.076  0.00  0.00    +0.012 C 
ATOM     11  C   UNL     1      -2.454   3.879  25.708  0.00  0.00    +0.022 C 
ATOM     13  C   UNL     1      -2.232   3.892  24.210  0.00  0.00    -0.073 C 
ATOM     14  C   UNL     1      -2.989   3.166  23.368  0.00  0.00    -0.022 C 
ATOM     19  C   UNL     1      -1.147   4.797  23.693  0.00  0.00    +0.039 C 
ENDROOT
BRANCH   8  12
ATOM     12  C   UNL     1      -5.506   1.461  25.779  0.00  0.00    -0.013 C 
ATOM     17  C   UNL     1      -5.984   2.193  27.029  0.00  0.00    +0.007 C 
ATOM     18  C   UNL     1      -6.532   1.582  24.657  0.00  0.00    +0.007 C 
ENDBRANCH   8  12
BRANCH   9  15
ATOM     15  C   UNL     1      -3.993   0.918  23.034  0.00  0.00    +0.112 C 
BRANCH  15   5
ATOM      1  O   UNL     1      -5.079  -1.711  23.566  0.00  0.00    -0.276 OA
ATOM      5  N   UNL     1      -3.430  -0.098  23.866  0.00  0.00    -0.315 N 
ATOM     21  C   UNL     1      -4.021  -1.346  24.071  0.00  0.00    +0.214 C 
ATOM     32  H   UNL     1      -2.522   0.079  24.289  0.00  0.00    +0.149 HD
BRANCH  21  24
ATOM     24  C   UNL     1      -3.201  -2.220  25.004  0.00  0.00    +0.107 C 
BRANCH  24  27
ATOM     27  C   UNL     1      -1.766  -2.401  24.519  0.00  0.00    +0.129 C 
BRANCH  27  30
ATOM      4  O   UNL     1       0.362  -2.441  25.700  0.00  0.00    -0.251 OA
ATOM     30  C   UNL     1      -0.760  -1.974  25.563  0.00  0.00    +0.305 C 
BRANCH  30   3
ATOM      3  O   UNL     1      -1.254  -0.984  26.352  0.00  0.00    -0.481 OA
ATOM     34  H   UNL     1      -0.847  -0.115  26.145  0.00  0.00    +0.295 HD
ENDBRANCH  30   3
ENDBRANCH  27  30
ENDBRANCH  24  27
ENDBRANCH  21  24
ENDBRANCH  15   5
ENDBRANCH   9  15
BRANCH  11  16
ATOM     16  C   UNL     1      -1.334   3.113  26.422  0.00  0.00    +0.082 C 
BRANCH  16  20
ATOM      6  N   UNL     1       0.799   2.602  25.219  0.00  0.00    -0.342 N 
ATOM      7  N   UNL     1      -0.924   1.284  24.739  0.00  0.00    -0.232 NA
ATOM     20  C   UNL     1      -0.516   2.309  25.452  0.00  0.00    +0.109 A 
ATOM     22  C   UNL     1       1.270   1.704  24.296  0.00  0.00    +0.070 A 
ATOM     23  C   UNL     1       0.175   0.892  24.012  0.00  0.00    +0.089 A 
ATOM     25  C   UNL     1       2.522   1.538  23.702  0.00  0.00    +0.073 A 
ATOM     26  C   UNL     1       0.319  -0.152  23.083  0.00  0.00    +0.033 A 
ATOM     28  C   UNL     1       2.647   0.493  22.780  0.00  0.00    +0.122 A 
ATOM     29  C   UNL     1       1.567  -0.338  22.474  0.00  0.00    +0.048 A 
ATOM     33  H   UNL     1       1.331   3.345  25.651  0.00  0.00    +0.167 HD
BRANCH  28   2
ATOM      2  O   UNL     1       3.849   0.284  22.168  0.00  0.00    -0.495 OA
ATOM     31  C   UNL     1       4.994   0.186  23.011  0.00  0.00    +0.277 C 
ENDBRANCH  28   2
ENDBRANCH  16  20
ENDBRANCH  11  16
TORSDOF 10
ENDMDL
MODEL 3
REMARK VINA RESULT:      -2.1      2.157      4.953
REMARK  Name = 71693195
REMARK  14 active torsions:
REMARK  status: ('A' for Active; 'I' for Inactive)
REMARK    1  A    between atoms: O_2  and  C_28
REMARK    2  A    between atoms: O_2  and  C_31
REMARK    3  A    between atoms: O_3  and  C_30
REMARK    4  A    between atoms: N_5  and  C_15
REMARK    5  A    between atoms: C_8  and  C_12
REMARK    6  A    between atoms: C_9  and  C_15
REMARK    7  A    between atoms: C_11  and  C_16
REMARK    8  A    between atoms: C_12  and  C_17
REMARK    9  A    between atoms: C_12  and  C_18
REMARK   10  A    between atoms: C_13  and  C_19
REMARK   11  A    between atoms: C_16  and  C_20
REMARK   12  A    between atoms: C_21  and  C_24
REMARK   13  A    between atoms: C_24  and  C_27
REMARK   14  A    between atoms: C_27  and  C_30
REMARK                            x       y       z     vdW  Elec       q    Type
REMARK                         _______ _______ _______ _____ _____    ______ ____
ROOT
ATOM      8  C   UNL     1      -1.310   0.572  25.398  0.00  0.00    +0.000 C 
ATOM      9  C   UNL     1      -0.034   0.149  24.627  0.00  0.00    +0.032 C 
ATOM     10  C   UNL     1      -1.873  -0.613  26.196  0.00  0.00    +0.012 C 
ATOM     11  C   UNL     1      -2.223  -1.810  25.293  0.00  0.00    +0.022 C 
ATOM     13  C   UNL     1      -1.110  -2.121  24.313  0.00  0.00    -0.073 C 
ATOM     14  C   UNL     1      -0.132  -1.239  24.039  0.00  0.00    -0.022 C 
ATOM     19  C   UNL     1      -1.118  -3.490  23.690  0.00  0.00    +0.039 C 
ENDROOT
BRANCH   8  12
ATOM     12  C   UNL     1      -1.041   1.750  26.339  0.00  0.00    -0.013 C 
ATOM     17  C   UNL     1       0.447   1.846  26.659  0.00  0.00    +0.007 C 
ATOM     18  C   UNL     1      -1.547   3.050  25.724  0.00  0.00    +0.007 C 
ENDBRANCH   8  12
BRANCH   9  15
ATOM     15  C   UNL     1       0.300   1.152  23.518  0.00  0.00    +0.112 C 
BRANCH  15   5
ATOM      1  O   UNL     1       2.305  -0.227  21.951  0.00  0.00    -0.276 OA
ATOM      5  N   UNL     1       1.703   1.419  23.480  0.00  0.00    -0.315 N 
ATOM     21  C   UNL     1       2.607   0.703  22.693  0.00  0.00    +0.214 C 
ATOM     32  H   UNL     1       2.054   2.210  24.015  0.00  0.00    +0.149 HD
BRANCH  21  24
ATOM     24  C   UNL     1       4.030   1.206  22.857  0.00  0.00    +0.107 C 
BRANCH  24  27
ATOM     27  C   UNL     1       5.057   0.081  22.773  0.00  0.00    +0.129 C 
BRANCH  27  30
ATOM      4  O   UNL     1       5.825  -0.534  25.000  0.00  0.00    -0.251 OA
ATOM     30  C   UNL     1       5.097  -0.742  24.040  0.00  0.00    +0.305 C 
BRANCH  30   3
ATOM      3  O   UNL     1       4.205  -1.767  23.994  0.00  0.00    -0.481 OA
ATOM     34  H   UNL     1       4.483  -2.519  24.559  0.00  0.00    +0.295 HD
ENDBRANCH  30   3
ENDBRANCH  27  30
ENDBRANCH  24  27
ENDBRANCH  21  24
ENDBRANCH  15   5
ENDBRANCH   9  15
BRANCH  11  16
ATOM     16  C   UNL     1      -3.549  -1.580  24.559  0.00  0.00    +0.082 C 
BRANCH  16  20
ATOM      6  N   UNL     1      -4.737   0.395  25.532  0.00  0.00    -0.342 N 
ATOM      7  N   UNL     1      -3.567   0.782  23.683  0.00  0.00    -0.232 NA
ATOM     20  C   UNL     1      -3.931  -0.127  24.560  0.00  0.00    +0.109 A 
ATOM     22  C   UNL     1      -4.904   1.730  25.265  0.00  0.00    +0.070 A 
ATOM     23  C   UNL     1      -4.164   1.946  24.106  0.00  0.00    +0.089 A 
ATOM     25  C   UNL     1      -5.617   2.736  25.918  0.00  0.00    +0.073 A 
ATOM     26  C   UNL     1      -4.122   3.236  23.550  0.00  0.00    +0.033 A 
ATOM     28  C   UNL     1      -5.564   4.014  25.352  0.00  0.00    +0.122 A 
ATOM     29  C   UNL     1      -4.831   4.262  24.189  0.00  0.00    +0.048 A 
ATOM     33  H   UNL     1      -5.138  -0.109  26.311  0.00  0.00    +0.167 HD
BRANCH  28   2
ATOM      2  O   UNL     1      -6.243   5.036  25.948  0.00  0.00    -0.495 OA
ATOM     31  C   UNL     1      -6.662   6.109  25.108  0.00  0.00    +0.277 C 
ENDBRANCH  28   2
ENDBRANCH  16  20
ENDBRANCH  11  16
TORSDOF 10
ENDMDL
MODEL 4
REMARK VINA RESULT:      -2.0      1.880      5.029
REMARK  Name = 71693195
REMARK  14 active torsions:
REMARK  status: ('A' for Active; 'I' for Inactive)
REMARK    1  A    between atoms: O_2  and  C_28
REMARK    2  A    between atoms: O_2  and  C_31
REMARK    3  A    between atoms: O_3  and  C_30
REMARK    4  A    between atoms: N_5  and  C_15
REMARK    5  A    between atoms: C_8  and  C_12
REMARK    6  A    between atoms: C_9  and  C_15
REMARK    7  A    between atoms: C_11  and  C_16
REMARK    8  A    between atoms: C_12  and  C_17
REMARK    9  A    between atoms: C_12  and  C_18
REMARK   10  A    between atoms: C_13  and  C_19
REMARK   11  A    between atoms: C_16  and  C_20
REMARK   12  A    between atoms: C_21  and  C_24
REMARK   13  A    between atoms: C_24  and  C_27
REMARK   14  A    between atoms: C_27  and  C_30
REMARK                            x       y       z     vdW  Elec       q    Type
REMARK                         _______ _______ _______ _____ _____    ______ ____
ROOT
ATOM      8  C   UNL     1      -1.738  -0.733  24.952  0.00  0.00    +0.000 C 
ATOM      9  C   UNL     1      -1.218  -2.025  24.271  0.00  0.00    +0.032 C 
ATOM     10  C   UNL     1      -2.980  -1.038  25.802  0.00  0.00    +0.012 C 
ATOM     11  C   UNL     1      -4.124  -1.643  24.967  0.00  0.00    +0.022 C 
ATOM     13  C   UNL     1      -3.634  -2.755  24.062  0.00  0.00    -0.073 C 
ATOM     14  C   UNL     1      -2.330  -2.918  23.774  0.00  0.00    -0.022 C 
ATOM     19  C   UNL     1      -4.672  -3.705  23.533  0.00  0.00    +0.039 C 
ENDROOT
BRANCH   8  12
ATOM     12  C   UNL     1      -0.662  -0.078  25.824  0.00  0.00    -0.013 C 
ATOM     17  C   UNL     1      -0.754   1.442  25.731  0.00  0.00    +0.007 C 
ATOM     18  C   UNL     1      -0.794  -0.541  27.271  0.00  0.00    +0.007 C 
ENDBRANCH   8  12
BRANCH   9  15
ATOM     15  C   UNL     1      -0.271  -1.696  23.113  0.00  0.00    +0.112 C 
BRANCH  15   5
ATOM      1  O   UNL     1       1.613  -0.301  21.416  0.00  0.00    -0.276 OA
ATOM      5  N   UNL     1       0.710  -0.737  23.515  0.00  0.00    -0.315 N 
ATOM     21  C   UNL     1       1.586  -0.107  22.628  0.00  0.00    +0.214 C 
ATOM     32  H   UNL     1       0.734  -0.459  24.492  0.00  0.00    +0.149 HD
BRANCH  21  24
ATOM     24  C   UNL     1       2.517   0.860  23.336  0.00  0.00    +0.107 C 
BRANCH  24  27
ATOM     27  C   UNL     1       3.918   0.866  22.732  0.00  0.00    +0.129 C 
BRANCH  27  30
ATOM      4  O   UNL     1       6.025   0.195  23.747  0.00  0.00    -0.251 OA
ATOM     30  C   UNL     1       4.859  -0.051  23.478  0.00  0.00    +0.305 C 
BRANCH  30   3
ATOM      3  O   UNL     1       4.244  -1.212  23.829  0.00  0.00    -0.481 OA
ATOM     34  H   UNL     1       3.855  -1.162  24.728  0.00  0.00    +0.295 HD
ENDBRANCH  30   3
ENDBRANCH  27  30
ENDBRANCH  24  27
ENDBRANCH  21  24
ENDBRANCH  15   5
ENDBRANCH   9  15
BRANCH  11  16
ATOM     16  C   UNL     1      -4.851  -0.560  24.160  0.00  0.00    +0.082 C 
BRANCH  16  20
ATOM      6  N   UNL     1      -3.371   1.448  23.964  0.00  0.00    -0.342 N 
ATOM      7  N   UNL     1      -4.949   1.554  25.526  0.00  0.00    -0.232 NA
ATOM     20  C   UNL     1      -4.418   0.816  24.577  0.00  0.00    +0.109 A 
ATOM     22  C   UNL     1      -3.218   2.675  24.557  0.00  0.00    +0.070 A 
ATOM     23  C   UNL     1      -4.215   2.717  25.529  0.00  0.00    +0.089 A 
ATOM     25  C   UNL     1      -2.321   3.720  24.334  0.00  0.00    +0.073 A 
ATOM     26  C   UNL     1      -4.338   3.861  26.335  0.00  0.00    +0.033 A 
ATOM     28  C   UNL     1      -2.458   4.851  25.145  0.00  0.00    +0.122 A 
ATOM     29  C   UNL     1      -3.447   4.923  26.129  0.00  0.00    +0.048 A 
ATOM     33  H   UNL     1      -2.811   1.079  23.208  0.00  0.00    +0.167 HD
BRANCH  28   2
ATOM      2  O   UNL     1      -1.607   5.903  24.972  0.00  0.00    -0.495 OA
ATOM     31  C   UNL     1      -0.286   5.600  24.531  0.00  0.00    +0.277 C 
ENDBRANCH  28   2
ENDBRANCH  16  20
ENDBRANCH  11  16
TORSDOF 10
ENDMDL
MODEL 5
REMARK VINA RESULT:      -1.7      2.481      4.309
REMARK  Name = 71693195
REMARK  14 active torsions:
REMARK  status: ('A' for Active; 'I' for Inactive)
REMARK    1  A    between atoms: O_2  and  C_28
REMARK    2  A    between atoms: O_2  and  C_31
REMARK    3  A    between atoms: O_3  and  C_30
REMARK    4  A    between atoms: N_5  and  C_15
REMARK    5  A    between atoms: C_8  and  C_12
REMARK    6  A    between atoms: C_9  and  C_15
REMARK    7  A    between atoms: C_11  and  C_16
REMARK    8  A    between atoms: C_12  and  C_17
REMARK    9  A    between atoms: C_12  and  C_18
REMARK   10  A    between atoms: C_13  and  C_19
REMARK   11  A    between atoms: C_16  and  C_20
REMARK   12  A    between atoms: C_21  and  C_24
REMARK   13  A    between atoms: C_24  and  C_27
REMARK   14  A    between atoms: C_27  and  C_30
REMARK                            x       y       z     vdW  Elec       q    Type
REMARK                         _______ _______ _______ _____ _____    ______ ____
ROOT
ATOM      8  C   UNL     1      -3.465   2.335  23.911  0.00  0.00    +0.000 C 
ATOM      9  C   UNL     1      -4.284   3.439  24.625  0.00  0.00    +0.032 C 
ATOM     10  C   UNL     1      -4.334   1.092  23.671  0.00  0.00    +0.012 C 
ATOM     11  C   UNL     1      -4.896   0.512  24.983  0.00  0.00    +0.022 C 
ATOM     13  C   UNL     1      -5.486   1.590  25.868  0.00  0.00    -0.073 C 
ATOM     14  C   UNL     1      -5.212   2.894  25.685  0.00  0.00    -0.022 C 
ATOM     19  C   UNL     1      -6.436   1.139  26.943  0.00  0.00    +0.039 C 
ENDROOT
BRANCH   8  12
ATOM     12  C   UNL     1      -2.886   2.827  22.580  0.00  0.00    -0.013 C 
ATOM     17  C   UNL     1      -2.389   1.649  21.748  0.00  0.00    +0.007 C 
ATOM     18  C   UNL     1      -3.929   3.631  21.811  0.00  0.00    +0.007 C 
ENDBRANCH   8  12
BRANCH   9  15
ATOM     15  C   UNL     1      -3.365   4.496  25.246  0.00  0.00    +0.112 C 
BRANCH  15   5
ATOM      1  O   UNL     1      -0.519   3.989  25.101  0.00  0.00    -0.276 OA
ATOM      5  N   UNL     1      -2.537   3.918  26.257  0.00  0.00    -0.315 N 
ATOM     21  C   UNL     1      -1.165   3.706  26.107  0.00  0.00    +0.214 C 
ATOM     32  H   UNL     1      -2.961   3.700  27.155  0.00  0.00    +0.149 HD
BRANCH  21  24
ATOM     24  C   UNL     1      -0.546   3.076  27.341  0.00  0.00    +0.107 C 
BRANCH  24  27
ATOM     27  C   UNL     1       0.916   2.697  27.130  0.00  0.00    +0.129 C 
BRANCH  27  30
ATOM      4  O   UNL     1       2.873   3.020  28.540  0.00  0.00    -0.251 OA
ATOM     30  C   UNL     1       1.696   2.713  28.425  0.00  0.00    +0.305 C 
BRANCH  30   3
ATOM      3  O   UNL     1       0.919   2.341  29.476  0.00  0.00    -0.481 OA
ATOM     34  H   UNL     1       0.012   2.100  29.192  0.00  0.00    +0.295 HD
ENDBRANCH  30   3
ENDBRANCH  27  30
ENDBRANCH  24  27
ENDBRANCH  21  24
ENDBRANCH  15   5
ENDBRANCH   9  15
BRANCH  11  16
ATOM     16  C   UNL     1      -3.827  -0.291  25.734  0.00  0.00    +0.082 C 
BRANCH  16  20
ATOM      6  N   UNL     1      -1.617   0.777  25.251  0.00  0.00    -0.342 N 
ATOM      7  N   UNL     1      -2.047  -1.102  24.146  0.00  0.00    -0.232 NA
ATOM     20  C   UNL     1      -2.504  -0.238  25.025  0.00  0.00    +0.109 A 
ATOM     22  C   UNL     1      -0.514   0.552  24.467  0.00  0.00    +0.070 A 
ATOM     23  C   UNL     1      -0.808  -0.627  23.787  0.00  0.00    +0.089 A 
ATOM     25  C   UNL     1       0.678   1.257  24.298  0.00  0.00    +0.073 A 
ATOM     26  C   UNL     1       0.132  -1.148  22.882  0.00  0.00    +0.033 A 
ATOM     28  C   UNL     1       1.602   0.724  23.394  0.00  0.00    +0.122 A 
ATOM     29  C   UNL     1       1.336  -0.457  22.696  0.00  0.00    +0.048 A 
ATOM     33  H   UNL     1      -1.747   1.555  25.884  0.00  0.00    +0.167 HD
BRANCH  28   2
ATOM      2  O   UNL     1       2.785   1.372  23.189  0.00  0.00    -0.495 OA
ATOM     31  C   UNL     1       3.877   0.588  22.715  0.00  0.00    +0.277 C 
ENDBRANCH  28   2
ENDBRANCH  16  20
ENDBRANCH  11  16
TORSDOF 10
ENDMDL
MODEL 6
REMARK VINA RESULT:      -1.7      2.565      6.966
REMARK  Name = 71693195
REMARK  14 active torsions:
REMARK  status: ('A' for Active; 'I' for Inactive)
REMARK    1  A    between atoms: O_2  and  C_28
REMARK    2  A    between atoms: O_2  and  C_31
REMARK    3  A    between atoms: O_3  and  C_30
REMARK    4  A    between atoms: N_5  and  C_15
REMARK    5  A    between atoms: C_8  and  C_12
REMARK    6  A    between atoms: C_9  and  C_15
REMARK    7  A    between atoms: C_11  and  C_16
REMARK    8  A    between atoms: C_12  and  C_17
REMARK    9  A    between atoms: C_12  and  C_18
REMARK   10  A    between atoms: C_13  and  C_19
REMARK   11  A    between atoms: C_16  and  C_20
REMARK   12  A    between atoms: C_21  and  C_24
REMARK   13  A    between atoms: C_24  and  C_27
REMARK   14  A    between atoms: C_27  and  C_30
REMARK                            x       y       z     vdW  Elec       q    Type
REMARK                         _______ _______ _______ _____ _____    ______ ____
ROOT
ATOM      8  C   UNL     1      -3.273  -1.383  24.330  0.00  0.00    +0.000 C 
ATOM      9  C   UNL     1      -3.820  -0.267  25.255  0.00  0.00    +0.032 C 
ATOM     10  C   UNL     1      -1.867  -1.810  24.777  0.00  0.00    +0.012 C 
ATOM     11  C   UNL     1      -0.871  -0.635  24.766  0.00  0.00    +0.022 C 
ATOM     13  C   UNL     1      -1.447   0.598  25.430  0.00  0.00    -0.073 C 
ATOM     14  C   UNL     1      -2.766   0.740  25.653  0.00  0.00    -0.022 C 
ATOM     19  C   UNL     1      -0.467   1.648  25.876  0.00  0.00    +0.039 C 
ENDROOT
BRANCH   8  12
ATOM     12  C   UNL     1      -4.200  -2.602  24.301  0.00  0.00    -0.013 C 
ATOM     17  C   UNL     1      -4.672  -2.879  22.877  0.00  0.00    +0.007 C 
ATOM     18  C   UNL     1      -3.495  -3.822  24.884  0.00  0.00    +0.007 C 
ENDBRANCH   8  12
BRANCH   9  15
ATOM     15  C   UNL     1      -5.001   0.461  24.604  0.00  0.00    +0.112 C 
BRANCH  15   5
ATOM      1  O   UNL     1      -6.156   2.403  26.413  0.00  0.00    -0.276 OA
ATOM      5  N   UNL     1      -4.790   1.875  24.606  0.00  0.00    -0.315 N 
ATOM     21  C   UNL     1      -5.389   2.746  25.517  0.00  0.00    +0.214 C 
ATOM     32  H   UNL     1      -4.125   2.259  23.939  0.00  0.00    +0.149 HD
BRANCH  21  24
ATOM     24  C   UNL     1      -4.984   4.189  25.278  0.00  0.00    +0.107 C 
BRANCH  24  27
ATOM     27  C   UNL     1      -3.673   4.305  24.507  0.00  0.00    +0.129 C 
BRANCH  27  30
ATOM      4  O   UNL     1      -1.428   5.036  25.099  0.00  0.00    -0.251 OA
ATOM     30  C   UNL     1      -2.497   4.543  25.427  0.00  0.00    +0.305 C 
BRANCH  30   3
ATOM      3  O   UNL     1      -2.771   4.139  26.696  0.00  0.00    -0.481 OA
ATOM     34  H   UNL     1      -3.642   4.469  27.004  0.00  0.00    +0.295 HD
ENDBRANCH  30   3
ENDBRANCH  27  30
ENDBRANCH  24  27
ENDBRANCH  21  24
ENDBRANCH  15   5
ENDBRANCH   9  15
BRANCH  11  16
ATOM     16  C   UNL     1      -0.402  -0.322  23.340  0.00  0.00    +0.082 C 
BRANCH  16  20
ATOM      6  N   UNL     1       1.939  -1.115  23.728  0.00  0.00    -0.342 N 
ATOM      7  N   UNL     1       1.737   0.904  22.822  0.00  0.00    -0.232 NA
ATOM     20  C   UNL     1       1.088  -0.143  23.281  0.00  0.00    +0.109 A 
ATOM     22  C   UNL     1       3.222  -0.666  23.545  0.00  0.00    +0.070 A 
ATOM     23  C   UNL     1       3.068   0.597  22.979  0.00  0.00    +0.089 A 
ATOM     25  C   UNL     1       4.465  -1.237  23.818  0.00  0.00    +0.073 A 
ATOM     26  C   UNL     1       4.212   1.348  22.660  0.00  0.00    +0.033 A 
ATOM     28  C   UNL     1       5.592  -0.476  23.494  0.00  0.00    +0.122 A 
ATOM     29  C   UNL     1       5.471   0.794  22.925  0.00  0.00    +0.048 A 
ATOM     33  H   UNL     1       1.672  -2.007  24.122  0.00  0.00    +0.167 HD
BRANCH  28   2
ATOM      2  O   UNL     1       6.834  -0.985  23.740  0.00  0.00    -0.495 OA
ATOM     31  C   UNL     1       7.887  -0.562  22.878  0.00  0.00    +0.277 C 
ENDBRANCH  28   2
ENDBRANCH  16  20
ENDBRANCH  11  16
TORSDOF 10
ENDMDL
MODEL 7
REMARK VINA RESULT:      -0.9      1.622      6.382
REMARK  Name = 71693195
REMARK  14 active torsions:
REMARK  status: ('A' for Active; 'I' for Inactive)
REMARK    1  A    between atoms: O_2  and  C_28
REMARK    2  A    between atoms: O_2  and  C_31
REMARK    3  A    between atoms: O_3  and  C_30
REMARK    4  A    between atoms: N_5  and  C_15
REMARK    5  A    between atoms: C_8  and  C_12
REMARK    6  A    between atoms: C_9  and  C_15
REMARK    7  A    between atoms: C_11  and  C_16
REMARK    8  A    between atoms: C_12  and  C_17
REMARK    9  A    between atoms: C_12  and  C_18
REMARK   10  A    between atoms: C_13  and  C_19
REMARK   11  A    between atoms: C_16  and  C_20
REMARK   12  A    between atoms: C_21  and  C_24
REMARK   13  A    between atoms: C_24  and  C_27
REMARK   14  A    between atoms: C_27  and  C_30
REMARK                            x       y       z     vdW  Elec       q    Type
REMARK                         _______ _______ _______ _____ _____    ______ ____
ROOT
ATOM      8  C   UNL     1      -2.228   3.076  24.863  0.00  0.00    +0.000 C 
ATOM      9  C   UNL     1      -3.467   3.399  23.991  0.00  0.00    +0.032 C 
ATOM     10  C   UNL     1      -0.962   3.016  23.996  0.00  0.00    +0.012 C 
ATOM     11  C   UNL     1      -1.066   1.955  22.885  0.00  0.00    +0.022 C 
ATOM     13  C   UNL     1      -2.387   2.038  22.149  0.00  0.00    -0.073 C 
ATOM     14  C   UNL     1      -3.445   2.700  22.652  0.00  0.00    -0.022 C 
ATOM     19  C   UNL     1      -2.452   1.383  20.797  0.00  0.00    +0.039 C 
ENDROOT
BRANCH   8  12
ATOM     12  C   UNL     1      -2.040   4.102  25.985  0.00  0.00    -0.013 C 
ATOM     17  C   UNL     1      -1.686   5.467  25.403  0.00  0.00    +0.007 C 
ATOM     18  C   UNL     1      -3.297   4.190  26.843  0.00  0.00    +0.007 C 
ENDBRANCH   8  12
BRANCH   9  15
ATOM     15  C   UNL     1      -4.767   3.054  24.725  0.00  0.00    +0.112 C 
BRANCH  15   5
ATOM      1  O   UNL     1      -3.362   0.691  25.628  0.00  0.00    -0.276 OA
ATOM      5  N   UNL     1      -5.132   1.691  24.499  0.00  0.00    -0.315 N 
ATOM     21  C   UNL     1      -4.395   0.603  24.971  0.00  0.00    +0.214 C 
ATOM     32  H   UNL     1      -6.006   1.505  24.013  0.00  0.00    +0.149 HD
BRANCH  21  24
ATOM     24  C   UNL     1      -5.020  -0.723  24.577  0.00  0.00    +0.107 C 
BRANCH  24  27
ATOM     27  C   UNL     1      -4.060  -1.606  23.786  0.00  0.00    +0.129 C 
BRANCH  27  30
ATOM      4  O   UNL     1      -3.433  -2.873  25.767  0.00  0.00    -0.251 OA
ATOM     30  C   UNL     1      -3.129  -2.379  24.691  0.00  0.00    +0.305 C 
BRANCH  30   3
ATOM      3  O   UNL     1      -1.881  -2.469  24.159  0.00  0.00    -0.481 OA
ATOM     34  H   UNL     1      -1.422  -3.289  24.440  0.00  0.00    +0.295 HD
ENDBRANCH  30   3
ENDBRANCH  27  30
ENDBRANCH  24  27
ENDBRANCH  21  24
ENDBRANCH  15   5
ENDBRANCH   9  15
BRANCH  11  16
ATOM     16  C   UNL     1      -0.838   0.545  23.445  0.00  0.00    +0.082 C 
BRANCH  16  20
ATOM      6  N   UNL     1       1.580   1.127  23.181  0.00  0.00    -0.342 N 
ATOM      7  N   UNL     1       1.145  -0.974  23.760  0.00  0.00    -0.232 NA
ATOM     20  C   UNL     1       0.622   0.197  23.473  0.00  0.00    +0.109 A 
ATOM     22  C   UNL     1       2.804   0.516  23.289  0.00  0.00    +0.070 A 
ATOM     23  C   UNL     1       2.505  -0.795  23.651  0.00  0.00    +0.089 A 
ATOM     25  C   UNL     1       4.106   0.982  23.106  0.00  0.00    +0.073 A 
ATOM     26  C   UNL     1       3.555  -1.708  23.846  0.00  0.00    +0.033 A 
ATOM     28  C   UNL     1       5.138   0.060  23.305  0.00  0.00    +0.122 A 
ATOM     29  C   UNL     1       4.871  -1.262  23.668  0.00  0.00    +0.048 A 
ATOM     33  H   UNL     1       1.419   2.093  22.932  0.00  0.00    +0.167 HD
BRANCH  28   2
ATOM      2  O   UNL     1       6.432   0.461  23.139  0.00  0.00    -0.495 OA
ATOM     31  C   UNL     1       7.391  -0.553  22.851  0.00  0.00    +0.277 C 
ENDBRANCH  28   2
ENDBRANCH  16  20
ENDBRANCH  11  16
TORSDOF 10
ENDMDL
MODEL 8
REMARK VINA RESULT:      -0.3      1.595      2.595
REMARK  Name = 71693195
REMARK  14 active torsions:
REMARK  status: ('A' for Active; 'I' for Inactive)
REMARK    1  A    between atoms: O_2  and  C_28
REMARK    2  A    between atoms: O_2  and  C_31
REMARK    3  A    between atoms: O_3  and  C_30
REMARK    4  A    between atoms: N_5  and  C_15
REMARK    5  A    between atoms: C_8  and  C_12
REMARK    6  A    between atoms: C_9  and  C_15
REMARK    7  A    between atoms: C_11  and  C_16
REMARK    8  A    between atoms: C_12  and  C_17
REMARK    9  A    between atoms: C_12  and  C_18
REMARK   10  A    between atoms: C_13  and  C_19
REMARK   11  A    between atoms: C_16  and  C_20
REMARK   12  A    between atoms: C_21  and  C_24
REMARK   13  A    between atoms: C_24  and  C_27
REMARK   14  A    between atoms: C_27  and  C_30
REMARK                            x       y       z     vdW  Elec       q    Type
REMARK                         _______ _______ _______ _____ _____    ______ ____
ROOT
ATOM      8  C   UNL     1      -2.256   4.229  24.919  0.00  0.00    +0.000 C 
ATOM      9  C   UNL     1      -2.594   3.794  26.368  0.00  0.00    +0.032 C 
ATOM     10  C   UNL     1      -3.481   4.873  24.253  0.00  0.00    +0.012 C 
ATOM     11  C   UNL     1      -4.688   3.918  24.206  0.00  0.00    +0.022 C 
ATOM     13  C   UNL     1      -4.922   3.240  25.540  0.00  0.00    -0.073 C 
ATOM     14  C   UNL     1      -3.980   3.206  26.500  0.00  0.00    -0.022 C 
ATOM     19  C   UNL     1      -6.282   2.640  25.766  0.00  0.00    +0.039 C 
ENDROOT
BRANCH   8  12
ATOM     12  C   UNL     1      -1.073   5.201  24.880  0.00  0.00    -0.013 C 
ATOM     17  C   UNL     1      -0.186   4.911  23.673  0.00  0.00    +0.007 C 
ATOM     18  C   UNL     1      -1.569   6.643  24.852  0.00  0.00    +0.007 C 
ENDBRANCH   8  12
BRANCH   9  15
ATOM     15  C   UNL     1      -1.563   2.793  26.900  0.00  0.00    +0.112 C 
BRANCH  15   5
ATOM      1  O   UNL     1       1.166   2.630  25.951  0.00  0.00    -0.276 OA
ATOM      5  N   UNL     1      -1.062   1.970  25.844  0.00  0.00    -0.315 N 
ATOM     21  C   UNL     1       0.276   1.951  25.446  0.00  0.00    +0.214 C 
ATOM     32  H   UNL     1      -1.706   1.324  25.395  0.00  0.00    +0.149 HD
BRANCH  21  24
ATOM     24  C   UNL     1       0.517   0.984  24.301  0.00  0.00    +0.107 C 
BRANCH  24  27
ATOM     27  C   UNL     1       1.793   1.305  23.528  0.00  0.00    +0.129 C 
BRANCH  27  30
ATOM      4  O   UNL     1       1.676  -0.286  21.689  0.00  0.00    -0.251 OA
ATOM     30  C   UNL     1       2.248   0.137  22.682  0.00  0.00    +0.305 C 
BRANCH  30   3
ATOM      3  O   UNL     1       3.400  -0.403  23.163  0.00  0.00    -0.481 OA
ATOM     34  H   UNL     1       3.299  -1.358  23.364  0.00  0.00    +0.295 HD
ENDBRANCH  30   3
ENDBRANCH  27  30
ENDBRANCH  24  27
ENDBRANCH  21  24
ENDBRANCH  15   5
ENDBRANCH   9  15
BRANCH  11  16
ATOM     16  C   UNL     1      -4.531   2.883  23.085  0.00  0.00    +0.082 C 
BRANCH  16  20
ATOM      6  N   UNL     1      -2.780   1.131  23.438  0.00  0.00    -0.342 N 
ATOM      7  N   UNL     1      -4.782   0.689  24.297  0.00  0.00    -0.232 NA
ATOM     20  C   UNL     1      -4.065   1.560  23.623  0.00  0.00    +0.109 A 
ATOM     22  C   UNL     1      -2.660  -0.098  24.035  0.00  0.00    +0.070 A 
ATOM     23  C   UNL     1      -3.923  -0.352  24.563  0.00  0.00    +0.089 A 
ATOM     25  C   UNL     1      -1.588  -0.983  24.154  0.00  0.00    +0.073 A 
ATOM     26  C   UNL     1      -4.148  -1.554  25.254  0.00  0.00    +0.033 A 
ATOM     28  C   UNL     1      -1.829  -2.175  24.844  0.00  0.00    +0.122 A 
ATOM     29  C   UNL     1      -3.085  -2.458  25.386  0.00  0.00    +0.048 A 
ATOM     33  H   UNL     1      -2.048   1.629  22.952  0.00  0.00    +0.167 HD
BRANCH  28   2
ATOM      2  O   UNL     1      -0.817  -3.078  24.991  0.00  0.00    -0.495 OA
ATOM     31  C   UNL     1       0.422  -2.584  25.493  0.00  0.00    +0.277 C 
ENDBRANCH  28   2
ENDBRANCH  16  20
ENDBRANCH  11  16
TORSDOF 10
ENDMDL
MODEL 9
REMARK VINA RESULT:       0.5      2.623      7.149
REMARK  Name = 71693195
REMARK  14 active torsions:
REMARK  status: ('A' for Active; 'I' for Inactive)
REMARK    1  A    between atoms: O_2  and  C_28
REMARK    2  A    between atoms: O_2  and  C_31
REMARK    3  A    between atoms: O_3  and  C_30
REMARK    4  A    between atoms: N_5  and  C_15
REMARK    5  A    between atoms: C_8  and  C_12
REMARK    6  A    between atoms: C_9  and  C_15
REMARK    7  A    between atoms: C_11  and  C_16
REMARK    8  A    between atoms: C_12  and  C_17
REMARK    9  A    between atoms: C_12  and  C_18
REMARK   10  A    between atoms: C_13  and  C_19
REMARK   11  A    between atoms: C_16  and  C_20
REMARK   12  A    between atoms: C_21  and  C_24
REMARK   13  A    between atoms: C_24  and  C_27
REMARK   14  A    between atoms: C_27  and  C_30
REMARK                            x       y       z     vdW  Elec       q    Type
REMARK                         _______ _______ _______ _____ _____    ______ ____
ROOT
ATOM      8  C   UNL     1      -2.576  -1.117  24.266  0.00  0.00    +0.000 C 
ATOM      9  C   UNL     1      -3.425  -0.051  25.003  0.00  0.00    +0.032 C 
ATOM     10  C   UNL     1      -1.199  -1.260  24.930  0.00  0.00    +0.012 C 
ATOM     11  C   UNL     1      -0.417   0.067  24.941  0.00  0.00    +0.022 C 
ATOM     13  C   UNL     1      -1.276   1.224  25.406  0.00  0.00    -0.073 C 
ATOM     14  C   UNL     1      -2.618   1.149  25.440  0.00  0.00    -0.022 C 
ATOM     19  C   UNL     1      -0.555   2.457  25.876  0.00  0.00    +0.039 C 
ENDROOT
BRANCH   8  12
ATOM     12  C   UNL     1      -3.278  -2.478  24.230  0.00  0.00    -0.013 C 
ATOM     17  C   UNL     1      -3.351  -3.075  25.632  0.00  0.00    +0.007 C 
ATOM     18  C   UNL     1      -4.672  -2.343  23.626  0.00  0.00    +0.007 C 
ENDBRANCH   8  12
BRANCH   9  15
ATOM     15  C   UNL     1      -4.603   0.413  24.140  0.00  0.00    +0.112 C 
BRANCH  15   5
ATOM      1  O   UNL     1      -2.956   2.052  22.416  0.00  0.00    -0.276 OA
ATOM      5  N   UNL     1      -4.620   1.837  24.026  0.00  0.00    -0.315 N 
ATOM     21  C   UNL     1      -3.788   2.555  23.166  0.00  0.00    +0.214 C 
ATOM     32  H   UNL     1      -5.314   2.351  24.563  0.00  0.00    +0.149 HD
BRANCH  21  24
ATOM     24  C   UNL     1      -4.025   4.052  23.259  0.00  0.00    +0.107 C 
BRANCH  24  27
ATOM     27  C   UNL     1      -3.736   4.600  24.653  0.00  0.00    +0.129 C 
BRANCH  27  30
ATOM      4  O   UNL     1      -5.944   4.182  25.590  0.00  0.00    -0.251 OA
ATOM     30  C   UNL     1      -4.728   4.093  25.675  0.00  0.00    +0.305 C 
BRANCH  30   3
ATOM      3  O   UNL     1      -4.098   3.506  26.727  0.00  0.00    -0.481 OA
ATOM     34  H   UNL     1      -4.586   3.642  27.567  0.00  0.00    +0.295 HD
ENDBRANCH  30   3
ENDBRANCH  27  30
ENDBRANCH  24  27
ENDBRANCH  21  24
ENDBRANCH  15   5
ENDBRANCH   9  15
BRANCH  11  16
ATOM     16  C   UNL     1       0.196   0.357  23.565  0.00  0.00    +0.082 C 
BRANCH  16  20
ATOM      6  N   UNL     1       2.600   0.980  23.267  0.00  0.00    -0.342 N 
ATOM      7  N   UNL     1       2.204  -1.152  23.750  0.00  0.00    -0.232 NA
ATOM     20  C   UNL     1       1.661   0.025  23.536  0.00  0.00    +0.109 A 
ATOM     22  C   UNL     1       3.833   0.380  23.311  0.00  0.00    +0.070 A 
ATOM     23  C   UNL     1       3.558  -0.951  23.614  0.00  0.00    +0.089 A 
ATOM     25  C   UNL     1       5.124   0.871  23.117  0.00  0.00    +0.073 A 
ATOM     26  C   UNL     1       4.623  -1.860  23.735  0.00  0.00    +0.033 A 
ATOM     28  C   UNL     1       6.171  -0.047  23.242  0.00  0.00    +0.122 A 
ATOM     29  C   UNL     1       5.928  -1.389  23.544  0.00  0.00    +0.048 A 
ATOM     33  H   UNL     1       2.422   1.956  23.072  0.00  0.00    +0.167 HD
BRANCH  28   2
ATOM      2  O   UNL     1       7.456   0.377  23.062  0.00  0.00    -0.495 OA
ATOM     31  C   UNL     1       8.433  -0.621  22.780  0.00  0.00    +0.277 C 
ENDBRANCH  28   2
ENDBRANCH  16  20
ENDBRANCH  11  16
TORSDOF 10
ENDMDL
