MODEL 1
REMARK VINA RESULT:      -4.3      0.000      0.000
REMARK  Name = 45784285
REMARK  5 active torsions:
REMARK  status: ('A' for Active; 'I' for Inactive)
REMARK    1  A    between atoms: O_1  and  C_21
REMARK    2  A    between atoms: O_1  and  C_23
REMARK    3  A    between atoms: N_2  and  C_6
REMARK    4  A    between atoms: C_5  and  C_6
REMARK    5  A    between atoms: C_7  and  C_16
REMARK                            x       y       z     vdW  Elec       q    Type
REMARK                         _______ _______ _______ _____ _____    ______ ____
ROOT
ATOM      2  N   UNL     1      -3.909   2.003  25.327  0.00  0.00    -0.301 NA
ATOM      7  C   UNL     1      -1.595   2.193  25.000  0.00  0.00    +0.070 C 
ATOM      8  C   UNL     1      -2.701   1.175  25.306  0.00  0.00    +0.095 C 
ATOM      9  C   UNL     1      -3.770   2.902  24.181  0.00  0.00    +0.085 C 
ATOM     12  C   UNL     1      -2.315   3.342  24.271  0.00  0.00    +0.028 C 
ENDROOT
BRANCH   7  16
ATOM      3  N   UNL     1       0.854   1.974  24.498  0.00  0.00    -0.341 N 
ATOM      4  N   UNL     1      -0.498   0.680  23.299  0.00  0.00    -0.232 NA
ATOM     16  C   UNL     1      -0.433   1.591  24.243  0.00  0.00    +0.113 A 
ATOM     17  C   UNL     1       1.675   1.260  23.663  0.00  0.00    +0.070 A 
ATOM     18  C   UNL     1       0.808   0.461  22.925  0.00  0.00    +0.089 A 
ATOM     19  C   UNL     1       3.061   1.247  23.496  0.00  0.00    +0.073 A 
ATOM     20  C   UNL     1       1.336  -0.411  21.958  0.00  0.00    +0.033 A 
ATOM     21  C   UNL     1       3.569   0.374  22.528  0.00  0.00    +0.122 A 
ATOM     22  C   UNL     1       2.724  -0.441  21.771  0.00  0.00    +0.048 A 
ATOM     24  H   UNL     1       1.152   2.659  25.180  0.00  0.00    +0.167 HD
BRANCH  21   1
ATOM      1  O   UNL     1       4.916   0.318  22.321  0.00  0.00    -0.495 OA
ATOM     23  C   UNL     1       5.739   0.127  23.469  0.00  0.00    +0.277 C 
ENDBRANCH  21   1
ENDBRANCH   7  16
BRANCH   2   6
ATOM      6  C   UNL     1      -5.128   1.209  25.263  0.00  0.00    +0.088 C 
BRANCH   6   5
ATOM      5  C   UNL     1      -4.803  -0.279  25.144  0.00  0.00    +0.003 C 
ATOM     10  C   UNL     1      -3.667  -0.664  26.103  0.00  0.00    +0.005 C 
ATOM     11  C   UNL     1      -4.443  -0.641  23.697  0.00  0.00    +0.005 C 
ATOM     13  C   UNL     1      -3.288  -2.136  25.964  0.00  0.00    +0.000 C 
ATOM     14  C   UNL     1      -4.061  -2.113  23.562  0.00  0.00    +0.000 C 
ATOM     15  C   UNL     1      -2.938  -2.494  24.523  0.00  0.00    +0.000 C 
ENDBRANCH   6   5
ENDBRANCH   2   6
TORSDOF 4
ENDMDL
MODEL 2
REMARK VINA RESULT:      -3.7      3.150      7.732
REMARK  Name = 45784285
REMARK  5 active torsions:
REMARK  status: ('A' for Active; 'I' for Inactive)
REMARK    1  A    between atoms: O_1  and  C_21
REMARK    2  A    between atoms: O_1  and  C_23
REMARK    3  A    between atoms: N_2  and  C_6
REMARK    4  A    between atoms: C_5  and  C_6
REMARK    5  A    between atoms: C_7  and  C_16
REMARK                            x       y       z     vdW  Elec       q    Type
REMARK                         _______ _______ _______ _____ _____    ______ ____
ROOT
ATOM      2  N   UNL     1       0.981  -0.356  23.568  0.00  0.00    -0.301 NA
ATOM      7  C   UNL     1      -0.816   0.009  25.029  0.00  0.00    +0.070 C 
ATOM      8  C   UNL     1       0.125   0.729  24.054  0.00  0.00    +0.095 C 
ATOM      9  C   UNL     1       0.070  -1.474  23.321  0.00  0.00    +0.085 C 
ATOM     12  C   UNL     1      -0.832  -1.453  24.548  0.00  0.00    +0.028 C 
ENDROOT
BRANCH   7  16
ATOM      3  N   UNL     1      -2.309   1.986  25.428  0.00  0.00    -0.341 N 
ATOM      4  N   UNL     1      -3.341   0.078  24.940  0.00  0.00    -0.232 NA
ATOM     16  C   UNL     1      -2.177   0.660  25.124  0.00  0.00    +0.113 A 
ATOM     17  C   UNL     1      -3.649   2.280  25.440  0.00  0.00    +0.070 A 
ATOM     18  C   UNL     1      -4.271   1.074  25.134  0.00  0.00    +0.089 A 
ATOM     19  C   UNL     1      -4.347   3.463  25.686  0.00  0.00    +0.073 A 
ATOM     20  C   UNL     1      -5.674   1.025  25.064  0.00  0.00    +0.033 A 
ATOM     21  C   UNL     1      -5.743   3.396  25.613  0.00  0.00    +0.122 A 
ATOM     22  C   UNL     1      -6.396   2.199  25.308  0.00  0.00    +0.048 A 
ATOM     24  H   UNL     1      -1.557   2.638  25.611  0.00  0.00    +0.167 HD
BRANCH  21   1
ATOM      1  O   UNL     1      -6.478   4.521  25.844  0.00  0.00    -0.495 OA
ATOM     23  C   UNL     1      -6.155   5.675  25.072  0.00  0.00    +0.277 C 
ENDBRANCH  21   1
ENDBRANCH   7  16
BRANCH   2   6
ATOM      6  C   UNL     1       1.732   0.020  22.379  0.00  0.00    +0.088 C 
BRANCH   6   5
ATOM      5  C   UNL     1       3.227  -0.217  22.582  0.00  0.00    +0.003 C 
ATOM     10  C   UNL     1       3.465  -1.329  23.613  0.00  0.00    +0.005 C 
ATOM     11  C   UNL     1       3.929   1.080  23.004  0.00  0.00    +0.005 C 
ATOM     13  C   UNL     1       4.953  -1.547  23.873  0.00  0.00    +0.000 C 
ATOM     14  C   UNL     1       5.416   0.858  23.266  0.00  0.00    +0.000 C 
ATOM     15  C   UNL     1       5.649  -0.254  24.286  0.00  0.00    +0.000 C 
ENDBRANCH   6   5
ENDBRANCH   2   6
TORSDOF 4
ENDMDL
MODEL 3
REMARK VINA RESULT:      -2.8      1.470      3.366
REMARK  Name = 45784285
REMARK  5 active torsions:
REMARK  status: ('A' for Active; 'I' for Inactive)
REMARK    1  A    between atoms: O_1  and  C_21
REMARK    2  A    between atoms: O_1  and  C_23
REMARK    3  A    between atoms: N_2  and  C_6
REMARK    4  A    between atoms: C_5  and  C_6
REMARK    5  A    between atoms: C_7  and  C_16
REMARK                            x       y       z     vdW  Elec       q    Type
REMARK                         _______ _______ _______ _____ _____    ______ ____
ROOT
ATOM      2  N   UNL     1      -3.875  -0.885  24.768  0.00  0.00    -0.301 NA
ATOM      7  C   UNL     1      -1.627  -1.391  24.332  0.00  0.00    +0.070 C 
ATOM      8  C   UNL     1      -2.829  -0.613  23.779  0.00  0.00    +0.095 C 
ATOM      9  C   UNL     1      -3.210  -0.762  26.065  0.00  0.00    +0.085 C 
ATOM     12  C   UNL     1      -1.897  -1.501  25.843  0.00  0.00    +0.028 C 
ENDROOT
BRANCH   7  16
ATOM      3  N   UNL     1       0.845  -1.507  23.914  0.00  0.00    -0.341 N 
ATOM      4  N   UNL     1      -0.084   0.499  23.674  0.00  0.00    -0.232 NA
ATOM     16  C   UNL     1      -0.302  -0.763  23.968  0.00  0.00    +0.113 A 
ATOM     17  C   UNL     1       1.871  -0.668  23.561  0.00  0.00    +0.070 A 
ATOM     18  C   UNL     1       1.266   0.577  23.417  0.00  0.00    +0.089 A 
ATOM     19  C   UNL     1       3.234  -0.886  23.361  0.00  0.00    +0.073 A 
ATOM     20  C   UNL     1       2.053   1.683  23.053  0.00  0.00    +0.033 A 
ATOM     21  C   UNL     1       4.003   0.226  22.999  0.00  0.00    +0.122 A 
ATOM     22  C   UNL     1       3.425   1.488  22.848  0.00  0.00    +0.048 A 
ATOM     24  H   UNL     1       0.926  -2.498  24.100  0.00  0.00    +0.167 HD
BRANCH  21   1
ATOM      1  O   UNL     1       5.342   0.072  22.791  0.00  0.00    -0.495 OA
ATOM     23  C   UNL     1       6.129  -0.327  23.911  0.00  0.00    +0.277 C 
ENDBRANCH  21   1
ENDBRANCH   7  16
BRANCH   2   6
ATOM      6  C   UNL     1      -5.009   0.019  24.639  0.00  0.00    +0.088 C 
BRANCH   6   5
ATOM      5  C   UNL     1      -4.635   1.430  25.089  0.00  0.00    +0.003 C 
ATOM     10  C   UNL     1      -5.893   2.252  25.401  0.00  0.00    +0.005 C 
ATOM     11  C   UNL     1      -3.776   2.127  24.025  0.00  0.00    +0.005 C 
ATOM     13  C   UNL     1      -5.547   3.683  25.801  0.00  0.00    +0.000 C 
ATOM     14  C   UNL     1      -3.433   3.560  24.428  0.00  0.00    +0.000 C 
ATOM     15  C   UNL     1      -4.686   4.371  24.745  0.00  0.00    +0.000 C 
ENDBRANCH   6   5
ENDBRANCH   2   6
TORSDOF 4
ENDMDL
MODEL 4
REMARK VINA RESULT:      -2.8      1.318      3.457
REMARK  Name = 45784285
REMARK  5 active torsions:
REMARK  status: ('A' for Active; 'I' for Inactive)
REMARK    1  A    between atoms: O_1  and  C_21
REMARK    2  A    between atoms: O_1  and  C_23
REMARK    3  A    between atoms: N_2  and  C_6
REMARK    4  A    between atoms: C_5  and  C_6
REMARK    5  A    between atoms: C_7  and  C_16
REMARK                            x       y       z     vdW  Elec       q    Type
REMARK                         _______ _______ _______ _____ _____    ______ ____
ROOT
ATOM      2  N   UNL     1      -4.764   0.239  24.800  0.00  0.00    -0.301 NA
ATOM      7  C   UNL     1      -2.658  -0.515  24.096  0.00  0.00    +0.070 C 
ATOM      8  C   UNL     1      -3.695   0.591  23.862  0.00  0.00    +0.095 C 
ATOM      9  C   UNL     1      -4.074  -0.137  26.034  0.00  0.00    +0.085 C 
ATOM     12  C   UNL     1      -2.927  -1.004  25.531  0.00  0.00    +0.028 C 
ENDROOT
BRANCH   7  16
ATOM      3  N   UNL     1      -0.283  -0.929  23.398  0.00  0.00    -0.341 N 
ATOM      4  N   UNL     1      -0.767   1.159  23.992  0.00  0.00    -0.232 NA
ATOM     16  C   UNL     1      -1.241  -0.058  23.838  0.00  0.00    +0.113 A 
ATOM     17  C   UNL     1       0.887  -0.227  23.258  0.00  0.00    +0.070 A 
ATOM     18  C   UNL     1       0.559   1.072  23.634  0.00  0.00    +0.089 A 
ATOM     19  C   UNL     1       2.165  -0.607  22.846  0.00  0.00    +0.073 A 
ATOM     20  C   UNL     1       1.552   2.066  23.605  0.00  0.00    +0.033 A 
ATOM     21  C   UNL     1       3.142   0.395  22.823  0.00  0.00    +0.122 A 
ATOM     22  C   UNL     1       2.843   1.708  23.196  0.00  0.00    +0.048 A 
ATOM     24  H   UNL     1      -0.410  -1.914  23.208  0.00  0.00    +0.167 HD
BRANCH  21   1
ATOM      1  O   UNL     1       4.409   0.082  22.429  0.00  0.00    -0.495 OA
ATOM     23  C   UNL     1       5.413   0.057  23.442  0.00  0.00    +0.277 C 
ENDBRANCH  21   1
ENDBRANCH   7  16
BRANCH   2   6
ATOM      6  C   UNL     1      -5.707   1.329  25.003  0.00  0.00    +0.088 C 
BRANCH   6   5
ATOM      5  C   UNL     1      -4.990   2.678  24.989  0.00  0.00    +0.003 C 
ATOM     10  C   UNL     1      -4.137   2.826  23.722  0.00  0.00    +0.005 C 
ATOM     11  C   UNL     1      -4.131   2.849  26.249  0.00  0.00    +0.005 C 
ATOM     13  C   UNL     1      -3.368   4.144  23.710  0.00  0.00    +0.000 C 
ATOM     14  C   UNL     1      -3.362   4.167  26.233  0.00  0.00    +0.000 C 
ATOM     15  C   UNL     1      -2.522   4.314  24.967  0.00  0.00    +0.000 C 
ENDBRANCH   6   5
ENDBRANCH   2   6
TORSDOF 4
ENDMDL
MODEL 5
REMARK VINA RESULT:      -1.9      3.346      5.571
REMARK  Name = 45784285
REMARK  5 active torsions:
REMARK  status: ('A' for Active; 'I' for Inactive)
REMARK    1  A    between atoms: O_1  and  C_21
REMARK    2  A    between atoms: O_1  and  C_23
REMARK    3  A    between atoms: N_2  and  C_6
REMARK    4  A    between atoms: C_5  and  C_6
REMARK    5  A    between atoms: C_7  and  C_16
REMARK                            x       y       z     vdW  Elec       q    Type
REMARK                         _______ _______ _______ _____ _____    ______ ____
ROOT
ATOM      2  N   UNL     1      -0.745   4.367  25.325  0.00  0.00    -0.301 NA
ATOM      7  C   UNL     1      -0.252   2.077  25.420  0.00  0.00    +0.070 C 
ATOM      8  C   UNL     1      -1.320   3.109  25.804  0.00  0.00    +0.095 C 
ATOM      9  C   UNL     1      -0.193   4.053  24.007  0.00  0.00    +0.085 C 
ATOM     12  C   UNL     1       0.503   2.718  24.241  0.00  0.00    +0.028 C 
ENDROOT
BRANCH   7  16
ATOM      3  N   UNL     1      -2.174   0.525  24.977  0.00  0.00    -0.341 N 
ATOM      4  N   UNL     1      -0.159  -0.415  25.009  0.00  0.00    -0.232 NA
ATOM     16  C   UNL     1      -0.828   0.709  25.135  0.00  0.00    +0.113 A 
ATOM     17  C   UNL     1      -2.387  -0.807  24.732  0.00  0.00    +0.070 A 
ATOM     18  C   UNL     1      -1.116  -1.372  24.757  0.00  0.00    +0.089 A 
ATOM     19  C   UNL     1      -3.549  -1.543  24.497  0.00  0.00    +0.073 A 
ATOM     20  C   UNL     1      -0.975  -2.753  24.538  0.00  0.00    +0.033 A 
ATOM     21  C   UNL     1      -3.391  -2.917  24.282  0.00  0.00    +0.122 A 
ATOM     22  C   UNL     1      -2.127  -3.513  24.302  0.00  0.00    +0.048 A 
ATOM     24  H   UNL     1      -2.887   1.241  25.029  0.00  0.00    +0.167 HD
BRANCH  21   1
ATOM      1  O   UNL     1      -4.491  -3.687  24.048  0.00  0.00    -0.495 OA
ATOM     23  C   UNL     1      -5.470  -3.161  23.154  0.00  0.00    +0.277 C 
ENDBRANCH  21   1
ENDBRANCH   7  16
BRANCH   2   6
ATOM      6  C   UNL     1      -1.725   5.442  25.273  0.00  0.00    +0.088 C 
BRANCH   6   5
ATOM      5  C   UNL     1      -3.123   4.891  25.002  0.00  0.00    +0.003 C 
ATOM     10  C   UNL     1      -3.694   4.219  26.258  0.00  0.00    +0.005 C 
ATOM     11  C   UNL     1      -3.100   3.912  23.820  0.00  0.00    +0.005 C 
ATOM     13  C   UNL     1      -5.070   3.612  25.997  0.00  0.00    +0.000 C 
ATOM     14  C   UNL     1      -4.477   3.306  23.563  0.00  0.00    +0.000 C 
ATOM     15  C   UNL     1      -5.045   2.646  24.817  0.00  0.00    +0.000 C 
ENDBRANCH   6   5
ENDBRANCH   2   6
TORSDOF 4
ENDMDL
MODEL 6
REMARK VINA RESULT:      -1.2      3.247      5.388
REMARK  Name = 45784285
REMARK  5 active torsions:
REMARK  status: ('A' for Active; 'I' for Inactive)
REMARK    1  A    between atoms: O_1  and  C_21
REMARK    2  A    between atoms: O_1  and  C_23
REMARK    3  A    between atoms: N_2  and  C_6
REMARK    4  A    between atoms: C_5  and  C_6
REMARK    5  A    between atoms: C_7  and  C_16
REMARK                            x       y       z     vdW  Elec       q    Type
REMARK                         _______ _______ _______ _____ _____    ______ ____
ROOT
ATOM      2  N   UNL     1      -4.181   4.571  24.838  0.00  0.00    -0.301 NA
ATOM      7  C   UNL     1      -4.708   2.350  24.304  0.00  0.00    +0.070 C 
ATOM      8  C   UNL     1      -3.603   3.405  24.166  0.00  0.00    +0.095 C 
ATOM      9  C   UNL     1      -4.805   4.037  26.049  0.00  0.00    +0.085 C 
ATOM     12  C   UNL     1      -5.511   2.786  25.543  0.00  0.00    +0.028 C 
ENDROOT
BRANCH   7  16
ATOM      3  N   UNL     1      -2.865   0.688  24.679  0.00  0.00    -0.341 N 
ATOM      4  N   UNL     1      -4.842  -0.168  24.130  0.00  0.00    -0.232 NA
ATOM     16  C   UNL     1      -4.171   0.938  24.362  0.00  0.00    +0.113 A 
ATOM     17  C   UNL     1      -2.680  -0.671  24.650  0.00  0.00    +0.070 A 
ATOM     18  C   UNL     1      -3.927  -1.182  24.305  0.00  0.00    +0.089 A 
ATOM     19  C   UNL     1      -1.562  -1.471  24.889  0.00  0.00    +0.073 A 
ATOM     20  C   UNL     1      -4.089  -2.573  24.186  0.00  0.00    +0.033 A 
ATOM     21  C   UNL     1      -1.741  -2.853  24.766  0.00  0.00    +0.122 A 
ATOM     22  C   UNL     1      -2.981  -3.396  24.421  0.00  0.00    +0.048 A 
ATOM     24  H   UNL     1      -2.158   1.378  24.897  0.00  0.00    +0.167 HD
BRANCH  21   1
ATOM      1  O   UNL     1      -0.683  -3.685  24.988  0.00  0.00    -0.495 OA
ATOM     23  C   UNL     1       0.510  -3.092  25.495  0.00  0.00    +0.277 C 
ENDBRANCH  21   1
ENDBRANCH   7  16
BRANCH   2   6
ATOM      6  C   UNL     1      -3.186   5.592  25.132  0.00  0.00    +0.088 C 
BRANCH   6   5
ATOM      5  C   UNL     1      -1.805   4.968  25.321  0.00  0.00    +0.003 C 
ATOM     10  C   UNL     1      -1.162   4.652  23.964  0.00  0.00    +0.005 C 
ATOM     11  C   UNL     1      -1.894   3.707  26.191  0.00  0.00    +0.005 C 
ATOM     13  C   UNL     1       0.197   3.977  24.127  0.00  0.00    +0.000 C 
ATOM     14  C   UNL     1      -0.533   3.033  26.350  0.00  0.00    +0.000 C 
ATOM     15  C   UNL     1       0.106   2.729  24.998  0.00  0.00    +0.000 C 
ENDBRANCH   6   5
ENDBRANCH   2   6
TORSDOF 4
ENDMDL
MODEL 7
REMARK VINA RESULT:      -1.2      1.431      3.548
REMARK  Name = 45784285
REMARK  5 active torsions:
REMARK  status: ('A' for Active; 'I' for Inactive)
REMARK    1  A    between atoms: O_1  and  C_21
REMARK    2  A    between atoms: O_1  and  C_23
REMARK    3  A    between atoms: N_2  and  C_6
REMARK    4  A    between atoms: C_5  and  C_6
REMARK    5  A    between atoms: C_7  and  C_16
REMARK                            x       y       z     vdW  Elec       q    Type
REMARK                         _______ _______ _______ _____ _____    ______ ____
ROOT
ATOM      2  N   UNL     1      -4.628   1.465  24.509  0.00  0.00    -0.301 NA
ATOM      7  C   UNL     1      -2.915   0.186  23.547  0.00  0.00    +0.070 C 
ATOM      8  C   UNL     1      -3.380   1.633  23.762  0.00  0.00    +0.095 C 
ATOM      9  C   UNL     1      -4.339   0.429  25.500  0.00  0.00    +0.085 C 
ATOM     12  C   UNL     1      -3.569  -0.607  24.692  0.00  0.00    +0.028 C 
ENDROOT
BRANCH   7  16
ATOM      3  N   UNL     1      -0.612   1.155  23.300  0.00  0.00    -0.341 N 
ATOM      4  N   UNL     1      -0.713  -1.054  23.534  0.00  0.00    -0.232 NA
ATOM     16  C   UNL     1      -1.411   0.057  23.464  0.00  0.00    +0.113 A 
ATOM     17  C   UNL     1       0.689   0.722  23.262  0.00  0.00    +0.070 A 
ATOM     18  C   UNL     1       0.600  -0.658  23.410  0.00  0.00    +0.089 A 
ATOM     19  C   UNL     1       1.899   1.402  23.115  0.00  0.00    +0.073 A 
ATOM     20  C   UNL     1       1.777  -1.424  23.414  0.00  0.00    +0.033 A 
ATOM     21  C   UNL     1       3.061   0.624  23.120  0.00  0.00    +0.122 A 
ATOM     22  C   UNL     1       3.004  -0.765  23.267  0.00  0.00    +0.048 A 
ATOM     24  H   UNL     1      -0.921   2.115  23.221  0.00  0.00    +0.167 HD
BRANCH  21   1
ATOM      1  O   UNL     1       4.273   1.233  22.980  0.00  0.00    -0.495 OA
ATOM     23  C   UNL     1       5.397   0.581  23.568  0.00  0.00    +0.277 C 
ENDBRANCH  21   1
ENDBRANCH   7  16
BRANCH   2   6
ATOM      6  C   UNL     1      -5.080   2.706  25.121  0.00  0.00    +0.088 C 
BRANCH   6   5
ATOM      5  C   UNL     1      -3.895   3.605  25.469  0.00  0.00    +0.003 C 
ATOM     10  C   UNL     1      -3.551   4.528  24.292  0.00  0.00    +0.005 C 
ATOM     11  C   UNL     1      -2.678   2.763  25.877  0.00  0.00    +0.005 C 
ATOM     13  C   UNL     1      -2.334   5.399  24.595  0.00  0.00    +0.000 C 
ATOM     14  C   UNL     1      -1.463   3.637  26.178  0.00  0.00    +0.000 C 
ATOM     15  C   UNL     1      -1.129   4.560  25.008  0.00  0.00    +0.000 C 
ENDBRANCH   6   5
ENDBRANCH   2   6
TORSDOF 4
ENDMDL
MODEL 8
REMARK VINA RESULT:      -1.0      3.186      7.750
REMARK  Name = 45784285
REMARK  5 active torsions:
REMARK  status: ('A' for Active; 'I' for Inactive)
REMARK    1  A    between atoms: O_1  and  C_21
REMARK    2  A    between atoms: O_1  and  C_23
REMARK    3  A    between atoms: N_2  and  C_6
REMARK    4  A    between atoms: C_5  and  C_6
REMARK    5  A    between atoms: C_7  and  C_16
REMARK                            x       y       z     vdW  Elec       q    Type
REMARK                         _______ _______ _______ _____ _____    ______ ____
ROOT
ATOM      2  N   UNL     1       1.877  -0.370  22.472  0.00  0.00    -0.301 NA
ATOM      7  C   UNL     1       0.024  -0.124  23.888  0.00  0.00    +0.070 C 
ATOM      8  C   UNL     1       1.378   0.505  23.536  0.00  0.00    +0.095 C 
ATOM      9  C   UNL     1       0.719  -0.617  21.613  0.00  0.00    +0.085 C 
ATOM     12  C   UNL     1      -0.397  -0.881  22.615  0.00  0.00    +0.028 C 
ENDROOT
BRANCH   7  16
ATOM      3  N   UNL     1      -2.323   0.615  24.380  0.00  0.00    -0.341 N 
ATOM      4  N   UNL     1      -0.725   2.082  24.865  0.00  0.00    -0.232 NA
ATOM     16  C   UNL     1      -0.983   0.886  24.388  0.00  0.00    +0.113 A 
ATOM     17  C   UNL     1      -2.973   1.712  24.888  0.00  0.00    +0.070 A 
ATOM     18  C   UNL     1      -1.955   2.612  25.182  0.00  0.00    +0.089 A 
ATOM     19  C   UNL     1      -4.325   1.982  25.107  0.00  0.00    +0.073 A 
ATOM     20  C   UNL     1      -2.284   3.864  25.729  0.00  0.00    +0.033 A 
ATOM     21  C   UNL     1      -4.635   3.233  25.651  0.00  0.00    +0.122 A 
ATOM     22  C   UNL     1      -3.634   4.159  25.957  0.00  0.00    +0.048 A 
ATOM     24  H   UNL     1      -2.761  -0.238  24.060  0.00  0.00    +0.167 HD
BRANCH  21   1
ATOM      1  O   UNL     1      -5.939   3.554  25.887  0.00  0.00    -0.495 OA
ATOM     23  C   UNL     1      -6.828   2.475  26.169  0.00  0.00    +0.277 C 
ENDBRANCH  21   1
ENDBRANCH   7  16
BRANCH   2   6
ATOM      6  C   UNL     1       2.991   0.219  21.744  0.00  0.00    +0.088 C 
BRANCH   6   5
ATOM      5  C   UNL     1       4.315  -0.070  22.449  0.00  0.00    +0.003 C 
ATOM     10  C   UNL     1       4.193  -1.309  23.346  0.00  0.00    +0.005 C 
ATOM     11  C   UNL     1       4.775   1.149  23.260  0.00  0.00    +0.005 C 
ATOM     13  C   UNL     1       5.488  -1.588  24.103  0.00  0.00    +0.000 C 
ATOM     14  C   UNL     1       6.071   0.866  24.017  0.00  0.00    +0.000 C 
ATOM     15  C   UNL     1       5.948  -0.372  24.901  0.00  0.00    +0.000 C 
ENDBRANCH   6   5
ENDBRANCH   2   6
TORSDOF 4
ENDMDL
MODEL 9
REMARK VINA RESULT:      -0.4      1.868      3.521
REMARK  Name = 45784285
REMARK  5 active torsions:
REMARK  status: ('A' for Active; 'I' for Inactive)
REMARK    1  A    between atoms: O_1  and  C_21
REMARK    2  A    between atoms: O_1  and  C_23
REMARK    3  A    between atoms: N_2  and  C_6
REMARK    4  A    between atoms: C_5  and  C_6
REMARK    5  A    between atoms: C_7  and  C_16
REMARK                            x       y       z     vdW  Elec       q    Type
REMARK                         _______ _______ _______ _____ _____    ______ ____
ROOT
ATOM      2  N   UNL     1      -1.857   1.601  23.833  0.00  0.00    -0.301 NA
ATOM      7  C   UNL     1      -0.121   0.230  23.055  0.00  0.00    +0.070 C 
ATOM      8  C   UNL     1      -0.483   1.695  23.334  0.00  0.00    +0.095 C 
ATOM      9  C   UNL     1      -1.849   0.458  24.747  0.00  0.00    +0.085 C 
ATOM     12  C   UNL     1      -1.043  -0.583  23.981  0.00  0.00    +0.028 C 
ENDROOT
BRANCH   7  16
ATOM      3  N   UNL     1       2.296   0.897  22.942  0.00  0.00    -0.341 N 
ATOM      4  N   UNL     1       1.897  -1.180  23.626  0.00  0.00    -0.232 NA
ATOM     16  C   UNL     1       1.354  -0.054  23.220  0.00  0.00    +0.113 A 
ATOM     17  C   UNL     1       3.529   0.348  23.186  0.00  0.00    +0.070 A 
ATOM     18  C   UNL     1       3.253  -0.947  23.611  0.00  0.00    +0.089 A 
ATOM     19  C   UNL     1       4.822   0.860  23.073  0.00  0.00    +0.073 A 
ATOM     20  C   UNL     1       4.319  -1.799  23.949  0.00  0.00    +0.033 A 
ATOM     21  C   UNL     1       5.871  -0.001  23.413  0.00  0.00    +0.122 A 
ATOM     22  C   UNL     1       5.626  -1.307  23.843  0.00  0.00    +0.048 A 
ATOM     24  H   UNL     1       2.119   1.838  22.616  0.00  0.00    +0.167 HD
BRANCH  21   1
ATOM      1  O   UNL     1       7.156   0.445  23.323  0.00  0.00    -0.495 OA
ATOM     23  C   UNL     1       8.138  -0.497  22.895  0.00  0.00    +0.277 C 
ENDBRANCH  21   1
ENDBRANCH   7  16
BRANCH   2   6
ATOM      6  C   UNL     1      -2.297   2.827  24.483  0.00  0.00    +0.088 C 
BRANCH   6   5
ATOM      5  C   UNL     1      -3.821   2.889  24.552  0.00  0.00    +0.003 C 
ATOM     10  C   UNL     1      -4.275   3.803  25.699  0.00  0.00    +0.005 C 
ATOM     11  C   UNL     1      -4.415   1.482  24.707  0.00  0.00    +0.005 C 
ATOM     13  C   UNL     1      -5.796   3.840  25.823  0.00  0.00    +0.000 C 
ATOM     14  C   UNL     1      -5.936   1.523  24.833  0.00  0.00    +0.000 C 
ATOM     15  C   UNL     1      -6.383   2.439  25.969  0.00  0.00    +0.000 C 
ENDBRANCH   6   5
ENDBRANCH   2   6
TORSDOF 4
ENDMDL
