MODEL 1
REMARK VINA RESULT:      -2.0      0.000      0.000
REMARK  Name = 45360808
REMARK  10 active torsions:
REMARK  status: ('A' for Active; 'I' for Inactive)
REMARK    1  A    between atoms: O_3  and  C_28
REMARK    2  A    between atoms: N_5  and  C_16
REMARK    3  A    between atoms: N_6  and  C_18
REMARK    4  A    between atoms: N_8  and  C_27
REMARK    5  A    between atoms: C_13  and  C_17
REMARK    6  A    between atoms: C_16  and  C_20
REMARK    7  A    between atoms: C_17  and  C_19
REMARK    8  A    between atoms: C_19  and  C_21
REMARK    9  A    between atoms: C_26  and  C_28
REMARK   10  A    between atoms: C_27  and  C_29
REMARK                            x       y       z     vdW  Elec       q    Type
REMARK                         _______ _______ _______ _____ _____    ______ ____
ROOT
ATOM      1  O   UNL     1      -0.640   2.377  24.438  0.00  0.00    -0.274 OA
ATOM      5  N   UNL     1       0.117  -0.142  23.824  0.00  0.00    -0.286 NA
ATOM      6  N   UNL     1      -3.205  -0.379  25.344  0.00  0.00    -0.296 NA
ATOM      7  N   UNL     1      -2.835   2.073  23.868  0.00  0.00    -0.312 N 
ATOM      9  C   UNL     1      -2.108  -0.863  24.476  0.00  0.00    +0.084 C 
ATOM     10  C   UNL     1      -1.311   0.179  23.637  0.00  0.00    +0.161 C 
ATOM     11  C   UNL     1      -0.983  -1.589  25.237  0.00  0.00    +0.036 C 
ATOM     12  C   UNL     1       0.188  -1.526  24.279  0.00  0.00    +0.087 C 
ATOM     13  C   UNL     1      -4.338   0.249  24.610  0.00  0.00    +0.074 C 
ATOM     14  C   UNL     1      -1.535   1.636  24.035  0.00  0.00    +0.232 C 
ATOM     15  C   UNL     1      -3.926   1.204  23.473  0.00  0.00    +0.123 C 
ATOM     18  C   UNL     1      -3.697  -1.458  26.217  0.00  0.00    +0.105 C 
ATOM     31  H   UNL     1      -3.039   3.049  24.057  0.00  0.00    +0.149 HD
ENDROOT
BRANCH   5  16
ATOM     16  C   UNL     1       0.921   0.085  22.630  0.00  0.00    +0.120 C 
BRANCH  16  20
ATOM     20  C   UNL     1       2.392  -0.068  22.909  0.00  0.00    -0.033 A 
ATOM     22  C   UNL     1       3.264   0.990  22.655  0.00  0.00    +0.006 A 
ATOM     23  C   UNL     1       2.884  -1.270  23.420  0.00  0.00    +0.006 A 
ATOM     24  C   UNL     1       4.628   0.848  22.912  0.00  0.00    +0.015 A 
ATOM     25  C   UNL     1       4.247  -1.412  23.678  0.00  0.00    +0.015 A 
ATOM     26  C   UNL     1       5.120  -0.353  23.424  0.00  0.00    +0.059 A 
BRANCH  26  28
ATOM      4  O   UNL     1       7.452  -0.207  22.913  0.00  0.00    -0.245 OA
ATOM     28  C   UNL     1       6.540  -0.501  23.694  0.00  0.00    +0.337 C 
BRANCH  28   3
ATOM      3  O   UNL     1       6.785  -1.013  24.932  0.00  0.00    -0.477 OA
ATOM     33  H   UNL     1       6.243  -0.574  25.622  0.00  0.00    +0.295 HD
ENDBRANCH  28   3
ENDBRANCH  26  28
ENDBRANCH  16  20
ENDBRANCH   5  16
BRANCH  13  17
ATOM     17  C   UNL     1      -5.234   1.044  25.583  0.00  0.00    +0.029 C 
BRANCH  17  19
ATOM     19  C   UNL     1      -5.834   2.254  24.892  0.00  0.00    +0.097 C 
BRANCH  19  21
ATOM      2  O   UNL     1      -6.094   4.521  25.702  0.00  0.00    -0.276 OA
ATOM      8  N   UNL     1      -4.016   3.497  25.858  0.00  0.00    -0.304 N 
ATOM     21  C   UNL     1      -5.360   3.552  25.521  0.00  0.00    +0.214 C 
ATOM     32  H   UNL     1      -3.491   2.645  25.686  0.00  0.00    +0.150 HD
BRANCH   8  27
ATOM     27  C   UNL     1      -3.329   4.609  26.471  0.00  0.00    +0.193 C 
BRANCH  27  29
ATOM     29  C   UNL     1      -2.201   5.049  25.648  0.00  0.00    -0.087 C 
ATOM     30  C   UNL     1      -1.274   5.408  24.977  0.00  0.00    +0.005 C 
ENDBRANCH  27  29
ENDBRANCH   8  27
ENDBRANCH  19  21
ENDBRANCH  17  19
ENDBRANCH  13  17
TORSDOF 9
ENDMDL
MODEL 2
REMARK VINA RESULT:      -0.2      3.082      7.741
REMARK  Name = 45360808
REMARK  10 active torsions:
REMARK  status: ('A' for Active; 'I' for Inactive)
REMARK    1  A    between atoms: O_3  and  C_28
REMARK    2  A    between atoms: N_5  and  C_16
REMARK    3  A    between atoms: N_6  and  C_18
REMARK    4  A    between atoms: N_8  and  C_27
REMARK    5  A    between atoms: C_13  and  C_17
REMARK    6  A    between atoms: C_16  and  C_20
REMARK    7  A    between atoms: C_17  and  C_19
REMARK    8  A    between atoms: C_19  and  C_21
REMARK    9  A    between atoms: C_26  and  C_28
REMARK   10  A    between atoms: C_27  and  C_29
REMARK                            x       y       z     vdW  Elec       q    Type
REMARK                         _______ _______ _______ _____ _____    ______ ____
ROOT
ATOM      1  O   UNL     1       0.233   2.721  27.100  0.00  0.00    -0.274 OA
ATOM      5  N   UNL     1      -0.313   4.001  24.785  0.00  0.00    -0.286 NA
ATOM      6  N   UNL     1       0.722   0.605  23.894  0.00  0.00    -0.296 NA
ATOM      7  N   UNL     1      -0.644   0.716  26.433  0.00  0.00    -0.312 N 
ATOM      9  C   UNL     1       0.008   1.879  23.652  0.00  0.00    +0.084 C 
ATOM     10  C   UNL     1      -0.692   2.577  24.854  0.00  0.00    +0.161 C 
ATOM     11  C   UNL     1       0.907   3.005  23.106  0.00  0.00    +0.036 C 
ATOM     12  C   UNL     1       0.124   4.263  23.418  0.00  0.00    +0.087 C 
ATOM     13  C   UNL     1      -0.152  -0.515  24.340  0.00  0.00    +0.074 C 
ATOM     14  C   UNL     1      -0.304   2.039  26.228  0.00  0.00    +0.232 C 
ATOM     15  C   UNL     1      -1.203  -0.135  25.401  0.00  0.00    +0.123 C 
ATOM     18  C   UNL     1       1.499   0.206  22.708  0.00  0.00    +0.105 C 
ATOM     31  H   UNL     1      -0.468   0.313  27.349  0.00  0.00    +0.149 HD
ENDROOT
BRANCH   5  16
ATOM     16  C   UNL     1      -1.378   4.904  25.203  0.00  0.00    +0.120 C 
BRANCH  16  20
ATOM     20  C   UNL     1      -2.702   4.197  25.308  0.00  0.00    -0.033 A 
ATOM     22  C   UNL     1      -3.342   4.094  26.542  0.00  0.00    +0.006 A 
ATOM     23  C   UNL     1      -3.289   3.642  24.170  0.00  0.00    +0.006 A 
ATOM     24  C   UNL     1      -4.569   3.438  26.640  0.00  0.00    +0.015 A 
ATOM     25  C   UNL     1      -4.516   2.986  24.267  0.00  0.00    +0.015 A 
ATOM     26  C   UNL     1      -5.157   2.884  25.502  0.00  0.00    +0.059 A 
BRANCH  26  28
ATOM      4  O   UNL     1      -7.146   1.866  24.648  0.00  0.00    -0.245 OA
ATOM     28  C   UNL     1      -6.436   2.202  25.603  0.00  0.00    +0.337 C 
BRANCH  28   3
ATOM      3  O   UNL     1      -6.795   1.955  26.893  0.00  0.00    -0.477 OA
ATOM     33  H   UNL     1      -7.319   2.693  27.273  0.00  0.00    +0.295 HD
ENDBRANCH  28   3
ENDBRANCH  26  28
ENDBRANCH  16  20
ENDBRANCH   5  16
BRANCH  13  17
ATOM     17  C   UNL     1       0.699  -1.664  24.920  0.00  0.00    +0.029 C 
BRANCH  17  19
ATOM     19  C   UNL     1      -0.178  -2.841  25.302  0.00  0.00    +0.097 C 
BRANCH  19  21
ATOM      2  O   UNL     1      -1.383  -3.108  23.219  0.00  0.00    -0.276 OA
ATOM      8  N   UNL     1      -2.578  -2.755  25.178  0.00  0.00    -0.304 N 
ATOM     21  C   UNL     1      -1.420  -2.920  24.433  0.00  0.00    +0.214 C 
ATOM     32  H   UNL     1      -2.513  -2.621  26.183  0.00  0.00    +0.150 HD
BRANCH   8  27
ATOM     27  C   UNL     1      -3.892  -2.788  24.579  0.00  0.00    +0.193 C 
BRANCH  27  29
ATOM     29  C   UNL     1      -4.314  -1.450  24.162  0.00  0.00    -0.087 C 
ATOM     30  C   UNL     1      -4.655  -0.352  23.819  0.00  0.00    +0.005 C 
ENDBRANCH  27  29
ENDBRANCH   8  27
ENDBRANCH  19  21
ENDBRANCH  17  19
ENDBRANCH  13  17
TORSDOF 9
ENDMDL
MODEL 3
REMARK VINA RESULT:       0.2      1.865      2.443
REMARK  Name = 45360808
REMARK  10 active torsions:
REMARK  status: ('A' for Active; 'I' for Inactive)
REMARK    1  A    between atoms: O_3  and  C_28
REMARK    2  A    between atoms: N_5  and  C_16
REMARK    3  A    between atoms: N_6  and  C_18
REMARK    4  A    between atoms: N_8  and  C_27
REMARK    5  A    between atoms: C_13  and  C_17
REMARK    6  A    between atoms: C_16  and  C_20
REMARK    7  A    between atoms: C_17  and  C_19
REMARK    8  A    between atoms: C_19  and  C_21
REMARK    9  A    between atoms: C_26  and  C_28
REMARK   10  A    between atoms: C_27  and  C_29
REMARK                            x       y       z     vdW  Elec       q    Type
REMARK                         _______ _______ _______ _____ _____    ______ ____
ROOT
ATOM      1  O   UNL     1       0.302   2.063  23.998  0.00  0.00    -0.274 OA
ATOM      5  N   UNL     1      -0.425  -0.526  23.747  0.00  0.00    -0.286 NA
ATOM      6  N   UNL     1      -3.383   1.293  24.906  0.00  0.00    -0.296 NA
ATOM      7  N   UNL     1      -1.681   2.905  23.226  0.00  0.00    -0.312 N 
ATOM      9  C   UNL     1      -2.702   0.171  24.222  0.00  0.00    +0.084 C 
ATOM     10  C   UNL     1      -1.436   0.480  23.369  0.00  0.00    +0.161 C 
ATOM     11  C   UNL     1      -2.185  -0.922  25.177  0.00  0.00    +0.036 C 
ATOM     12  C   UNL     1      -1.139  -1.644  24.353  0.00  0.00    +0.087 C 
ATOM     13  C   UNL     1      -3.961   2.313  23.989  0.00  0.00    +0.074 C 
ATOM     14  C   UNL     1      -0.839   1.869  23.581  0.00  0.00    +0.232 C 
ATOM     15  C   UNL     1      -3.055   2.712  22.808  0.00  0.00    +0.123 C 
ATOM     18  C   UNL     1      -4.415   0.793  25.831  0.00  0.00    +0.105 C 
ATOM     31  H   UNL     1      -1.322   3.854  23.284  0.00  0.00    +0.149 HD
ENDROOT
BRANCH   5  16
ATOM     16  C   UNL     1       0.412  -0.949  22.631  0.00  0.00    +0.120 C 
BRANCH  16  20
ATOM     20  C   UNL     1       1.865  -0.645  22.875  0.00  0.00    -0.033 A 
ATOM     22  C   UNL     1       2.654  -1.541  23.596  0.00  0.00    +0.006 A 
ATOM     23  C   UNL     1       2.423   0.534  22.380  0.00  0.00    +0.006 A 
ATOM     24  C   UNL     1       4.001  -1.258  23.823  0.00  0.00    +0.015 A 
ATOM     25  C   UNL     1       3.770   0.817  22.607  0.00  0.00    +0.015 A 
ATOM     26  C   UNL     1       4.560  -0.079  23.328  0.00  0.00    +0.059 A 
BRANCH  26  28
ATOM      4  O   UNL     1       6.915  -0.317  22.979  0.00  0.00    -0.245 OA
ATOM     28  C   UNL     1       5.964   0.215  23.562  0.00  0.00    +0.337 C 
BRANCH  28   3
ATOM      3  O   UNL     1       6.143   1.166  24.521  0.00  0.00    -0.477 OA
ATOM     33  H   UNL     1       6.952   1.001  25.051  0.00  0.00    +0.295 HD
ENDBRANCH  28   3
ENDBRANCH  26  28
ENDBRANCH  16  20
ENDBRANCH   5  16
BRANCH  13  17
ATOM     17  C   UNL     1      -4.308   3.601  24.765  0.00  0.00    +0.029 C 
BRANCH  17  19
ATOM     19  C   UNL     1      -3.603   3.624  26.108  0.00  0.00    +0.097 C 
BRANCH  19  21
ATOM      2  O   UNL     1      -1.684   4.907  25.379  0.00  0.00    -0.276 OA
ATOM      8  N   UNL     1      -1.343   2.935  26.555  0.00  0.00    -0.304 N 
ATOM     21  C   UNL     1      -2.121   3.917  25.959  0.00  0.00    +0.214 C 
ATOM     32  H   UNL     1      -1.793   2.158  27.028  0.00  0.00    +0.150 HD
BRANCH   8  27
ATOM     27  C   UNL     1       0.100   2.985  26.547  0.00  0.00    +0.193 C 
BRANCH  27  29
ATOM     29  C   UNL     1       0.646   2.616  27.854  0.00  0.00    -0.087 C 
ATOM     30  C   UNL     1       1.090   2.315  28.928  0.00  0.00    +0.005 C 
ENDBRANCH  27  29
ENDBRANCH   8  27
ENDBRANCH  19  21
ENDBRANCH  17  19
ENDBRANCH  13  17
TORSDOF 9
ENDMDL
MODEL 4
REMARK VINA RESULT:       0.2      2.239      7.312
REMARK  Name = 45360808
REMARK  10 active torsions:
REMARK  status: ('A' for Active; 'I' for Inactive)
REMARK    1  A    between atoms: O_3  and  C_28
REMARK    2  A    between atoms: N_5  and  C_16
REMARK    3  A    between atoms: N_6  and  C_18
REMARK    4  A    between atoms: N_8  and  C_27
REMARK    5  A    between atoms: C_13  and  C_17
REMARK    6  A    between atoms: C_16  and  C_20
REMARK    7  A    between atoms: C_17  and  C_19
REMARK    8  A    between atoms: C_19  and  C_21
REMARK    9  A    between atoms: C_26  and  C_28
REMARK   10  A    between atoms: C_27  and  C_29
REMARK                            x       y       z     vdW  Elec       q    Type
REMARK                         _______ _______ _______ _____ _____    ______ ____
ROOT
ATOM      1  O   UNL     1      -2.900   1.562  22.456  0.00  0.00    -0.274 OA
ATOM      5  N   UNL     1      -4.610   0.525  24.270  0.00  0.00    -0.286 NA
ATOM      6  N   UNL     1      -1.612  -1.572  24.329  0.00  0.00    -0.296 NA
ATOM      7  N   UNL     1      -1.023   1.183  23.709  0.00  0.00    -0.312 N 
ATOM      9  C   UNL     1      -2.836  -0.995  24.928  0.00  0.00    +0.084 C 
ATOM     10  C   UNL     1      -3.179   0.493  24.625  0.00  0.00    +0.161 C 
ATOM     11  C   UNL     1      -4.133  -1.714  24.513  0.00  0.00    +0.036 C 
ATOM     12  C   UNL     1      -5.211  -0.691  24.806  0.00  0.00    +0.087 C 
ATOM     13  C   UNL     1      -0.344  -0.940  24.789  0.00  0.00    +0.074 C 
ATOM     14  C   UNL     1      -2.384   1.119  23.481  0.00  0.00    +0.232 C 
ATOM     15  C   UNL     1      -0.377   0.599  24.868  0.00  0.00    +0.123 C 
ATOM     18  C   UNL     1      -1.562  -3.029  24.542  0.00  0.00    +0.105 C 
ATOM     31  H   UNL     1      -0.443   1.644  23.014  0.00  0.00    +0.149 HD
ENDROOT
BRANCH   5  16
ATOM     16  C   UNL     1      -5.294   1.726  24.736  0.00  0.00    +0.120 C 
BRANCH  16  20
ATOM     20  C   UNL     1      -4.361   2.903  24.825  0.00  0.00    -0.033 A 
ATOM     22  C   UNL     1      -4.257   3.793  23.756  0.00  0.00    +0.006 A 
ATOM     23  C   UNL     1      -3.599   3.103  25.976  0.00  0.00    +0.006 A 
ATOM     24  C   UNL     1      -3.391   4.883  23.837  0.00  0.00    +0.015 A 
ATOM     25  C   UNL     1      -2.733   4.194  26.058  0.00  0.00    +0.015 A 
ATOM     26  C   UNL     1      -2.629   5.085  24.989  0.00  0.00    +0.059 A 
BRANCH  26  28
ATOM      4  O   UNL     1      -2.064   7.385  25.322  0.00  0.00    -0.245 OA
ATOM     28  C   UNL     1      -1.728   6.222  25.075  0.00  0.00    +0.337 C 
BRANCH  28   3
ATOM      3  O   UNL     1      -0.430   5.876  24.850  0.00  0.00    -0.477 OA
ATOM     33  H   UNL     1       0.175   6.285  25.505  0.00  0.00    +0.295 HD
ENDBRANCH  28   3
ENDBRANCH  26  28
ENDBRANCH  16  20
ENDBRANCH   5  16
BRANCH  13  17
ATOM     17  C   UNL     1       0.822  -1.332  23.858  0.00  0.00    +0.029 C 
BRANCH  17  19
ATOM     19  C   UNL     1       0.708  -0.618  22.525  0.00  0.00    +0.097 C 
BRANCH  19  21
ATOM      2  O   UNL     1       2.477  -0.238  20.916  0.00  0.00    -0.276 OA
ATOM      8  N   UNL     1       2.717   0.586  23.073  0.00  0.00    -0.304 N 
ATOM     21  C   UNL     1       2.051  -0.084  22.058  0.00  0.00    +0.214 C 
ATOM     32  H   UNL     1       2.278   0.678  23.985  0.00  0.00    +0.150 HD
BRANCH   8  27
ATOM     27  C   UNL     1       4.016   1.184  22.879  0.00  0.00    +0.193 C 
BRANCH  27  29
ATOM     29  C   UNL     1       5.073   0.342  23.441  0.00  0.00    -0.087 C 
ATOM     30  C   UNL     1       5.937  -0.349  23.905  0.00  0.00    +0.005 C 
ENDBRANCH  27  29
ENDBRANCH   8  27
ENDBRANCH  19  21
ENDBRANCH  17  19
ENDBRANCH  13  17
TORSDOF 9
ENDMDL
MODEL 5
REMARK VINA RESULT:       0.7      1.807      2.885
REMARK  Name = 45360808
REMARK  10 active torsions:
REMARK  status: ('A' for Active; 'I' for Inactive)
REMARK    1  A    between atoms: O_3  and  C_28
REMARK    2  A    between atoms: N_5  and  C_16
REMARK    3  A    between atoms: N_6  and  C_18
REMARK    4  A    between atoms: N_8  and  C_27
REMARK    5  A    between atoms: C_13  and  C_17
REMARK    6  A    between atoms: C_16  and  C_20
REMARK    7  A    between atoms: C_17  and  C_19
REMARK    8  A    between atoms: C_19  and  C_21
REMARK    9  A    between atoms: C_26  and  C_28
REMARK   10  A    between atoms: C_27  and  C_29
REMARK                            x       y       z     vdW  Elec       q    Type
REMARK                         _______ _______ _______ _____ _____    ______ ____
ROOT
ATOM      1  O   UNL     1      -0.846   1.050  24.858  0.00  0.00    -0.274 OA
ATOM      5  N   UNL     1      -2.238  -1.262  24.745  0.00  0.00    -0.286 NA
ATOM      6  N   UNL     1      -4.678   1.413  25.283  0.00  0.00    -0.296 NA
ATOM      7  N   UNL     1      -2.409   2.281  23.727  0.00  0.00    -0.312 N 
ATOM      9  C   UNL     1      -4.265   0.071  24.814  0.00  0.00    +0.084 C 
ATOM     10  C   UNL     1      -2.875  -0.081  24.131  0.00  0.00    +0.161 C 
ATOM     11  C   UNL     1      -4.191  -0.986  25.932  0.00  0.00    +0.036 C 
ATOM     12  C   UNL     1      -3.302  -2.061  25.342  0.00  0.00    +0.087 C 
ATOM     13  C   UNL     1      -4.836   2.421  24.199  0.00  0.00    +0.074 C 
ATOM     14  C   UNL     1      -1.940   1.114  24.298  0.00  0.00    +0.232 C 
ATOM     15  C   UNL     1      -3.724   2.408  23.132  0.00  0.00    +0.123 C 
ATOM     18  C   UNL     1      -5.909   1.331  26.088  0.00  0.00    +0.105 C 
ATOM     31  H   UNL     1      -1.807   3.099  23.749  0.00  0.00    +0.149 HD
ENDROOT
BRANCH   5  16
ATOM     16  C   UNL     1      -1.430  -2.035  23.810  0.00  0.00    +0.120 C 
BRANCH  16  20
ATOM     20  C   UNL     1      -0.131  -1.346  23.489  0.00  0.00    -0.033 A 
ATOM     22  C   UNL     1       0.029  -0.692  22.268  0.00  0.00    +0.006 A 
ATOM     23  C   UNL     1       0.913  -1.362  24.414  0.00  0.00    +0.006 A 
ATOM     24  C   UNL     1       1.233  -0.055  21.970  0.00  0.00    +0.015 A 
ATOM     25  C   UNL     1       2.117  -0.724  24.117  0.00  0.00    +0.015 A 
ATOM     26  C   UNL     1       2.278  -0.069  22.895  0.00  0.00    +0.059 A 
BRANCH  26  28
ATOM      4  O   UNL     1       4.367   0.973  23.417  0.00  0.00    -0.245 OA
ATOM     28  C   UNL     1       3.532   0.596  22.586  0.00  0.00    +0.337 C 
BRANCH  28   3
ATOM      3  O   UNL     1       3.712   0.773  21.248  0.00  0.00    -0.477 OA
ATOM     33  H   UNL     1       2.867   0.970  20.790  0.00  0.00    +0.295 HD
ENDBRANCH  28   3
ENDBRANCH  26  28
ENDBRANCH  16  20
ENDBRANCH   5  16
BRANCH  13  17
ATOM     17  C   UNL     1      -4.894   3.845  24.792  0.00  0.00    +0.029 C 
BRANCH  17  19
ATOM     19  C   UNL     1      -4.262   3.878  26.171  0.00  0.00    +0.097 C 
BRANCH  19  21
ATOM      2  O   UNL     1      -1.933   3.520  26.725  0.00  0.00    -0.276 OA
ATOM      8  N   UNL     1      -2.493   5.221  25.248  0.00  0.00    -0.304 N 
ATOM     21  C   UNL     1      -2.772   4.162  26.099  0.00  0.00    +0.214 C 
ATOM     32  H   UNL     1      -3.253   5.683  24.758  0.00  0.00    +0.150 HD
BRANCH   8  27
ATOM     27  C   UNL     1      -1.147   5.686  25.012  0.00  0.00    +0.193 C 
BRANCH  27  29
ATOM     29  C   UNL     1      -0.335   4.647  24.376  0.00  0.00    -0.087 C 
ATOM     30  C   UNL     1       0.334   3.799  23.854  0.00  0.00    +0.005 C 
ENDBRANCH  27  29
ENDBRANCH   8  27
ENDBRANCH  19  21
ENDBRANCH  17  19
ENDBRANCH  13  17
TORSDOF 9
ENDMDL
