MODEL 1
REMARK VINA RESULT:      -3.6      0.000      0.000
REMARK  Name = 51137360
REMARK  6 active torsions:
REMARK  status: ('A' for Active; 'I' for Inactive)
REMARK    1  A    between atoms: N_2  and  C_11
REMARK    2  A    between atoms: C_7  and  C_12
REMARK    3  A    between atoms: C_11  and  C_13
REMARK    4  A    between atoms: C_14  and  C_15
REMARK    5  A    between atoms: C_15  and  C_18
REMARK    6  A    between atoms: C_24  and  C_29
REMARK                            x       y       z     vdW  Elec       q    Type
REMARK                         _______ _______ _______ _____ _____    ______ ____
ROOT
ATOM      1  O   UNL     1      -8.657  -9.011  14.044  0.00  0.00    -0.424 OA
ATOM      3  N   UNL     1     -10.023 -10.642  13.351  0.00  0.00    -0.112 NA
ATOM      4  N   UNL     1     -10.331 -10.357  14.669  0.00  0.00    -0.112 NA
ATOM     12  C   UNL     1      -9.042  -9.832  13.028  0.00  0.00    +0.222 A 
ATOM     14  C   UNL     1      -9.510  -9.401  15.032  0.00  0.00    +0.222 A 
ENDROOT
BRANCH  12   7
ATOM      2  N   UNL     1      -5.963 -10.064  11.498  0.00  0.00    -0.297 NA
ATOM      7  C   UNL     1      -8.299  -9.691  11.718  0.00  0.00    +0.092 C 
ATOM      8  C   UNL     1      -7.531  -8.364  11.613  0.00  0.00    +0.029 C 
ATOM      9  C   UNL     1      -7.243 -10.779  11.456  0.00  0.00    +0.097 C 
ATOM     10  C   UNL     1      -6.228  -8.743  10.929  0.00  0.00    +0.085 C 
BRANCH   2  11
ATOM     11  C   UNL     1      -4.904 -10.772  10.795  0.00  0.00    +0.119 C 
BRANCH  11  13
ATOM     13  C   UNL     1      -3.562 -10.120  11.003  0.00  0.00    -0.033 A 
ATOM     16  C   UNL     1      -2.785 -10.460  12.110  0.00  0.00    +0.006 A 
ATOM     17  C   UNL     1      -3.096  -9.177  10.086  0.00  0.00    +0.006 A 
ATOM     22  C   UNL     1      -1.543  -9.857  12.301  0.00  0.00    +0.019 A 
ATOM     23  C   UNL     1      -1.853  -8.574  10.277  0.00  0.00    +0.019 A 
ATOM     24  C   UNL     1      -1.076  -8.914  11.384  0.00  0.00    +0.052 A 
BRANCH  24  29
ATOM      6  N   UNL     1       1.232  -7.794  11.739  0.00  0.00    -0.191 NA
ATOM     29  C   UNL     1       0.197  -8.296  11.580  0.00  0.00    +0.099 C 
ENDBRANCH  24  29
ENDBRANCH  11  13
ENDBRANCH   2  11
ENDBRANCH  12   7
BRANCH  14  15
ATOM     15  C   UNL     1      -9.390  -8.711  16.322  0.00  0.00    +0.135 C 
BRANCH  15  18
ATOM      5  N   UNL     1      -7.920 -10.532  19.185  0.00  0.00    -0.360 N 
ATOM     18  C   UNL     1      -8.536  -9.436  17.356  0.00  0.00    -0.013 A 
ATOM     19  C   UNL     1      -7.136  -9.682  17.277  0.00  0.00    +0.003 A 
ATOM     20  C   UNL     1      -6.776 -10.372  18.437  0.00  0.00    +0.047 A 
ATOM     21  C   UNL     1      -8.989  -9.970  18.540  0.00  0.00    +0.087 A 
ATOM     25  C   UNL     1      -6.139  -9.385  16.327  0.00  0.00    +0.010 A 
ATOM     26  C   UNL     1      -5.462 -10.779  18.695  0.00  0.00    +0.026 A 
ATOM     27  C   UNL     1      -4.821  -9.787  16.572  0.00  0.00    +0.001 A 
ATOM     28  C   UNL     1      -4.490 -10.474  17.738  0.00  0.00    +0.002 A 
ATOM     30  H   UNL     1      -7.963 -10.999  20.081  0.00  0.00    +0.165 HD
ENDBRANCH  15  18
ENDBRANCH  14  15
TORSDOF 6
ENDMDL
MODEL 2
REMARK VINA RESULT:      -1.1     14.799     16.613
REMARK  Name = 51137360
REMARK  6 active torsions:
REMARK  status: ('A' for Active; 'I' for Inactive)
REMARK    1  A    between atoms: N_2  and  C_11
REMARK    2  A    between atoms: C_7  and  C_12
REMARK    3  A    between atoms: C_11  and  C_13
REMARK    4  A    between atoms: C_14  and  C_15
REMARK    5  A    between atoms: C_15  and  C_18
REMARK    6  A    between atoms: C_24  and  C_29
REMARK                            x       y       z     vdW  Elec       q    Type
REMARK                         _______ _______ _______ _____ _____    ______ ____
ROOT
ATOM      1  O   UNL     1      -2.024   3.151  25.114  0.00  0.00    -0.424 OA
ATOM      3  N   UNL     1      -0.324   4.605  25.171  0.00  0.00    -0.112 NA
ATOM      4  N   UNL     1      -1.502   5.327  25.105  0.00  0.00    -0.112 NA
ATOM     12  C   UNL     1      -0.677   3.341  25.174  0.00  0.00    +0.222 A 
ATOM     14  C   UNL     1      -2.467   4.438  25.073  0.00  0.00    +0.222 A 
ENDROOT
BRANCH  12   7
ATOM      2  N   UNL     1       0.125   0.391  23.584  0.00  0.00    -0.297 NA
ATOM      7  C   UNL     1       0.184   2.099  25.234  0.00  0.00    +0.092 C 
ATOM      8  C   UNL     1      -0.586   0.867  25.735  0.00  0.00    +0.029 C 
ATOM      9  C   UNL     1       0.785   1.666  23.885  0.00  0.00    +0.097 C 
ATOM     10  C   UNL     1      -0.066  -0.271  24.873  0.00  0.00    +0.085 C 
BRANCH   2  11
ATOM     11  C   UNL     1       0.883  -0.422  22.646  0.00  0.00    +0.119 C 
BRANCH  11  13
ATOM     13  C   UNL     1       2.368  -0.309  22.878  0.00  0.00    -0.033 A 
ATOM     16  C   UNL     1       3.058   0.820  22.439  0.00  0.00    +0.006 A 
ATOM     17  C   UNL     1       3.051  -1.335  23.531  0.00  0.00    +0.006 A 
ATOM     22  C   UNL     1       4.432   0.924  22.655  0.00  0.00    +0.019 A 
ATOM     23  C   UNL     1       4.425  -1.231  23.747  0.00  0.00    +0.019 A 
ATOM     24  C   UNL     1       5.115  -0.102  23.309  0.00  0.00    +0.052 A 
BRANCH  24  29
ATOM      6  N   UNL     1       7.666   0.091  23.708  0.00  0.00    -0.191 NA
ATOM     29  C   UNL     1       6.523   0.005  23.529  0.00  0.00    +0.099 C 
ENDBRANCH  24  29
ENDBRANCH  11  13
ENDBRANCH   2  11
ENDBRANCH  12   7
BRANCH  14  15
ATOM     15  C   UNL     1      -3.920   4.638  25.005  0.00  0.00    +0.135 C 
BRANCH  15  18
ATOM      5  N   UNL     1      -6.348   1.983  25.859  0.00  0.00    -0.360 N 
ATOM     18  C   UNL     1      -4.748   3.373  25.201  0.00  0.00    -0.013 A 
ATOM     19  C   UNL     1      -4.460   2.081  24.675  0.00  0.00    +0.003 A 
ATOM     20  C   UNL     1      -5.480   1.228  25.103  0.00  0.00    +0.047 A 
ATOM     21  C   UNL     1      -5.915   3.280  25.924  0.00  0.00    +0.087 A 
ATOM     25  C   UNL     1      -3.427   1.556  23.874  0.00  0.00    +0.010 A 
ATOM     26  C   UNL     1      -5.516  -0.130  24.769  0.00  0.00    +0.026 A 
ATOM     27  C   UNL     1      -3.452   0.199  23.532  0.00  0.00    +0.001 A 
ATOM     28  C   UNL     1      -4.482  -0.629  23.973  0.00  0.00    +0.002 A 
ATOM     30  H   UNL     1      -7.185   1.628  26.302  0.00  0.00    +0.165 HD
ENDBRANCH  15  18
ENDBRANCH  14  15
TORSDOF 6
ENDMDL
